MODEL 1
REMARK VINA RESULT:      -7.2      0.000      0.000
REMARK  9 active torsions:
REMARK  status: ('A' for Active; 'I' for Inactive)
REMARK    1  A    between atoms: N_18  and  C_19 
REMARK    2  A    between atoms: C_19  and  C_20 
REMARK    3  A    between atoms: C_20  and  C_21 
REMARK    4  A    between atoms: C_20  and  O_22 
REMARK    5  A    between atoms: C_21  and  C_23 
REMARK    6  A    between atoms: C_21  and  O_24 
REMARK    7  A    between atoms: C_23  and  C_25 
REMARK    8  A    between atoms: C_23  and  O_26 
REMARK    9  A    between atoms: C_25  and  O_27 
ROOT
HETATM    1  C   UNK N   1      23.859  18.383   4.448  0.00  0.00     0.145 A 
HETATM    2  C   UNK N   1      25.093  17.707   4.529  0.00  0.00     0.146 A 
HETATM    3  C   UNK N   1      22.874  16.724   5.843  0.00  0.00     0.063 A 
HETATM    4  C   UNK N   1      24.124  16.056   5.899  0.00  0.00     0.060 A 
HETATM    5  C   UNK N   1      21.804  16.163   6.557  0.00  0.00     0.039 A 
HETATM    6  C   UNK N   1      24.269  14.871   6.625  0.00  0.00     0.039 A 
HETATM    7  C   UNK N   1      23.186  14.325   7.313  0.00  0.00    -0.054 A 
HETATM    8  C   UNK N   1      21.945  14.978   7.283  0.00  0.00    -0.054 A 
HETATM    9  C   UNK N   1      24.880  20.041   3.072  0.00  0.00     0.328 A 
HETATM   10  N   UNK N   1      25.192  16.563   5.244  0.00  0.00    -0.347 N 
ATOM     11  HN  UNK N   1      26.087  16.075   5.290  1.00  0.00     0.166 HD
HETATM   12  N   UNK N   1      23.784  19.534   3.718  0.00  0.00    -0.292 N 
ATOM     13  HN  UNK N   1      22.893  20.027   3.653  1.00  0.00     0.172 HD
HETATM   14  C   UNK N   1      26.205  18.232   3.863  0.00  0.00     0.280 A 
HETATM   15  O   UNK N   1      27.283  17.666   3.916  0.00  0.00    -0.265 OA
HETATM   16  O   UNK N   1      24.785  21.072   2.432  0.00  0.00    -0.247 OA
HETATM   17  N   UNK N   1      26.082  19.391   3.145  0.00  0.00    -0.273 N 
HETATM   18  N   UNK N   1      22.749  17.891   5.096  0.00  0.00    -0.327 N 
HETATM   19  C   UNK N   1      20.760  14.432   8.005  0.00  0.00     0.049 C 
HETATM   20  C   UNK N   1      23.373  13.052   8.068  0.00  0.00     0.049 C 
HETATM   21  H   UNK N   1      26.865  19.761   2.678  0.00  0.00     0.173 HD
ENDROOT
BRANCH  18  22
HETATM   22  C   UNK N   1      21.497  18.681   4.925  0.00  0.00     0.165 C 
BRANCH  22  23
HETATM   23  C   UNK N   1      20.591  18.408   3.721  0.00  0.00     0.167 C 
BRANCH  23  24
HETATM   24  C   UNK N   1      20.097  19.695   3.051  0.00  0.00     0.179 C 
BRANCH  24  25
HETATM   25  C   UNK N   1      21.190  20.348   2.195  0.00  0.00     0.173 C 
BRANCH  25  26
HETATM   26  C   UNK N   1      20.642  20.637   0.807  0.00  0.00     0.198 C 
BRANCH  26  27
HETATM   27  O   UNK N   1      20.584  19.461   0.058  0.00  0.00    -0.398 OA
HETATM   28  H   UNK N   1      21.036  18.650   0.340  0.00  0.00     0.209 HD
ENDBRANCH  26  27
ENDBRANCH  25  26
BRANCH  25  29
HETATM   29  O   UNK N   1      21.655  21.536   2.763  0.00  0.00    -0.391 OA
HETATM   30  H   UNK N   1      21.292  22.008   3.531  0.00  0.00     0.210 HD
ENDBRANCH  25  29
ENDBRANCH  24  25
BRANCH  24  31
HETATM   31  O   UNK N   1      18.977  19.457   2.249  0.00  0.00    -0.390 OA
HETATM   32  H   UNK N   1      18.742  19.597   1.319  0.00  0.00     0.210 HD
ENDBRANCH  24  31
ENDBRANCH  23  24
BRANCH  23  33
HETATM   33  O   UNK N   1      21.308  17.686   2.764  0.00  0.00    -0.391 OA
HETATM   34  H   UNK N   1      22.089  17.191   2.468  0.00  0.00     0.210 HD
ENDBRANCH  23  33
ENDBRANCH  22  23
ENDBRANCH  18  22
TORSDOF 9
ENDMDL
MODEL 2
REMARK VINA RESULT:      -7.1      2.779      5.908
REMARK  9 active torsions:
REMARK  status: ('A' for Active; 'I' for Inactive)
REMARK    1  A    between atoms: N_18  and  C_19 
REMARK    2  A    between atoms: C_19  and  C_20 
REMARK    3  A    between atoms: C_20  and  C_21 
REMARK    4  A    between atoms: C_20  and  O_22 
REMARK    5  A    between atoms: C_21  and  C_23 
REMARK    6  A    between atoms: C_21  and  O_24 
REMARK    7  A    between atoms: C_23  and  C_25 
REMARK    8  A    between atoms: C_23  and  O_26 
REMARK    9  A    between atoms: C_25  and  O_27 
ROOT
HETATM    1  C   UNK N   1      21.769  18.603   3.577  0.00  0.00     0.145 A 
HETATM    2  C   UNK N   1      22.102  19.788   2.890  0.00  0.00     0.146 A 
HETATM    3  C   UNK N   1      24.003  18.460   4.387  0.00  0.00     0.063 A 
HETATM    4  C   UNK N   1      24.316  19.648   3.677  0.00  0.00     0.060 A 
HETATM    5  C   UNK N   1      25.027  17.861   5.138  0.00  0.00     0.039 A 
HETATM    6  C   UNK N   1      25.607  20.182   3.714  0.00  0.00     0.039 A 
HETATM    7  C   UNK N   1      26.611  19.560   4.455  0.00  0.00    -0.054 A 
HETATM    8  C   UNK N   1      26.318  18.393   5.177  0.00  0.00    -0.054 A 
HETATM    9  C   UNK N   1      19.534  18.787   2.768  0.00  0.00     0.328 A 
HETATM   10  N   UNK N   1      23.363  20.275   2.953  0.00  0.00    -0.347 N 
ATOM     11  HN  UNK N   1      23.598  21.128   2.446  1.00  0.00     0.166 HD
HETATM   12  N   UNK N   1      20.491  18.131   3.496  0.00  0.00    -0.292 N 
ATOM     13  HN  UNK N   1      20.243  17.272   3.989  1.00  0.00     0.172 HD
HETATM   14  C   UNK N   1      21.117  20.448   2.148  0.00  0.00     0.280 A 
HETATM   15  O   UNK N   1      21.381  21.473   1.544  0.00  0.00    -0.265 OA
HETATM   16  O   UNK N   1      18.401  18.345   2.718  0.00  0.00    -0.247 OA
HETATM   17  N   UNK N   1      19.848  19.938   2.099  0.00  0.00    -0.273 N 
HETATM   18  N   UNK N   1      22.717  17.934   4.318  0.00  0.00    -0.327 N 
HETATM   19  C   UNK N   1      27.359  17.695   5.983  0.00  0.00     0.049 C 
HETATM   20  C   UNK N   1      27.980  20.151   4.462  0.00  0.00     0.049 C 
HETATM   21  H   UNK N   1      19.156  20.404   1.577  0.00  0.00     0.173 HD
ENDROOT
BRANCH  18  22
HETATM   22  C   UNK N   1      22.253  16.686   4.986  0.00  0.00     0.165 C 
BRANCH  22  23
HETATM   23  C   UNK N   1      22.056  16.671   6.504  0.00  0.00     0.167 C 
BRANCH  23  24
HETATM   24  C   UNK N   1      20.770  17.381   6.939  0.00  0.00     0.179 C 
BRANCH  24  25
HETATM   25  C   UNK N   1      20.247  16.844   8.278  0.00  0.00     0.173 C 
BRANCH  25  26
HETATM   26  C   UNK N   1      19.360  17.891   8.932  0.00  0.00     0.198 C 
BRANCH  26  27
HETATM   27  O   UNK N   1      20.140  18.812   9.632  0.00  0.00    -0.398 OA
HETATM   28  H   UNK N   1      19.987  19.005  10.571  0.00  0.00     0.209 HD
ENDBRANCH  26  27
ENDBRANCH  25  26
BRANCH  25  29
HETATM   29  O   UNK N   1      19.521  15.661   8.115  0.00  0.00    -0.391 OA
HETATM   30  H   UNK N   1      19.172  15.080   8.809  0.00  0.00     0.210 HD
ENDBRANCH  25  29
ENDBRANCH  24  25
BRANCH  24  31
HETATM   31  O   UNK N   1      20.961  18.762   7.050  0.00  0.00    -0.390 OA
HETATM   32  H   UNK N   1      21.104  19.498   6.435  0.00  0.00     0.210 HD
ENDBRANCH  24  31
ENDBRANCH  23  24
BRANCH  23  33
HETATM   33  O   UNK N   1      21.971  15.346   6.941  0.00  0.00    -0.391 OA
HETATM   34  H   UNK N   1      21.842  14.676   7.630  0.00  0.00     0.210 HD
ENDBRANCH  23  33
ENDBRANCH  22  23
ENDBRANCH  18  22
TORSDOF 9
ENDMDL
MODEL 3
REMARK VINA RESULT:      -7.0      9.479     13.327
REMARK  9 active torsions:
REMARK  status: ('A' for Active; 'I' for Inactive)
REMARK    1  A    between atoms: N_18  and  C_19 
REMARK    2  A    between atoms: C_19  and  C_20 
REMARK    3  A    between atoms: C_20  and  C_21 
REMARK    4  A    between atoms: C_20  and  O_22 
REMARK    5  A    between atoms: C_21  and  C_23 
REMARK    6  A    between atoms: C_21  and  O_24 
REMARK    7  A    between atoms: C_23  and  C_25 
REMARK    8  A    between atoms: C_23  and  O_26 
REMARK    9  A    between atoms: C_25  and  O_27 
ROOT
HETATM    1  C   UNK N   1      32.091  16.933   8.026  0.00  0.00     0.145 A 
HETATM    2  C   UNK N   1      31.274  16.737   6.894  0.00  0.00     0.146 A 
HETATM    3  C   UNK N   1      33.870  15.801   6.920  0.00  0.00     0.063 A 
HETATM    4  C   UNK N   1      33.024  15.607   5.798  0.00  0.00     0.060 A 
HETATM    5  C   UNK N   1      35.182  15.307   6.839  0.00  0.00     0.039 A 
HETATM    6  C   UNK N   1      33.483  14.928   4.666  0.00  0.00     0.039 A 
HETATM    7  C   UNK N   1      34.786  14.434   4.617  0.00  0.00    -0.054 A 
HETATM    8  C   UNK N   1      35.644  14.629   5.710  0.00  0.00    -0.054 A 
HETATM    9  C   UNK N   1      30.298  18.082   9.097  0.00  0.00     0.328 A 
HETATM   10  N   UNK N   1      31.757  16.077   5.816  0.00  0.00    -0.347 N 
ATOM     11  HN  UNK N   1      31.156  15.932   5.005  1.00  0.00     0.166 HD
HETATM   12  N   UNK N   1      31.580  17.600   9.101  0.00  0.00    -0.292 N 
ATOM     13  HN  UNK N   1      32.165  17.742   9.925  1.00  0.00     0.172 HD
HETATM   14  C   UNK N   1      29.965  17.232   6.902  0.00  0.00     0.280 A 
HETATM   15  O   UNK N   1      29.239  17.075   5.937  0.00  0.00    -0.265 OA
HETATM   16  O   UNK N   1      29.870  18.678  10.069  0.00  0.00    -0.247 OA
HETATM   17  N   UNK N   1      29.498  17.897   8.003  0.00  0.00    -0.273 N 
HETATM   18  N   UNK N   1      33.384  16.460   8.045  0.00  0.00    -0.327 N 
HETATM   19  C   UNK N   1      37.045  14.119   5.700  0.00  0.00     0.049 C 
HETATM   20  C   UNK N   1      35.239  13.704   3.397  0.00  0.00     0.049 C 
HETATM   21  H   UNK N   1      28.578  18.245   8.007  0.00  0.00     0.173 HD
ENDROOT
BRANCH  18  22
HETATM   22  C   UNK N   1      34.146  16.711   9.300  0.00  0.00     0.165 C 
BRANCH  22  23
HETATM   23  C   UNK N   1      34.391  15.559  10.277  0.00  0.00     0.167 C 
BRANCH  23  24
HETATM   24  C   UNK N   1      35.430  15.905  11.350  0.00  0.00     0.179 C 
BRANCH  24  25
HETATM   25  C   UNK N   1      35.676  14.730  12.305  0.00  0.00     0.173 C 
BRANCH  25  26
HETATM   26  C   UNK N   1      36.283  13.570  11.533  0.00  0.00     0.198 C 
BRANCH  26  27
HETATM   27  O   UNK N   1      37.674  13.589  11.649  0.00  0.00    -0.398 OA
HETATM   28  H   UNK N   1      38.176  14.420  11.655  0.00  0.00     0.209 HD
ENDBRANCH  26  27
ENDBRANCH  25  26
BRANCH  25  29
HETATM   29  O   UNK N   1      36.530  15.083  13.354  0.00  0.00    -0.391 OA
HETATM   30  H   UNK N   1      36.292  15.251  14.280  0.00  0.00     0.210 HD
ENDBRANCH  25  29
ENDBRANCH  24  25
BRANCH  24  31
HETATM   31  O   UNK N   1      36.647  16.287  10.780  0.00  0.00    -0.390 OA
HETATM   32  H   UNK N   1      37.585  16.113  10.955  0.00  0.00     0.210 HD
ENDBRANCH  24  31
ENDBRANCH  23  24
BRANCH  23  33
HETATM   33  O   UNK N   1      33.196  15.254  10.934  0.00  0.00    -0.391 OA
HETATM   34  H   UNK N   1      32.645  15.194  11.730  0.00  0.00     0.210 HD
ENDBRANCH  23  33
ENDBRANCH  22  23
ENDBRANCH  18  22
TORSDOF 9
ENDMDL
MODEL 4
REMARK VINA RESULT:      -6.9      9.630     13.309
REMARK  9 active torsions:
REMARK  status: ('A' for Active; 'I' for Inactive)
REMARK    1  A    between atoms: N_18  and  C_19 
REMARK    2  A    between atoms: C_19  and  C_20 
REMARK    3  A    between atoms: C_20  and  C_21 
REMARK    4  A    between atoms: C_20  and  O_22 
REMARK    5  A    between atoms: C_21  and  C_23 
REMARK    6  A    between atoms: C_21  and  O_24 
REMARK    7  A    between atoms: C_23  and  C_25 
REMARK    8  A    between atoms: C_23  and  O_26 
REMARK    9  A    between atoms: C_25  and  O_27 
ROOT
HETATM    1  C   UNK N   1      34.268  15.639   7.093  0.00  0.00     0.145 A 
HETATM    2  C   UNK N   1      33.607  15.389   5.874  0.00  0.00     0.146 A 
HETATM    3  C   UNK N   1      32.325  16.746   7.907  0.00  0.00     0.063 A 
HETATM    4  C   UNK N   1      31.684  16.492   6.667  0.00  0.00     0.060 A 
HETATM    5  C   UNK N   1      31.590  17.426   8.891  0.00  0.00     0.039 A 
HETATM    6  C   UNK N   1      30.376  16.927   6.436  0.00  0.00     0.039 A 
HETATM    7  C   UNK N   1      29.674  17.616   7.425  0.00  0.00    -0.054 A 
HETATM    8  C   UNK N   1      30.284  17.863   8.664  0.00  0.00    -0.054 A 
HETATM    9  C   UNK N   1      36.192  14.504   6.258  0.00  0.00     0.328 A 
HETATM   10  N   UNK N   1      32.339  15.825   5.691  0.00  0.00    -0.347 N 
ATOM     11  HN  UNK N   1      31.870  15.648   4.803  1.00  0.00     0.166 HD
HETATM   12  N   UNK N   1      35.548  15.190   7.253  0.00  0.00    -0.292 N 
ATOM     13  HN  UNK N   1      36.034  15.370   8.132  1.00  0.00     0.172 HD
HETATM   14  C   UNK N   1      34.275  14.689   4.864  0.00  0.00     0.280 A 
HETATM   15  O   UNK N   1      33.725  14.462   3.800  0.00  0.00    -0.265 OA
HETATM   16  O   UNK N   1      37.331  14.112   6.430  0.00  0.00    -0.247 OA
HETATM   17  N   UNK N   1      35.556  14.257   5.071  0.00  0.00    -0.273 N 
HETATM   18  N   UNK N   1      33.634  16.322   8.106  0.00  0.00    -0.327 N 
HETATM   19  C   UNK N   1      29.570  18.593   9.750  0.00  0.00     0.049 C 
HETATM   20  C   UNK N   1      28.284  18.076   7.140  0.00  0.00     0.049 C 
HETATM   21  H   UNK N   1      36.025  13.764   4.360  0.00  0.00     0.173 HD
ENDROOT
BRANCH  18  22
HETATM   22  C   UNK N   1      34.438  16.541   9.341  0.00  0.00     0.165 C 
BRANCH  22  23
HETATM   23  C   UNK N   1      34.566  15.413  10.368  0.00  0.00     0.167 C 
BRANCH  23  24
HETATM   24  C   UNK N   1      35.604  15.717  11.454  0.00  0.00     0.179 C 
BRANCH  24  25
HETATM   25  C   UNK N   1      35.860  14.502  12.354  0.00  0.00     0.173 C 
BRANCH  25  26
HETATM   26  C   UNK N   1      36.461  13.377  11.527  0.00  0.00     0.198 C 
BRANCH  26  27
HETATM   27  O   UNK N   1      37.852  13.481  11.510  0.00  0.00    -0.398 OA
HETATM   28  H   UNK N   1      38.317  14.212  11.948  0.00  0.00     0.209 HD
ENDBRANCH  26  27
ENDBRANCH  25  26
BRANCH  25  29
HETATM   29  O   UNK N   1      36.723  14.809  13.409  0.00  0.00    -0.391 OA
HETATM   30  H   UNK N   1      37.485  15.411  13.395  0.00  0.00     0.210 HD
ENDBRANCH  25  29
ENDBRANCH  24  25
BRANCH  24  31
HETATM   31  O   UNK N   1      36.818  16.133  10.899  0.00  0.00    -0.390 OA
HETATM   32  H   UNK N   1      37.757  16.026  11.116  0.00  0.00     0.210 HD
ENDBRANCH  24  31
ENDBRANCH  23  24
BRANCH  23  33
HETATM   33  O   UNK N   1      33.335  15.233  11.004  0.00  0.00    -0.391 OA
HETATM   34  H   UNK N   1      32.383  15.398  11.096  0.00  0.00     0.210 HD
ENDBRANCH  23  33
ENDBRANCH  22  23
ENDBRANCH  18  22
TORSDOF 9
ENDMDL
MODEL 5
REMARK VINA RESULT:      -6.8      8.038     11.816
REMARK  9 active torsions:
REMARK  status: ('A' for Active; 'I' for Inactive)
REMARK    1  A    between atoms: N_18  and  C_19 
REMARK    2  A    between atoms: C_19  and  C_20 
REMARK    3  A    between atoms: C_20  and  C_21 
REMARK    4  A    between atoms: C_20  and  O_22 
REMARK    5  A    between atoms: C_21  and  C_23 
REMARK    6  A    between atoms: C_21  and  O_24 
REMARK    7  A    between atoms: C_23  and  C_25 
REMARK    8  A    between atoms: C_23  and  O_26 
REMARK    9  A    between atoms: C_25  and  O_27 
ROOT
HETATM    1  C   UNK N   1      33.004  15.996   6.143  0.00  0.00     0.145 A 
HETATM    2  C   UNK N   1      32.591  16.033   4.796  0.00  0.00     0.146 A 
HETATM    3  C   UNK N   1      30.978  17.073   6.779  0.00  0.00     0.063 A 
HETATM    4  C   UNK N   1      30.591  17.108   5.415  0.00  0.00     0.060 A 
HETATM    5  C   UNK N   1      30.087  17.609   7.722  0.00  0.00     0.039 A 
HETATM    6  C   UNK N   1      29.373  17.677   5.032  0.00  0.00     0.039 A 
HETATM    7  C   UNK N   1      28.512  18.217   5.988  0.00  0.00    -0.054 A 
HETATM    8  C   UNK N   1      28.870  18.178   7.344  0.00  0.00    -0.054 A 
HETATM    9  C   UNK N   1      35.013  14.898   5.477  0.00  0.00     0.328 A 
HETATM   10  N   UNK N   1      31.403  16.590   4.467  0.00  0.00    -0.347 N 
ATOM     11  HN  UNK N   1      31.116  16.620   3.489  1.00  0.00     0.166 HD
HETATM   12  N   UNK N   1      34.207  15.430   6.449  0.00  0.00    -0.292 N 
ATOM     13  HN  UNK N   1      34.514  15.403   7.422  1.00  0.00     0.172 HD
HETATM   14  C   UNK N   1      33.422  15.488   3.811  0.00  0.00     0.280 A 
HETATM   15  O   UNK N   1      33.089  15.509   2.639  0.00  0.00    -0.265 OA
HETATM   16  O   UNK N   1      36.079  14.395   5.780  0.00  0.00    -0.247 OA
HETATM   17  N   UNK N   1      34.620  14.929   4.167  0.00  0.00    -0.273 N 
HETATM   18  N   UNK N   1      32.205  16.521   7.134  0.00  0.00    -0.327 N 
HETATM   19  C   UNK N   1      27.979  18.741   8.399  0.00  0.00     0.049 C 
HETATM   20  C   UNK N   1      27.225  18.826   5.543  0.00  0.00     0.049 C 
HETATM   21  H   UNK N   1      35.203  14.545   3.474  0.00  0.00     0.173 HD
ENDROOT
BRANCH  18  22
HETATM   22  C   UNK N   1      32.752  16.441   8.517  0.00  0.00     0.165 C 
BRANCH  22  23
HETATM   23  C   UNK N   1      32.576  15.153   9.324  0.00  0.00     0.167 C 
BRANCH  23  24
HETATM   24  C   UNK N   1      33.854  14.740  10.064  0.00  0.00     0.179 C 
BRANCH  24  25
HETATM   25  C   UNK N   1      35.054  15.603   9.653  0.00  0.00     0.173 C 
BRANCH  25  26
HETATM   26  C   UNK N   1      35.704  16.191  10.895  0.00  0.00     0.198 C 
BRANCH  26  27
HETATM   27  O   UNK N   1      37.084  15.992  10.857  0.00  0.00    -0.398 OA
HETATM   28  H   UNK N   1      37.602  15.835  11.662  0.00  0.00     0.209 HD
ENDBRANCH  26  27
ENDBRANCH  25  26
BRANCH  25  29
HETATM   29  O   UNK N   1      36.004  14.866   8.942  0.00  0.00    -0.391 OA
HETATM   30  H   UNK N   1      36.848  14.515   9.268  0.00  0.00     0.210 HD
ENDBRANCH  25  29
ENDBRANCH  24  25
BRANCH  24  31
HETATM   31  O   UNK N   1      33.691  14.823  11.450  0.00  0.00    -0.390 OA
HETATM   32  H   UNK N   1      32.950  14.967  12.059  0.00  0.00     0.210 HD
ENDBRANCH  24  31
ENDBRANCH  23  24
BRANCH  23  33
HETATM   33  O   UNK N   1      31.580  15.347  10.285  0.00  0.00    -0.391 OA
HETATM   34  H   UNK N   1      31.146  15.136  11.126  0.00  0.00     0.210 HD
ENDBRANCH  23  33
ENDBRANCH  22  23
ENDBRANCH  18  22
TORSDOF 9
ENDMDL
MODEL 6
REMARK VINA RESULT:      -6.7     13.640     15.771
REMARK  9 active torsions:
REMARK  status: ('A' for Active; 'I' for Inactive)
REMARK    1  A    between atoms: N_18  and  C_19 
REMARK    2  A    between atoms: C_19  and  C_20 
REMARK    3  A    between atoms: C_20  and  C_21 
REMARK    4  A    between atoms: C_20  and  O_22 
REMARK    5  A    between atoms: C_21  and  C_23 
REMARK    6  A    between atoms: C_21  and  O_24 
REMARK    7  A    between atoms: C_23  and  C_25 
REMARK    8  A    between atoms: C_23  and  O_26 
REMARK    9  A    between atoms: C_25  and  O_27 
ROOT
HETATM    1  C   UNK N   1      36.108  13.091  13.154  0.00  0.00     0.145 A 
HETATM    2  C   UNK N   1      35.161  12.480  14.001  0.00  0.00     0.146 A 
HETATM    3  C   UNK N   1      35.375  11.708  11.360  0.00  0.00     0.063 A 
HETATM    4  C   UNK N   1      34.438  11.101  12.236  0.00  0.00     0.060 A 
HETATM    5  C   UNK N   1      35.402  11.265  10.028  0.00  0.00     0.039 A 
HETATM    6  C   UNK N   1      33.592  10.085  11.784  0.00  0.00     0.039 A 
HETATM    7  C   UNK N   1      33.649   9.652  10.459  0.00  0.00    -0.054 A 
HETATM    8  C   UNK N   1      34.558  10.250   9.573  0.00  0.00    -0.054 A 
HETATM    9  C   UNK N   1      36.804  14.478  14.964  0.00  0.00     0.328 A 
HETATM   10  N   UNK N   1      34.358  11.501  13.524  0.00  0.00    -0.347 N 
ATOM     11  HN  UNK N   1      33.682  11.059  14.146  1.00  0.00     0.166 HD
HETATM   12  N   UNK N   1      36.907  14.074  13.659  0.00  0.00    -0.292 N 
ATOM     13  HN  UNK N   1      37.597  14.519  13.052  1.00  0.00     0.172 HD
HETATM   14  C   UNK N   1      35.065  12.898  15.332  0.00  0.00     0.280 A 
HETATM   15  O   UNK N   1      34.256  12.385  16.085  0.00  0.00    -0.265 OA
HETATM   16  O   UNK N   1      37.527  15.361  15.386  0.00  0.00    -0.247 OA
HETATM   17  N   UNK N   1      35.887  13.891  15.793  0.00  0.00    -0.273 N 
HETATM   18  N   UNK N   1      36.222  12.702  11.838  0.00  0.00    -0.327 N 
HETATM   19  C   UNK N   1      34.652   9.820   8.149  0.00  0.00     0.049 C 
HETATM   20  C   UNK N   1      32.739   8.557  10.014  0.00  0.00     0.049 C 
HETATM   21  H   UNK N   1      35.818  14.185  16.730  0.00  0.00     0.173 HD
ENDROOT
BRANCH  18  22
HETATM   22  C   UNK N   1      37.268  13.406  11.044  0.00  0.00     0.165 C 
BRANCH  22  23
HETATM   23  C   UNK N   1      36.883  14.627  10.204  0.00  0.00     0.167 C 
BRANCH  23  24
HETATM   24  C   UNK N   1      35.412  14.607   9.773  0.00  0.00     0.179 C 
BRANCH  24  25
HETATM   25  C   UNK N   1      34.576  15.628  10.556  0.00  0.00     0.173 C 
BRANCH  25  26
HETATM   26  C   UNK N   1      34.160  16.759   9.630  0.00  0.00     0.198 C 
BRANCH  26  27
HETATM   27  O   UNK N   1      35.173  17.717   9.555  0.00  0.00    -0.398 OA
HETATM   28  H   UNK N   1      34.999  18.623   9.256  0.00  0.00     0.209 HD
ENDBRANCH  26  27
ENDBRANCH  25  26
BRANCH  25  29
HETATM   29  O   UNK N   1      33.434  15.046  11.113  0.00  0.00    -0.391 OA
HETATM   30  H   UNK N   1      32.522  15.376  11.076  0.00  0.00     0.210 HD
ENDBRANCH  25  29
ENDBRANCH  24  25
BRANCH  24  31
HETATM   31  O   UNK N   1      35.277  14.865   8.406  0.00  0.00    -0.390 OA
HETATM   32  H   UNK N   1      35.866  14.880   7.636  0.00  0.00     0.210 HD
ENDBRANCH  24  31
ENDBRANCH  23  24
BRANCH  23  33
HETATM   33  O   UNK N   1      37.083  15.784  10.962  0.00  0.00    -0.391 OA
HETATM   34  H   UNK N   1      37.544  16.293  11.647  0.00  0.00     0.210 HD
ENDBRANCH  23  33
ENDBRANCH  22  23
ENDBRANCH  18  22
TORSDOF 9
ENDMDL
MODEL 7
REMARK VINA RESULT:      -6.6     13.662     16.552
REMARK  9 active torsions:
REMARK  status: ('A' for Active; 'I' for Inactive)
REMARK    1  A    between atoms: N_18  and  C_19 
REMARK    2  A    between atoms: C_19  and  C_20 
REMARK    3  A    between atoms: C_20  and  C_21 
REMARK    4  A    between atoms: C_20  and  O_22 
REMARK    5  A    between atoms: C_21  and  C_23 
REMARK    6  A    between atoms: C_21  and  O_24 
REMARK    7  A    between atoms: C_23  and  C_25 
REMARK    8  A    between atoms: C_23  and  O_26 
REMARK    9  A    between atoms: C_25  and  O_27 
ROOT
HETATM    1  C   UNK N   1      37.099  12.403  12.217  0.00  0.00     0.145 A 
HETATM    2  C   UNK N   1      37.318  11.029  12.436  0.00  0.00     0.146 A 
HETATM    3  C   UNK N   1      36.335  12.626  14.460  0.00  0.00     0.063 A 
HETATM    4  C   UNK N   1      36.553  11.238  14.652  0.00  0.00     0.060 A 
HETATM    5  C   UNK N   1      35.850  13.366  15.550  0.00  0.00     0.039 A 
HETATM    6  C   UNK N   1      36.272  10.634  15.881  0.00  0.00     0.039 A 
HETATM    7  C   UNK N   1      35.776  11.388  16.944  0.00  0.00    -0.054 A 
HETATM    8  C   UNK N   1      35.568  12.766  16.779  0.00  0.00    -0.054 A 
HETATM    9  C   UNK N   1      37.891  12.153   9.982  0.00  0.00     0.328 A 
HETATM   10  N   UNK N   1      37.036  10.482  13.641  0.00  0.00    -0.347 N 
ATOM     11  HN  UNK N   1      37.189   9.485  13.789  1.00  0.00     0.166 HD
HETATM   12  N   UNK N   1      37.390  12.930  10.992  0.00  0.00    -0.292 N 
ATOM     13  HN  UNK N   1      37.231  13.925  10.825  1.00  0.00     0.172 HD
HETATM   14  C   UNK N   1      37.828  10.243  11.397  0.00  0.00     0.280 A 
HETATM   15  O   UNK N   1      38.025   9.052  11.561  0.00  0.00    -0.265 OA
HETATM   16  O   UNK N   1      38.146  12.651   8.901  0.00  0.00    -0.247 OA
HETATM   17  N   UNK N   1      38.107  10.817  10.186  0.00  0.00    -0.273 N 
HETATM   18  N   UNK N   1      36.601  13.201  13.222  0.00  0.00    -0.327 N 
HETATM   19  C   UNK N   1      35.041  13.611  17.889  0.00  0.00     0.049 C 
HETATM   20  C   UNK N   1      35.476  10.708  18.237  0.00  0.00     0.049 C 
HETATM   21  H   UNK N   1      38.467  10.264   9.456  0.00  0.00     0.173 HD
ENDROOT
BRANCH  18  22
HETATM   22  C   UNK N   1      36.396  14.634  12.869  0.00  0.00     0.165 C 
BRANCH  22  23
HETATM   23  C   UNK N   1      35.110  15.058  12.154  0.00  0.00     0.167 C 
BRANCH  23  24
HETATM   24  C   UNK N   1      35.382  15.814  10.849  0.00  0.00     0.179 C 
BRANCH  24  25
HETATM   25  C   UNK N   1      34.635  15.190   9.663  0.00  0.00     0.173 C 
BRANCH  25  26
HETATM   26  C   UNK N   1      34.130  16.292   8.746  0.00  0.00     0.198 C 
BRANCH  26  27
HETATM   27  O   UNK N   1      32.890  16.756   9.187  0.00  0.00    -0.398 OA
HETATM   28  H   UNK N   1      32.058  16.354   8.892  0.00  0.00     0.209 HD
ENDBRANCH  26  27
ENDBRANCH  25  26
BRANCH  25  29
HETATM   29  O   UNK N   1      35.451  14.321   8.934  0.00  0.00    -0.391 OA
HETATM   30  H   UNK N   1      35.644  13.389   9.125  0.00  0.00     0.210 HD
ENDBRANCH  25  29
ENDBRANCH  24  25
BRANCH  24  31
HETATM   31  O   UNK N   1      35.021  17.160  10.952  0.00  0.00    -0.390 OA
HETATM   32  H   UNK N   1      35.458  17.981  11.230  0.00  0.00     0.210 HD
ENDBRANCH  24  31
ENDBRANCH  23  24
BRANCH  23  33
HETATM   33  O   UNK N   1      34.369  13.919  11.832  0.00  0.00    -0.391 OA
HETATM   34  H   UNK N   1      33.566  13.375  11.876  0.00  0.00     0.210 HD
ENDBRANCH  23  33
ENDBRANCH  22  23
ENDBRANCH  18  22
TORSDOF 9
ENDMDL
MODEL 8
REMARK VINA RESULT:      -6.6     11.490     13.297
REMARK  9 active torsions:
REMARK  status: ('A' for Active; 'I' for Inactive)
REMARK    1  A    between atoms: N_18  and  C_19 
REMARK    2  A    between atoms: C_19  and  C_20 
REMARK    3  A    between atoms: C_20  and  C_21 
REMARK    4  A    between atoms: C_20  and  O_22 
REMARK    5  A    between atoms: C_21  and  C_23 
REMARK    6  A    between atoms: C_21  and  O_24 
REMARK    7  A    between atoms: C_23  and  C_25 
REMARK    8  A    between atoms: C_23  and  O_26 
REMARK    9  A    between atoms: C_25  and  O_27 
ROOT
HETATM    1  C   UNK N   1      29.453  22.622  -4.948  0.00  0.00     0.145 A 
HETATM    2  C   UNK N   1      29.553  23.084  -3.620  0.00  0.00     0.146 A 
HETATM    3  C   UNK N   1      27.877  24.344  -5.414  0.00  0.00     0.063 A 
HETATM    4  C   UNK N   1      27.988  24.783  -4.070  0.00  0.00     0.060 A 
HETATM    5  C   UNK N   1      27.014  25.056  -6.262  0.00  0.00     0.039 A 
HETATM    6  C   UNK N   1      27.243  25.873  -3.611  0.00  0.00     0.039 A 
HETATM    7  C   UNK N   1      26.381  26.554  -4.470  0.00  0.00    -0.054 A 
HETATM    8  C   UNK N   1      26.269  26.145  -5.807  0.00  0.00    -0.054 A 
HETATM    9  C   UNK N   1      31.050  20.921  -4.455  0.00  0.00     0.328 A 
HETATM   10  N   UNK N   1      28.817  24.144  -3.215  0.00  0.00    -0.347 N 
ATOM     11  HN  UNK N   1      28.889  24.467  -2.251  1.00  0.00     0.166 HD
HETATM   12  N   UNK N   1      30.204  21.549  -5.331  0.00  0.00    -0.292 N 
ATOM     13  HN  UNK N   1      30.134  21.207  -6.290  1.00  0.00     0.172 HD
HETATM   14  C   UNK N   1      30.419  22.434  -2.733  0.00  0.00     0.280 A 
HETATM   15  O   UNK N   1      30.523  22.814  -1.580  0.00  0.00    -0.265 OA
HETATM   16  O   UNK N   1      31.712  19.970  -4.827  0.00  0.00    -0.247 OA
HETATM   17  N   UNK N   1      31.154  21.364  -3.164  0.00  0.00    -0.273 N 
HETATM   18  N   UNK N   1      28.612  23.243  -5.843  0.00  0.00    -0.327 N 
HETATM   19  C   UNK N   1      25.361  26.845  -6.761  0.00  0.00     0.049 C 
HETATM   20  C   UNK N   1      25.592  27.706  -3.943  0.00  0.00     0.049 C 
HETATM   21  H   UNK N   1      31.764  20.908  -2.541  0.00  0.00     0.173 HD
ENDROOT
BRANCH  18  22
HETATM   22  C   UNK N   1      28.576  22.657  -7.212  0.00  0.00     0.165 C 
BRANCH  22  23
HETATM   23  C   UNK N   1      27.516  21.608  -7.557  0.00  0.00     0.167 C 
BRANCH  23  24
HETATM   24  C   UNK N   1      26.653  22.013  -8.757  0.00  0.00     0.179 C 
BRANCH  24  25
HETATM   25  C   UNK N   1      25.177  22.169  -8.371  0.00  0.00     0.173 C 
BRANCH  25  26
HETATM   26  C   UNK N   1      25.001  21.837  -6.898  0.00  0.00     0.198 C 
BRANCH  26  27
HETATM   27  O   UNK N   1      23.749  21.261  -6.680  0.00  0.00    -0.398 OA
HETATM   28  H   UNK N   1      23.347  20.652  -7.320  0.00  0.00     0.209 HD
ENDBRANCH  26  27
ENDBRANCH  25  26
BRANCH  25  29
HETATM   29  O   UNK N   1      24.711  23.465  -8.609  0.00  0.00    -0.391 OA
HETATM   30  H   UNK N   1      24.509  23.873  -9.467  0.00  0.00     0.210 HD
ENDBRANCH  25  29
ENDBRANCH  24  25
BRANCH  24  31
HETATM   31  O   UNK N   1      27.100  23.208  -9.328  0.00  0.00    -0.390 OA
HETATM   32  H   UNK N   1      27.127  24.141  -9.063  0.00  0.00     0.210 HD
ENDBRANCH  24  31
ENDBRANCH  23  24
BRANCH  23  33
HETATM   33  O   UNK N   1      28.150  20.407  -7.883  0.00  0.00    -0.391 OA
HETATM   34  H   UNK N   1      28.891  19.783  -7.823  0.00  0.00     0.210 HD
ENDBRANCH  23  33
ENDBRANCH  22  23
ENDBRANCH  18  22
TORSDOF 9
ENDMDL
MODEL 9
REMARK VINA RESULT:      -6.6      2.278      5.101
REMARK  9 active torsions:
REMARK  status: ('A' for Active; 'I' for Inactive)
REMARK    1  A    between atoms: N_18  and  C_19 
REMARK    2  A    between atoms: C_19  and  C_20 
REMARK    3  A    between atoms: C_20  and  C_21 
REMARK    4  A    between atoms: C_20  and  O_22 
REMARK    5  A    between atoms: C_21  and  C_23 
REMARK    6  A    between atoms: C_21  and  O_24 
REMARK    7  A    between atoms: C_23  and  C_25 
REMARK    8  A    between atoms: C_23  and  O_26 
REMARK    9  A    between atoms: C_25  and  O_27 
ROOT
HETATM    1  C   UNK N   1      21.618  17.057   5.248  0.00  0.00     0.145 A 
HETATM    2  C   UNK N   1      22.475  16.064   5.763  0.00  0.00     0.146 A 
HETATM    3  C   UNK N   1      23.514  18.267   4.467  0.00  0.00     0.063 A 
HETATM    4  C   UNK N   1      24.355  17.259   5.004  0.00  0.00     0.060 A 
HETATM    5  C   UNK N   1      24.128  19.343   3.807  0.00  0.00     0.039 A 
HETATM    6  C   UNK N   1      25.745  17.355   4.894  0.00  0.00     0.039 A 
HETATM    7  C   UNK N   1      26.331  18.443   4.247  0.00  0.00    -0.054 A 
HETATM    8  C   UNK N   1      25.516  19.442   3.695  0.00  0.00    -0.054 A 
HETATM    9  C   UNK N   1      19.739  15.811   6.022  0.00  0.00     0.328 A 
HETATM   10  N   UNK N   1      23.815  16.192   5.634  0.00  0.00    -0.347 N 
ATOM     11  HN  UNK N   1      24.429  15.473   6.018  1.00  0.00     0.166 HD
HETATM   12  N   UNK N   1      20.270  16.905   5.393  0.00  0.00    -0.292 N 
ATOM     13  HN  UNK N   1      19.644  17.622   5.024  1.00  0.00     0.172 HD
HETATM   14  C   UNK N   1      21.922  14.951   6.407  0.00  0.00     0.280 A 
HETATM   15  O   UNK N   1      22.642  14.079   6.862  0.00  0.00    -0.265 OA
HETATM   16  O   UNK N   1      18.532  15.699   6.133  0.00  0.00    -0.247 OA
HETATM   17  N   UNK N   1      20.564  14.841   6.525  0.00  0.00    -0.273 N 
HETATM   18  N   UNK N   1      22.134  18.161   4.608  0.00  0.00    -0.327 N 
HETATM   19  C   UNK N   1      26.099  20.622   2.994  0.00  0.00     0.049 C 
HETATM   20  C   UNK N   1      27.818  18.519   4.158  0.00  0.00     0.049 C 
HETATM   21  H   UNK N   1      20.176  14.057   6.977  0.00  0.00     0.173 HD
ENDROOT
BRANCH  18  22
HETATM   22  C   UNK N   1      21.134  19.152   4.119  0.00  0.00     0.165 C 
BRANCH  22  23
HETATM   23  C   UNK N   1      20.948  19.357   2.614  0.00  0.00     0.167 C 
BRANCH  23  24
HETATM   24  C   UNK N   1      19.855  18.457   2.026  0.00  0.00     0.179 C 
BRANCH  24  25
HETATM   25  C   UNK N   1      20.448  17.291   1.224  0.00  0.00     0.173 C 
BRANCH  25  26
HETATM   26  C   UNK N   1      19.835  15.985   1.701  0.00  0.00     0.198 C 
BRANCH  26  27
HETATM   27  O   UNK N   1      20.681  15.364   2.622  0.00  0.00    -0.398 OA
HETATM   28  H   UNK N   1      21.156  14.545   2.410  0.00  0.00     0.209 HD
ENDBRANCH  26  27
ENDBRANCH  25  26
BRANCH  25  29
HETATM   29  O   UNK N   1      20.219  17.434  -0.147  0.00  0.00    -0.391 OA
HETATM   30  H   UNK N   1      19.978  18.243  -0.626  0.00  0.00     0.210 HD
ENDBRANCH  25  29
ENDBRANCH  24  25
BRANCH  24  31
HETATM   31  O   UNK N   1      19.024  17.942   3.024  0.00  0.00    -0.390 OA
HETATM   32  H   UNK N   1      18.068  17.840   3.153  0.00  0.00     0.210 HD
ENDBRANCH  24  31
ENDBRANCH  23  24
BRANCH  23  33
HETATM   33  O   UNK N   1      20.572  20.682   2.376  0.00  0.00    -0.391 OA
HETATM   34  H   UNK N   1      20.494  21.613   2.639  0.00  0.00     0.210 HD
ENDBRANCH  23  33
ENDBRANCH  22  23
ENDBRANCH  18  22
TORSDOF 9
ENDMDL
