MODEL 1
REMARK VINA RESULT:      -7.4      0.000      0.000
REMARK  1 active torsions:
REMARK  status: ('A' for Active; 'I' for Inactive)
REMARK    1  A    between atoms: C_15  and  N_7 
ROOT
HETATM    1  C   UNK N   1      36.005  13.374  16.117  0.00  0.00     0.039 A 
HETATM    2  C   UNK N   1      35.726  11.997  16.171  0.00  0.00    -0.030 A 
HETATM    3  C   UNK N   1      35.816  14.168  17.255  0.00  0.00     0.017 A 
HETATM    4  C   UNK N   1      35.226  11.422  17.357  0.00  0.00    -0.050 A 
HETATM    5  C   UNK N   1      35.317  13.598  18.430  0.00  0.00     0.002 A 
HETATM    6  C   UNK N   1      35.015  12.233  18.477  0.00  0.00     0.007 A 
HETATM    7  N   UNK N   1      36.282  13.221  13.668  0.00  0.00    -0.341 N 
HETATM    8  C   UNK N   1      35.541  11.969  13.740  0.00  0.00     0.136 C 
HETATM    9  C   UNK N   1      36.456  13.955  14.825  0.00  0.00     0.254 C 
HETATM   10  C   UNK N   1      35.994  11.163  14.941  0.00  0.00     0.038 C 
HETATM   11  C   UNK N   1      35.261   9.827  14.977  0.00  0.00     0.011 C 
HETATM   12  C   UNK N   1      35.523   9.134  16.303  0.00  0.00     0.005 C 
HETATM   13  C   UNK N   1      34.928   9.948  17.454  0.00  0.00     0.039 C 
HETATM   14  O   UNK N   1      36.955  15.069  14.809  0.00  0.00    -0.267 OA
ENDROOT
BRANCH   7  15
HETATM   15  C   UNK N   1      36.731  13.624  12.334  0.00  0.00     0.120 C 
HETATM   16  C   UNK N   1      36.732  12.530  11.233  0.00  0.00     0.298 C 
HETATM   17  N   UNK N   1      36.024  12.986  10.022  0.00  0.00     0.090 N 
HETATM   18  C   UNK N   1      36.658  14.221   9.521  0.00  0.00     0.273 C 
HETATM   19  C   UNK N   1      34.618  13.270  10.370  0.00  0.00     0.273 C 
HETATM   20  C   UNK N   1      36.595  15.354  10.568  0.00  0.00     0.037 C 
HETATM   21  C   UNK N   1      35.921  14.837  11.839  0.00  0.00     0.014 C 
HETATM   22  C   UNK N   1      34.514  14.357  11.462  0.00  0.00     0.037 C 
ENDBRANCH   7  15
TORSDOF 1
ENDMDL
MODEL 2
REMARK VINA RESULT:      -7.2     24.892     26.769
REMARK  1 active torsions:
REMARK  status: ('A' for Active; 'I' for Inactive)
REMARK    1  A    between atoms: C_15  and  N_7 
ROOT
HETATM    1  C   UNK N   1      26.134  27.599  -5.458  0.00  0.00     0.039 A 
HETATM    2  C   UNK N   1      27.184  28.204  -6.170  0.00  0.00    -0.030 A 
HETATM    3  C   UNK N   1      25.672  28.179  -4.270  0.00  0.00     0.017 A 
HETATM    4  C   UNK N   1      27.793  29.375  -5.674  0.00  0.00    -0.050 A 
HETATM    5  C   UNK N   1      26.279  29.339  -3.777  0.00  0.00     0.002 A 
HETATM    6  C   UNK N   1      27.341  29.928  -4.472  0.00  0.00     0.007 A 
HETATM    7  N   UNK N   1      26.284  25.617  -6.923  0.00  0.00    -0.341 N 
HETATM    8  C   UNK N   1      27.620  26.077  -7.279  0.00  0.00     0.136 C 
HETATM    9  C   UNK N   1      25.571  26.323  -5.974  0.00  0.00     0.254 C 
HETATM   10  C   UNK N   1      27.618  27.580  -7.475  0.00  0.00     0.038 C 
HETATM   11  C   UNK N   1      29.002  28.049  -7.909  0.00  0.00     0.011 C 
HETATM   12  C   UNK N   1      29.068  29.566  -7.859  0.00  0.00     0.005 C 
HETATM   13  C   UNK N   1      28.913  30.057  -6.418  0.00  0.00     0.039 C 
HETATM   14  O   UNK N   1      24.504  25.919  -5.541  0.00  0.00    -0.267 OA
ENDROOT
BRANCH   7  15
HETATM   15  C   UNK N   1      25.835  24.385  -7.575  0.00  0.00     0.120 C 
HETATM   16  C   UNK N   1      26.516  24.015  -8.920  0.00  0.00     0.298 C 
HETATM   17  N   UNK N   1      27.011  22.625  -8.906  0.00  0.00     0.090 N 
HETATM   18  C   UNK N   1      25.888  21.709  -8.629  0.00  0.00     0.273 C 
HETATM   19  C   UNK N   1      28.022  22.489  -7.841  0.00  0.00     0.273 C 
HETATM   20  C   UNK N   1      25.246  22.001  -7.255  0.00  0.00     0.037 C 
HETATM   21  C   UNK N   1      25.952  23.193  -6.606  0.00  0.00     0.014 C 
HETATM   22  C   UNK N   1      27.435  22.835  -6.455  0.00  0.00     0.037 C 
ENDBRANCH   7  15
TORSDOF 1
ENDMDL
MODEL 3
REMARK VINA RESULT:      -7.1     22.061     24.918
REMARK  1 active torsions:
REMARK  status: ('A' for Active; 'I' for Inactive)
REMARK    1  A    between atoms: C_15  and  N_7 
ROOT
HETATM    1  C   UNK N   1      27.511  22.286  -7.050  0.00  0.00     0.039 A 
HETATM    2  C   UNK N   1      28.704  22.077  -6.335  0.00  0.00    -0.030 A 
HETATM    3  C   UNK N   1      27.237  21.517  -8.188  0.00  0.00     0.017 A 
HETATM    4  C   UNK N   1      29.636  21.118  -6.779  0.00  0.00    -0.050 A 
HETATM    5  C   UNK N   1      28.164  20.568  -8.630  0.00  0.00     0.002 A 
HETATM    6  C   UNK N   1      29.363  20.377  -7.934  0.00  0.00     0.007 A 
HETATM    7  N   UNK N   1      27.063  24.311  -5.709  0.00  0.00    -0.341 N 
HETATM    8  C   UNK N   1      28.478  24.303  -5.366  0.00  0.00     0.136 C 
HETATM    9  C   UNK N   1      26.591  23.360  -6.594  0.00  0.00     0.254 C 
HETATM   10  C   UNK N   1      28.939  22.887  -5.082  0.00  0.00     0.038 C 
HETATM   11  C   UNK N   1      30.404  22.891  -4.663  0.00  0.00     0.011 C 
HETATM   12  C   UNK N   1      30.931  21.467  -4.626  0.00  0.00     0.005 C 
HETATM   13  C   UNK N   1      30.918  20.859  -6.030  0.00  0.00     0.039 C 
HETATM   14  O   UNK N   1      25.446  23.391  -7.017  0.00  0.00    -0.267 OA
ENDROOT
BRANCH   7  15
HETATM   15  C   UNK N   1      26.265  25.387  -5.117  0.00  0.00     0.120 C 
HETATM   16  C   UNK N   1      26.944  26.235  -4.009  0.00  0.00     0.298 C 
HETATM   17  N   UNK N   1      26.826  27.679  -4.291  0.00  0.00     0.090 N 
HETATM   18  C   UNK N   1      25.400  28.038  -4.412  0.00  0.00     0.273 C 
HETATM   19  C   UNK N   1      27.511  27.974  -5.564  0.00  0.00     0.273 C 
HETATM   20  C   UNK N   1      24.720  27.268  -5.565  0.00  0.00     0.037 C 
HETATM   21  C   UNK N   1      25.733  26.326  -6.216  0.00  0.00     0.014 C 
HETATM   22  C   UNK N   1      26.899  27.175  -6.735  0.00  0.00     0.037 C 
ENDBRANCH   7  15
TORSDOF 1
ENDMDL
MODEL 4
REMARK VINA RESULT:      -7.0     13.967     15.803
REMARK  1 active torsions:
REMARK  status: ('A' for Active; 'I' for Inactive)
REMARK    1  A    between atoms: C_15  and  N_7 
ROOT
HETATM    1  C   UNK N   1      21.066  13.661   9.652  0.00  0.00     0.039 A 
HETATM    2  C   UNK N   1      22.446  13.390   9.646  0.00  0.00    -0.030 A 
HETATM    3  C   UNK N   1      20.246  13.081  10.627  0.00  0.00     0.017 A 
HETATM    4  C   UNK N   1      22.998  12.511  10.600  0.00  0.00    -0.050 A 
HETATM    5  C   UNK N   1      20.793  12.206  11.570  0.00  0.00     0.002 A 
HETATM    6  C   UNK N   1      22.162  11.916  11.551  0.00  0.00     0.007 A 
HETATM    7  N   UNK N   1      21.278  14.779   7.459  0.00  0.00    -0.341 N 
HETATM    8  C   UNK N   1      22.540  14.067   7.306  0.00  0.00     0.136 C 
HETATM    9  C   UNK N   1      20.512  14.532   8.582  0.00  0.00     0.254 C 
HETATM   10  C   UNK N   1      23.307  14.077   8.613  0.00  0.00     0.038 C 
HETATM   11  C   UNK N   1      24.654  13.387   8.432  0.00  0.00     0.011 C 
HETATM   12  C   UNK N   1      25.307  13.172   9.786  0.00  0.00     0.005 C 
HETATM   13  C   UNK N   1      24.474  12.207  10.631  0.00  0.00     0.039 C 
HETATM   14  O   UNK N   1      19.390  14.998   8.708  0.00  0.00    -0.267 OA
ENDROOT
BRANCH   7  15
HETATM   15  C   UNK N   1      20.902  15.664   6.355  0.00  0.00     0.120 C 
HETATM   16  C   UNK N   1      22.013  16.015   5.329  0.00  0.00     0.298 C 
HETATM   17  N   UNK N   1      21.562  15.772   3.946  0.00  0.00     0.090 N 
HETATM   18  C   UNK N   1      20.346  16.565   3.681  0.00  0.00     0.273 C 
HETATM   19  C   UNK N   1      21.248  14.338   3.792  0.00  0.00     0.273 C 
HETATM   20  C   UNK N   1      19.197  16.174   4.635  0.00  0.00     0.037 C 
HETATM   21  C   UNK N   1      19.684  15.096   5.604  0.00  0.00     0.014 C 
HETATM   22  C   UNK N   1      20.144  13.891   4.775  0.00  0.00     0.037 C 
ENDBRANCH   7  15
TORSDOF 1
ENDMDL
MODEL 5
REMARK VINA RESULT:      -6.9      1.660      3.255
REMARK  1 active torsions:
REMARK  status: ('A' for Active; 'I' for Inactive)
REMARK    1  A    between atoms: C_15  and  N_7 
ROOT
HETATM    1  C   UNK N   1      34.705  10.867  15.732  0.00  0.00     0.039 A 
HETATM    2  C   UNK N   1      35.008  11.928  16.603  0.00  0.00    -0.030 A 
HETATM    3  C   UNK N   1      34.557   9.570  16.239  0.00  0.00     0.017 A 
HETATM    4  C   UNK N   1      35.196  11.683  17.979  0.00  0.00    -0.050 A 
HETATM    5  C   UNK N   1      34.746   9.327  17.603  0.00  0.00     0.002 A 
HETATM    6  C   UNK N   1      35.073  10.378  18.467  0.00  0.00     0.007 A 
HETATM    7  N   UNK N   1      35.093  12.349  13.794  0.00  0.00    -0.341 N 
HETATM    8  C   UNK N   1      35.833  13.215  14.703  0.00  0.00     0.136 C 
HETATM    9  C   UNK N   1      34.592  11.155  14.278  0.00  0.00     0.254 C 
HETATM   10  C   UNK N   1      35.106  13.322  16.029  0.00  0.00     0.038 C 
HETATM   11  C   UNK N   1      35.850  14.277  16.954  0.00  0.00     0.011 C 
HETATM   12  C   UNK N   1      35.271  14.190  18.355  0.00  0.00     0.005 C 
HETATM   13  C   UNK N   1      35.510  12.798  18.943  0.00  0.00     0.039 C 
HETATM   14  O   UNK N   1      34.076  10.331  13.540  0.00  0.00    -0.267 OA
ENDROOT
BRANCH   7  15
HETATM   15  C   UNK N   1      34.999  12.805  12.407  0.00  0.00     0.120 C 
HETATM   16  C   UNK N   1      35.647  14.176  12.074  0.00  0.00     0.298 C 
HETATM   17  N   UNK N   1      36.551  14.075  10.913  0.00  0.00     0.090 N 
HETATM   18  C   UNK N   1      35.798  13.567   9.750  0.00  0.00     0.273 C 
HETATM   19  C   UNK N   1      37.639  13.133  11.236  0.00  0.00     0.273 C 
HETATM   20  C   UNK N   1      35.213  12.164  10.025  0.00  0.00     0.037 C 
HETATM   21  C   UNK N   1      35.562  11.737  11.451  0.00  0.00     0.014 C 
HETATM   22  C   UNK N   1      37.091  11.730  11.579  0.00  0.00     0.037 C 
ENDBRANCH   7  15
TORSDOF 1
ENDMDL
MODEL 6
REMARK VINA RESULT:      -6.9      5.538      9.742
REMARK  1 active torsions:
REMARK  status: ('A' for Active; 'I' for Inactive)
REMARK    1  A    between atoms: C_15  and  N_7 
ROOT
HETATM    1  C   UNK N   1      32.427  16.832   5.882  0.00  0.00     0.039 A 
HETATM    2  C   UNK N   1      31.336  17.227   6.675  0.00  0.00    -0.030 A 
HETATM    3  C   UNK N   1      32.267  16.686   4.499  0.00  0.00     0.017 A 
HETATM    4  C   UNK N   1      30.074  17.444   6.084  0.00  0.00    -0.050 A 
HETATM    5  C   UNK N   1      31.015  16.898   3.914  0.00  0.00     0.002 A 
HETATM    6  C   UNK N   1      29.922  17.266   4.705  0.00  0.00     0.007 A 
HETATM    7  N   UNK N   1      33.732  16.346   7.922  0.00  0.00    -0.341 N 
HETATM    8  C   UNK N   1      32.461  16.305   8.632  0.00  0.00     0.136 C 
HETATM    9  C   UNK N   1      33.721  16.537   6.554  0.00  0.00     0.254 C 
HETATM   10  C   UNK N   1      31.560  17.427   8.155  0.00  0.00     0.038 C 
HETATM   11  C   UNK N   1      30.256  17.419   8.944  0.00  0.00     0.011 C 
HETATM   12  C   UNK N   1      29.262  18.370   8.302  0.00  0.00     0.005 C 
HETATM   13  C   UNK N   1      28.886  17.879   6.902  0.00  0.00     0.039 C 
HETATM   14  O   UNK N   1      34.740  16.455   5.887  0.00  0.00    -0.267 OA
ENDROOT
BRANCH   7  15
HETATM   15  C   UNK N   1      34.928  16.115   8.735  0.00  0.00     0.120 C 
HETATM   16  C   UNK N   1      34.908  16.668  10.185  0.00  0.00     0.298 C 
HETATM   17  N   UNK N   1      35.282  15.627  11.161  0.00  0.00     0.090 N 
HETATM   18  C   UNK N   1      36.622  15.104  10.828  0.00  0.00     0.273 C 
HETATM   19  C   UNK N   1      34.301  14.528  11.087  0.00  0.00     0.273 C 
HETATM   20  C   UNK N   1      36.647  14.471   9.420  0.00  0.00     0.037 C 
HETATM   21  C   UNK N   1      35.270  14.614   8.772  0.00  0.00     0.014 C 
HETATM   22  C   UNK N   1      34.250  13.908   9.674  0.00  0.00     0.037 C 
ENDBRANCH   7  15
TORSDOF 1
ENDMDL
MODEL 7
REMARK VINA RESULT:      -6.8      1.507      2.367
REMARK  1 active torsions:
REMARK  status: ('A' for Active; 'I' for Inactive)
REMARK    1  A    between atoms: C_15  and  N_7 
ROOT
HETATM    1  C   UNK N   1      35.304  12.560  16.544  0.00  0.00     0.039 A 
HETATM    2  C   UNK N   1      35.520  11.279  17.084  0.00  0.00    -0.030 A 
HETATM    3  C   UNK N   1      35.123  13.654  17.398  0.00  0.00     0.017 A 
HETATM    4  C   UNK N   1      35.523  11.092  18.481  0.00  0.00    -0.050 A 
HETATM    5  C   UNK N   1      35.122  13.467  18.784  0.00  0.00     0.002 A 
HETATM    6  C   UNK N   1      35.312  12.189  19.322  0.00  0.00     0.007 A 
HETATM    7  N   UNK N   1      35.055  11.568  14.296  0.00  0.00    -0.341 N 
HETATM    8  C   UNK N   1      34.811  10.299  14.967  0.00  0.00     0.136 C 
HETATM    9  C   UNK N   1      35.231  12.702  15.066  0.00  0.00     0.254 C 
HETATM   10  C   UNK N   1      35.766  10.133  16.133  0.00  0.00     0.038 C 
HETATM   11  C   UNK N   1      35.550   8.777  16.793  0.00  0.00     0.011 C 
HETATM   12  C   UNK N   1      36.320   8.714  18.100  0.00  0.00     0.005 C 
HETATM   13  C   UNK N   1      35.763   9.736  19.094  0.00  0.00     0.039 C 
HETATM   14  O   UNK N   1      35.312  13.812  14.565  0.00  0.00    -0.267 OA
ENDROOT
BRANCH   7  15
HETATM   15  C   UNK N   1      35.031  11.535  12.832  0.00  0.00     0.120 C 
HETATM   16  C   UNK N   1      34.937  12.901  12.101  0.00  0.00     0.298 C 
HETATM   17  N   UNK N   1      35.983  13.030  11.069  0.00  0.00     0.090 N 
HETATM   18  C   UNK N   1      35.856  11.920  10.104  0.00  0.00     0.273 C 
HETATM   19  C   UNK N   1      37.306  12.959  11.718  0.00  0.00     0.273 C 
HETATM   20  C   UNK N   1      36.030  10.550  10.793  0.00  0.00     0.037 C 
HETATM   21  C   UNK N   1      36.245  10.757  12.293  0.00  0.00     0.014 C 
HETATM   22  C   UNK N   1      37.496  11.625  12.473  0.00  0.00     0.037 C 
ENDBRANCH   7  15
TORSDOF 1
ENDMDL
MODEL 8
REMARK VINA RESULT:      -6.8      1.672      3.077
REMARK  1 active torsions:
REMARK  status: ('A' for Active; 'I' for Inactive)
REMARK    1  A    between atoms: C_15  and  N_7 
ROOT
HETATM    1  C   UNK N   1      35.259  10.425  16.118  0.00  0.00     0.039 A 
HETATM    2  C   UNK N   1      35.349  11.631  16.836  0.00  0.00    -0.030 A 
HETATM    3  C   UNK N   1      35.020   9.225  16.798  0.00  0.00     0.017 A 
HETATM    4  C   UNK N   1      35.229  11.627  18.241  0.00  0.00    -0.050 A 
HETATM    5  C   UNK N   1      34.905   9.222  18.192  0.00  0.00     0.002 A 
HETATM    6  C   UNK N   1      35.019  10.417  18.910  0.00  0.00     0.007 A 
HETATM    7  N   UNK N   1      36.048  11.581  14.083  0.00  0.00    -0.341 N 
HETATM    8  C   UNK N   1      36.556  12.623  14.965  0.00  0.00     0.136 C 
HETATM    9  C   UNK N   1      35.468  10.460  14.646  0.00  0.00     0.254 C 
HETATM   10  C   UNK N   1      35.553  12.912  16.063  0.00  0.00     0.038 C 
HETATM   11  C   UNK N   1      36.060  14.045  16.946  0.00  0.00     0.011 C 
HETATM   12  C   UNK N   1      35.186  14.163  18.183  0.00  0.00     0.005 C 
HETATM   13  C   UNK N   1      35.308  12.902  19.041  0.00  0.00     0.039 C 
HETATM   14  O   UNK N   1      35.139   9.499  13.969  0.00  0.00    -0.267 OA
ENDROOT
BRANCH   7  15
HETATM   15  C   UNK N   1      36.258  11.794  12.649  0.00  0.00     0.120 C 
HETATM   16  C   UNK N   1      34.998  11.766  11.744  0.00  0.00     0.298 C 
HETATM   17  N   UNK N   1      34.932  12.959  10.879  0.00  0.00     0.090 N 
HETATM   18  C   UNK N   1      36.155  13.035  10.056  0.00  0.00     0.273 C 
HETATM   19  C   UNK N   1      34.844  14.161  11.729  0.00  0.00     0.273 C 
HETATM   20  C   UNK N   1      37.420  13.150  10.934  0.00  0.00     0.037 C 
HETATM   21  C   UNK N   1      37.021  13.111  12.410  0.00  0.00     0.014 C 
HETATM   22  C   UNK N   1      36.063  14.280  12.669  0.00  0.00     0.037 C 
ENDBRANCH   7  15
TORSDOF 1
ENDMDL
MODEL 9
REMARK VINA RESULT:      -6.7      8.577     12.207
REMARK  1 active torsions:
REMARK  status: ('A' for Active; 'I' for Inactive)
REMARK    1  A    between atoms: C_15  and  N_7 
ROOT
HETATM    1  C   UNK N   1      28.161  18.913   6.782  0.00  0.00     0.039 A 
HETATM    2  C   UNK N   1      27.683  18.333   5.593  0.00  0.00    -0.030 A 
HETATM    3  C   UNK N   1      27.637  20.135   7.220  0.00  0.00     0.017 A 
HETATM    4  C   UNK N   1      26.702  18.996   4.827  0.00  0.00    -0.050 A 
HETATM    5  C   UNK N   1      26.667  20.794   6.458  0.00  0.00     0.002 A 
HETATM    6  C   UNK N   1      26.209  20.230   5.262  0.00  0.00     0.007 A 
HETATM    7  N   UNK N   1      29.969  17.233   6.873  0.00  0.00    -0.341 N 
HETATM    8  C   UNK N   1      29.723  17.005   5.455  0.00  0.00     0.136 C 
HETATM    9  C   UNK N   1      29.250  18.221   7.519  0.00  0.00     0.254 C 
HETATM   10  C   UNK N   1      28.232  16.988   5.180  0.00  0.00     0.038 C 
HETATM   11  C   UNK N   1      27.978  16.687   3.709  0.00  0.00     0.011 C 
HETATM   12  C   UNK N   1      26.513  16.920   3.383  0.00  0.00     0.005 C 
HETATM   13  C   UNK N   1      26.159  18.399   3.555  0.00  0.00     0.039 C 
HETATM   14  O   UNK N   1      29.498  18.546   8.669  0.00  0.00    -0.267 OA
ENDROOT
BRANCH   7  15
HETATM   15  C   UNK N   1      31.022  16.417   7.481  0.00  0.00     0.120 C 
HETATM   16  C   UNK N   1      31.460  15.146   6.705  0.00  0.00     0.298 C 
HETATM   17  N   UNK N   1      32.925  15.098   6.539  0.00  0.00     0.090 N 
HETATM   18  C   UNK N   1      33.569  15.138   7.866  0.00  0.00     0.273 C 
HETATM   19  C   UNK N   1      33.355  16.271   5.754  0.00  0.00     0.273 C 
HETATM   20  C   UNK N   1      33.217  16.436   8.625  0.00  0.00     0.037 C 
HETATM   21  C   UNK N   1      32.263  17.279   7.779  0.00  0.00     0.014 C 
HETATM   22  C   UNK N   1      32.964  17.592   6.452  0.00  0.00     0.037 C 
ENDBRANCH   7  15
TORSDOF 1
ENDMDL
