MODEL 1
REMARK VINA RESULT:      -6.4      0.000      0.000
REMARK  4 active torsions:
REMARK  status: ('A' for Active; 'I' for Inactive)
REMARK    1  A    between atoms: C_3  and  O_16 
REMARK    2  A    between atoms: C_10  and  C_11 
REMARK    3  A    between atoms: C_11  and  C_12 
REMARK    4  A    between atoms: C_12  and  O_14 
ROOT
HETATM    1  C   UNK N   1      25.792  20.609   2.960  0.00  0.00     0.015 A 
HETATM    2  C   UNK N   1      26.964  20.263   3.647  0.00  0.00     0.037 A 
HETATM    3  C   UNK N   1      26.932  19.314   4.677  0.00  0.00     0.069 A 
HETATM    4  C   UNK N   1      25.714  18.702   5.013  0.00  0.00     0.049 A 
HETATM    5  C   UNK N   1      24.546  19.042   4.336  0.00  0.00    -0.023 A 
HETATM    6  C   UNK N   1      24.578  20.006   3.304  0.00  0.00    -0.025 A 
HETATM    7  C   UNK N   1      23.392  20.359   2.645  0.00  0.00     0.020 A 
HETATM    8  C   UNK N   1      23.344  18.437   4.687  0.00  0.00     0.013 A 
HETATM    9  C   UNK N   1      22.169  18.793   4.030  0.00  0.00     0.009 A 
HETATM   10  C   UNK N   1      22.174  19.756   3.012  0.00  0.00    -0.043 A 
ENDROOT
BRANCH  10  11
HETATM   11  C   UNK N   1      20.880  20.152   2.334  0.00  0.00     0.112 C 
HETATM   12  C   UNK N   1      19.565  19.568   2.833  0.00  0.00     0.026 C 
BRANCH  11  13
HETATM   13  C   UNK N   1      20.841  21.011   1.089  0.00  0.00     0.148 C 
HETATM   14  O   UNK N   1      21.107  20.540  -0.006  0.00  0.00    -0.649 OA
BRANCH  13  15
HETATM   15  O   UNK N   1      20.503  22.311   1.179  0.00  0.00    -0.776 OA
HETATM   16  H   UNK N   1      20.484  22.845   0.410  0.00  0.00     0.167 HD
ENDBRANCH  13  15
ENDBRANCH  11  13
ENDBRANCH  10  11
BRANCH   3  17
HETATM   17  O   UNK N   1      28.074  19.012   5.337  0.00  0.00    -0.356 OA
HETATM   18  C   UNK N   1      28.088  18.483   6.611  0.00  0.00     0.210 C 
ENDBRANCH   3  17
TORSDOF 4
ENDMDL
MODEL 2
REMARK VINA RESULT:      -6.2     10.148     11.757
REMARK  4 active torsions:
REMARK  status: ('A' for Active; 'I' for Inactive)
REMARK    1  A    between atoms: C_3  and  O_16 
REMARK    2  A    between atoms: C_10  and  C_11 
REMARK    3  A    between atoms: C_11  and  C_12 
REMARK    4  A    between atoms: C_12  and  O_14 
ROOT
HETATM    1  C   UNK N   1      26.430  25.723  -3.456  0.00  0.00     0.015 A 
HETATM    2  C   UNK N   1      26.377  27.030  -2.953  0.00  0.00     0.037 A 
HETATM    3  C   UNK N   1      26.087  28.108  -3.801  0.00  0.00     0.069 A 
HETATM    4  C   UNK N   1      25.838  27.867  -5.161  0.00  0.00     0.049 A 
HETATM    5  C   UNK N   1      25.890  26.571  -5.667  0.00  0.00    -0.023 A 
HETATM    6  C   UNK N   1      26.192  25.487  -4.813  0.00  0.00    -0.025 A 
HETATM    7  C   UNK N   1      26.265  24.189  -5.338  0.00  0.00     0.020 A 
HETATM    8  C   UNK N   1      25.653  26.348  -7.019  0.00  0.00     0.013 A 
HETATM    9  C   UNK N   1      25.728  25.057  -7.535  0.00  0.00     0.009 A 
HETATM   10  C   UNK N   1      26.040  23.967  -6.709  0.00  0.00    -0.043 A 
ENDROOT
BRANCH  10  11
HETATM   11  C   UNK N   1      26.150  22.577  -7.297  0.00  0.00     0.112 C 
HETATM   12  C   UNK N   1      27.527  21.993  -7.584  0.00  0.00     0.026 C 
BRANCH  11  13
HETATM   13  C   UNK N   1      24.942  21.780  -7.737  0.00  0.00     0.148 C 
HETATM   14  O   UNK N   1      24.051  21.505  -6.948  0.00  0.00    -0.649 OA
BRANCH  13  15
HETATM   15  O   UNK N   1      24.835  21.371  -9.015  0.00  0.00    -0.776 OA
HETATM   16  H   UNK N   1      24.527  21.962  -9.673  0.00  0.00     0.167 HD
ENDBRANCH  13  15
ENDBRANCH  11  13
ENDBRANCH  10  11
BRANCH   3  17
HETATM   17  O   UNK N   1      26.061  29.363  -3.294  0.00  0.00    -0.356 OA
HETATM   18  C   UNK N   1      27.203  30.069  -2.979  0.00  0.00     0.210 C 
ENDBRANCH   3  17
TORSDOF 4
ENDMDL
MODEL 3
REMARK VINA RESULT:      -6.1     17.330     20.133
REMARK  4 active torsions:
REMARK  status: ('A' for Active; 'I' for Inactive)
REMARK    1  A    between atoms: C_3  and  O_16 
REMARK    2  A    between atoms: C_10  and  C_11 
REMARK    3  A    between atoms: C_11  and  C_12 
REMARK    4  A    between atoms: C_12  and  O_14 
ROOT
HETATM    1  C   UNK N   1      35.233   9.834  17.358  0.00  0.00     0.015 A 
HETATM    2  C   UNK N   1      34.828   9.104  18.485  0.00  0.00     0.037 A 
HETATM    3  C   UNK N   1      34.577   9.754  19.701  0.00  0.00     0.069 A 
HETATM    4  C   UNK N   1      34.725  11.148  19.781  0.00  0.00     0.049 A 
HETATM    5  C   UNK N   1      35.128  11.878  18.666  0.00  0.00    -0.023 A 
HETATM    6  C   UNK N   1      35.390  11.221  17.443  0.00  0.00    -0.025 A 
HETATM    7  C   UNK N   1      35.818  11.962  16.334  0.00  0.00     0.020 A 
HETATM    8  C   UNK N   1      35.282  13.257  18.763  0.00  0.00     0.013 A 
HETATM    9  C   UNK N   1      35.709  13.988  17.657  0.00  0.00     0.009 A 
HETATM   10  C   UNK N   1      35.988  13.355  16.437  0.00  0.00    -0.043 A 
ENDROOT
BRANCH  10  11
HETATM   11  C   UNK N   1      36.484  14.165  15.259  0.00  0.00     0.112 C 
HETATM   12  C   UNK N   1      37.295  15.429  15.508  0.00  0.00     0.026 C 
BRANCH  11  13
HETATM   13  C   UNK N   1      36.099  13.845  13.831  0.00  0.00     0.148 C 
HETATM   14  O   UNK N   1      34.926  13.717  13.511  0.00  0.00    -0.649 OA
BRANCH  13  15
HETATM   15  O   UNK N   1      37.053  13.705  12.892  0.00  0.00    -0.776 OA
HETATM   16  H   UNK N   1      37.881  14.131  12.997  0.00  0.00     0.167 HD
ENDBRANCH  13  15
ENDBRANCH  11  13
ENDBRANCH  10  11
BRANCH   3  17
HETATM   17  O   UNK N   1      34.206   9.025  20.779  0.00  0.00    -0.356 OA
HETATM   18  C   UNK N   1      32.891   8.740  21.076  0.00  0.00     0.210 C 
ENDBRANCH   3  17
TORSDOF 4
ENDMDL
MODEL 4
REMARK VINA RESULT:      -5.9     16.407     20.695
REMARK  4 active torsions:
REMARK  status: ('A' for Active; 'I' for Inactive)
REMARK    1  A    between atoms: C_3  and  O_16 
REMARK    2  A    between atoms: C_10  and  C_11 
REMARK    3  A    between atoms: C_11  and  C_12 
REMARK    4  A    between atoms: C_12  and  O_14 
ROOT
HETATM    1  C   UNK N   1      34.717  10.250  15.707  0.00  0.00     0.015 A 
HETATM    2  C   UNK N   1      34.623  10.892  14.464  0.00  0.00     0.037 A 
HETATM    3  C   UNK N   1      34.731  12.287  14.374  0.00  0.00     0.069 A 
HETATM    4  C   UNK N   1      34.947  13.038  15.539  0.00  0.00     0.049 A 
HETATM    5  C   UNK N   1      35.041  12.407  16.776  0.00  0.00    -0.023 A 
HETATM    6  C   UNK N   1      34.921  11.002  16.868  0.00  0.00    -0.025 A 
HETATM    7  C   UNK N   1      34.993  10.379  18.121  0.00  0.00     0.020 A 
HETATM    8  C   UNK N   1      35.242  13.165  17.925  0.00  0.00     0.013 A 
HETATM    9  C   UNK N   1      35.311  12.540  19.167  0.00  0.00     0.009 A 
HETATM   10  C   UNK N   1      35.182  11.149  19.284  0.00  0.00    -0.043 A 
ENDROOT
BRANCH  10  11
HETATM   11  C   UNK N   1      35.226  10.494  20.648  0.00  0.00     0.112 C 
HETATM   12  C   UNK N   1      36.562  10.026  21.210  0.00  0.00     0.026 C 
BRANCH  11  13
HETATM   13  C   UNK N   1      33.976  10.162  21.433  0.00  0.00     0.148 C 
HETATM   14  O   UNK N   1      33.508   9.034  21.419  0.00  0.00    -0.649 OA
BRANCH  13  15
HETATM   15  O   UNK N   1      33.370  11.115  22.166  0.00  0.00    -0.776 OA
HETATM   16  H   UNK N   1      33.841  11.883  22.421  0.00  0.00     0.167 HD
ENDBRANCH  13  15
ENDBRANCH  11  13
ENDBRANCH  10  11
BRANCH   3  17
HETATM   17  O   UNK N   1      34.617  12.884  13.164  0.00  0.00    -0.356 OA
HETATM   18  C   UNK N   1      35.436  13.915  12.756  0.00  0.00     0.210 C 
ENDBRANCH   3  17
TORSDOF 4
ENDMDL
MODEL 5
REMARK VINA RESULT:      -5.9     14.442     17.500
REMARK  4 active torsions:
REMARK  status: ('A' for Active; 'I' for Inactive)
REMARK    1  A    between atoms: C_3  and  O_16 
REMARK    2  A    between atoms: C_10  and  C_11 
REMARK    3  A    between atoms: C_11  and  C_12 
REMARK    4  A    between atoms: C_12  and  O_14 
ROOT
HETATM    1  C   UNK N   1      34.199  10.911  14.446  0.00  0.00     0.015 A 
HETATM    2  C   UNK N   1      34.379  10.282  15.686  0.00  0.00     0.037 A 
HETATM    3  C   UNK N   1      35.231  10.838  16.650  0.00  0.00     0.069 A 
HETATM    4  C   UNK N   1      35.898  12.041  16.369  0.00  0.00     0.049 A 
HETATM    5  C   UNK N   1      35.724  12.670  15.139  0.00  0.00    -0.023 A 
HETATM    6  C   UNK N   1      34.873  12.103  14.165  0.00  0.00    -0.025 A 
HETATM    7  C   UNK N   1      34.725  12.733  12.921  0.00  0.00     0.020 A 
HETATM    8  C   UNK N   1      36.401  13.855  14.869  0.00  0.00     0.013 A 
HETATM    9  C   UNK N   1      36.251  14.475  13.631  0.00  0.00     0.009 A 
HETATM   10  C   UNK N   1      35.422  13.923  12.644  0.00  0.00    -0.043 A 
ENDROOT
BRANCH  10  11
HETATM   11  C   UNK N   1      35.300  14.596  11.293  0.00  0.00     0.112 C 
HETATM   12  C   UNK N   1      34.646  13.845  10.141  0.00  0.00     0.026 C 
BRANCH  11  13
HETATM   13  C   UNK N   1      35.918  15.944  10.995  0.00  0.00     0.148 C 
HETATM   14  O   UNK N   1      35.237  16.958  10.987  0.00  0.00    -0.649 OA
BRANCH  13  15
HETATM   15  O   UNK N   1      37.237  16.038  10.742  0.00  0.00    -0.776 OA
HETATM   16  H   UNK N   1      37.766  16.642  11.225  0.00  0.00     0.167 HD
ENDBRANCH  13  15
ENDBRANCH  11  13
ENDBRANCH  10  11
BRANCH   3  17
HETATM   17  O   UNK N   1      35.402  10.201  17.832  0.00  0.00    -0.356 OA
HETATM   18  C   UNK N   1      35.385  10.853  19.046  0.00  0.00     0.210 C 
ENDBRANCH   3  17
TORSDOF 4
ENDMDL
MODEL 6
REMARK VINA RESULT:      -5.9      1.548      7.051
REMARK  4 active torsions:
REMARK  status: ('A' for Active; 'I' for Inactive)
REMARK    1  A    between atoms: C_3  and  O_16 
REMARK    2  A    between atoms: C_10  and  C_11 
REMARK    3  A    between atoms: C_11  and  C_12 
REMARK    4  A    between atoms: C_12  and  O_14 
ROOT
HETATM    1  C   UNK N   1      23.847  18.534   4.548  0.00  0.00     0.015 A 
HETATM    2  C   UNK N   1      22.910  19.167   3.720  0.00  0.00     0.037 A 
HETATM    3  C   UNK N   1      23.290  20.245   2.908  0.00  0.00     0.069 A 
HETATM    4  C   UNK N   1      24.625  20.681   2.922  0.00  0.00     0.049 A 
HETATM    5  C   UNK N   1      25.560  20.056   3.743  0.00  0.00    -0.023 A 
HETATM    6  C   UNK N   1      25.173  18.977   4.568  0.00  0.00    -0.025 A 
HETATM    7  C   UNK N   1      26.117  18.372   5.408  0.00  0.00     0.020 A 
HETATM    8  C   UNK N   1      26.876  20.507   3.756  0.00  0.00     0.013 A 
HETATM    9  C   UNK N   1      27.809  19.902   4.594  0.00  0.00     0.009 A 
HETATM   10  C   UNK N   1      27.445  18.839   5.432  0.00  0.00    -0.043 A 
ENDROOT
BRANCH  10  11
HETATM   11  C   UNK N   1      28.468  18.219   6.360  0.00  0.00     0.112 C 
HETATM   12  C   UNK N   1      29.326  17.064   5.862  0.00  0.00     0.026 C 
BRANCH  11  13
HETATM   13  C   UNK N   1      28.590  18.611   7.816  0.00  0.00     0.148 C 
HETATM   14  O   UNK N   1      29.659  18.520   8.402  0.00  0.00    -0.649 OA
BRANCH  13  15
HETATM   15  O   UNK N   1      27.516  19.076   8.480  0.00  0.00    -0.776 OA
HETATM   16  H   UNK N   1      27.328  18.766   9.344  0.00  0.00     0.167 HD
ENDBRANCH  13  15
ENDBRANCH  11  13
ENDBRANCH  10  11
BRANCH   3  17
HETATM   17  O   UNK N   1      22.362  20.851   2.132  0.00  0.00    -0.356 OA
HETATM   18  C   UNK N   1      21.021  20.534   2.178  0.00  0.00     0.210 C 
ENDBRANCH   3  17
TORSDOF 4
ENDMDL
MODEL 7
REMARK VINA RESULT:      -5.8      4.851     10.532
REMARK  4 active torsions:
REMARK  status: ('A' for Active; 'I' for Inactive)
REMARK    1  A    between atoms: C_3  and  O_16 
REMARK    2  A    between atoms: C_10  and  C_11 
REMARK    3  A    between atoms: C_11  and  C_12 
REMARK    4  A    between atoms: C_12  and  O_14 
ROOT
HETATM    1  C   UNK N   1      29.148  17.355   7.321  0.00  0.00     0.015 A 
HETATM    2  C   UNK N   1      27.956  17.575   6.617  0.00  0.00     0.037 A 
HETATM    3  C   UNK N   1      27.975  17.773   5.230  0.00  0.00     0.069 A 
HETATM    4  C   UNK N   1      29.200  17.740   4.546  0.00  0.00     0.049 A 
HETATM    5  C   UNK N   1      30.387  17.522   5.239  0.00  0.00    -0.023 A 
HETATM    6  C   UNK N   1      30.368  17.333   6.638  0.00  0.00    -0.025 A 
HETATM    7  C   UNK N   1      31.572  17.139   7.330  0.00  0.00     0.020 A 
HETATM    8  C   UNK N   1      31.595  17.504   4.549  0.00  0.00     0.013 A 
HETATM    9  C   UNK N   1      32.788  17.312   5.242  0.00  0.00     0.009 A 
HETATM   10  C   UNK N   1      32.795  17.135   6.633  0.00  0.00    -0.043 A 
ENDROOT
BRANCH  10  11
HETATM   11  C   UNK N   1      34.106  16.963   7.370  0.00  0.00     0.112 C 
HETATM   12  C   UNK N   1      34.985  15.759   7.060  0.00  0.00     0.026 C 
BRANCH  11  13
HETATM   13  C   UNK N   1      34.529  17.871   8.504  0.00  0.00     0.148 C 
HETATM   14  O   UNK N   1      34.887  19.019   8.287  0.00  0.00    -0.649 OA
BRANCH  13  15
HETATM   15  O   UNK N   1      34.506  17.419   9.771  0.00  0.00    -0.776 OA
HETATM   16  H   UNK N   1      35.055  17.813  10.420  0.00  0.00     0.167 HD
ENDBRANCH  13  15
ENDBRANCH  11  13
ENDBRANCH  10  11
BRANCH   3  17
HETATM   17  O   UNK N   1      26.812  18.003   4.577  0.00  0.00    -0.356 OA
HETATM   18  C   UNK N   1      26.152  17.032   3.855  0.00  0.00     0.210 C 
ENDBRANCH   3  17
TORSDOF 4
ENDMDL
MODEL 8
REMARK VINA RESULT:      -5.8      4.565     10.364
REMARK  4 active torsions:
REMARK  status: ('A' for Active; 'I' for Inactive)
REMARK    1  A    between atoms: C_3  and  O_16 
REMARK    2  A    between atoms: C_10  and  C_11 
REMARK    3  A    between atoms: C_11  and  C_12 
REMARK    4  A    between atoms: C_12  and  O_14 
ROOT
HETATM    1  C   UNK N   1      29.929  17.058   4.481  0.00  0.00     0.015 A 
HETATM    2  C   UNK N   1      28.543  17.154   4.292  0.00  0.00     0.037 A 
HETATM    3  C   UNK N   1      27.695  17.442   5.370  0.00  0.00     0.069 A 
HETATM    4  C   UNK N   1      28.247  17.646   6.645  0.00  0.00     0.049 A 
HETATM    5  C   UNK N   1      29.622  17.552   6.839  0.00  0.00    -0.023 A 
HETATM    6  C   UNK N   1      30.474  17.251   5.754  0.00  0.00    -0.025 A 
HETATM    7  C   UNK N   1      31.855  17.134   5.966  0.00  0.00     0.020 A 
HETATM    8  C   UNK N   1      30.153  17.744   8.111  0.00  0.00     0.013 A 
HETATM    9  C   UNK N   1      31.526  17.625   8.315  0.00  0.00     0.009 A 
HETATM   10  C   UNK N   1      32.389  17.314   7.256  0.00  0.00    -0.043 A 
ENDROOT
BRANCH  10  11
HETATM   11  C   UNK N   1      33.874  17.157   7.508  0.00  0.00     0.112 C 
HETATM   12  C   UNK N   1      34.654  16.097   6.741  0.00  0.00     0.026 C 
BRANCH  11  13
HETATM   13  C   UNK N   1      34.603  17.923   8.590  0.00  0.00     0.148 C 
HETATM   14  O   UNK N   1      34.799  17.423   9.687  0.00  0.00    -0.649 OA
BRANCH  13  15
HETATM   15  O   UNK N   1      35.051  19.168   8.346  0.00  0.00    -0.776 OA
HETATM   16  H   UNK N   1      34.443  19.869   8.218  0.00  0.00     0.167 HD
ENDBRANCH  13  15
ENDBRANCH  11  13
ENDBRANCH  10  11
BRANCH   3  17
HETATM   17  O   UNK N   1      26.359  17.510   5.164  0.00  0.00    -0.356 OA
HETATM   18  C   UNK N   1      25.803  17.834   3.945  0.00  0.00     0.210 C 
ENDBRANCH   3  17
TORSDOF 4
ENDMDL
MODEL 9
REMARK VINA RESULT:      -5.5     10.271     12.330
REMARK  4 active torsions:
REMARK  status: ('A' for Active; 'I' for Inactive)
REMARK    1  A    between atoms: C_3  and  O_16 
REMARK    2  A    between atoms: C_10  and  C_11 
REMARK    3  A    between atoms: C_11  and  C_12 
REMARK    4  A    between atoms: C_12  and  O_14 
ROOT
HETATM    1  C   UNK N   1      25.910  25.364  -8.181  0.00  0.00     0.015 A 
HETATM    2  C   UNK N   1      25.465  24.222  -8.862  0.00  0.00     0.037 A 
HETATM    3  C   UNK N   1      25.331  23.000  -8.191  0.00  0.00     0.069 A 
HETATM    4  C   UNK N   1      25.638  22.928  -6.822  0.00  0.00     0.049 A 
HETATM    5  C   UNK N   1      26.081  24.057  -6.141  0.00  0.00    -0.023 A 
HETATM    6  C   UNK N   1      26.225  25.287  -6.821  0.00  0.00    -0.025 A 
HETATM    7  C   UNK N   1      26.695  26.412  -6.130  0.00  0.00     0.020 A 
HETATM    8  C   UNK N   1      26.393  23.969  -4.788  0.00  0.00     0.013 A 
HETATM    9  C   UNK N   1      26.861  25.090  -4.108  0.00  0.00     0.009 A 
HETATM   10  C   UNK N   1      27.025  26.317  -4.765  0.00  0.00    -0.043 A 
ENDROOT
BRANCH  10  11
HETATM   11  C   UNK N   1      27.567  27.514  -4.014  0.00  0.00     0.112 C 
HETATM   12  C   UNK N   1      29.060  27.814  -4.063  0.00  0.00     0.026 C 
BRANCH  11  13
HETATM   13  C   UNK N   1      26.708  28.363  -3.103  0.00  0.00     0.148 C 
HETATM   14  O   UNK N   1      27.212  29.050  -2.227  0.00  0.00    -0.649 OA
BRANCH  13  15
HETATM   15  O   UNK N   1      25.371  28.373  -3.257  0.00  0.00    -0.776 OA
HETATM   16  H   UNK N   1      24.986  28.804  -3.994  0.00  0.00     0.167 HD
ENDBRANCH  13  15
ENDBRANCH  11  13
ENDBRANCH  10  11
BRANCH   3  17
HETATM   17  O   UNK N   1      24.918  21.908  -8.875  0.00  0.00    -0.356 OA
HETATM   18  C   UNK N   1      25.755  21.165  -9.681  0.00  0.00     0.210 C 
ENDBRANCH   3  17
TORSDOF 4
ENDMDL
