REMARK  10 active torsions:
REMARK  status: ('A' for Active; 'I' for Inactive)
REMARK    1  A    between atoms: C_12  and  C_1 
REMARK    2  A    between atoms: S_16  and  C_2 
REMARK    3  A    between atoms: C_8  and  C_6 
REMARK    4  A    between atoms: C_8  and  O_9 
REMARK    5  A    between atoms: O_14  and  C_12 
REMARK    6  A    between atoms: C_17  and  S_16 
REMARK    7  A    between atoms: C_20  and  C_22 
REMARK       I    between atoms: N_24  and  C_22 
REMARK    8  A    between atoms: C_25  and  N_24 
REMARK    9  A    between atoms: C_31  and  C_29 
REMARK   10  A    between atoms: O_32  and  C_31 
ROOT
HETATM    1  C   UNK N   1      11.998 -14.304   0.910  0.00  0.00     0.072 C 
HETATM    2  C   UNK N   1      11.826 -15.530   1.769  0.00  0.00     0.130 C 
HETATM    3  N   UNK N   1      12.251 -16.675   0.959  0.00  0.00    -0.408 N 
HETATM    4  C   UNK N   1      12.626 -16.144  -0.356  0.00  0.00     0.171 C 
HETATM    5  C   UNK N   1      11.884 -14.826  -0.482  0.00  0.00     0.051 C 
HETATM    6  H   UNK N   1      12.280 -17.651   1.253  0.00  0.00     0.154 HD
ENDROOT
BRANCH   1   7
HETATM    7  S   UNK N   1      10.955 -12.890   1.393  0.00  0.00    -0.125 SA
BRANCH   7   8
HETATM    8  C   UNK N   1       9.430 -12.752   0.395  0.00  0.00     0.018 C 
HETATM    9  C   UNK N   1       8.443 -13.645   0.196  0.00  0.00     0.125 C 
HETATM   10  N   UNK N   1       7.328 -12.903  -0.160  0.00  0.00    -0.304 N 
HETATM   11  C   UNK N   1       7.414 -11.530   0.184  0.00  0.00     0.117 A 
HETATM   12  C   UNK N   1       6.151 -12.850  -0.699  0.00  0.00     0.233 A 
HETATM   13  C   UNK N   1       8.911 -11.391  -0.130  0.00  0.00     0.048 C 
HETATM   14  C   UNK N   1       5.974 -11.375  -0.570  0.00  0.00     0.130 A 
HETATM   15  C   UNK N   1       9.552 -10.156   0.476  0.00  0.00     0.018 C 
HETATM   16  O   UNK N   1       5.503 -13.757  -1.191  0.00  0.00    -0.272 OA
BRANCH   9  17
HETATM   17  C   UNK N   1       8.361 -15.100   0.434  0.00  0.00     0.195 C 
HETATM   18  O   UNK N   1       9.323 -15.735   0.804  0.00  0.00    -0.645 OA
BRANCH  17  19
HETATM   19  O   UNK N   1       7.206 -15.747   0.183  0.00  0.00    -0.772 OA
HETATM   20  H   UNK N   1       6.415 -15.276   0.009  0.00  0.00     0.167 HD
ENDBRANCH  17  19
ENDBRANCH   9  17
BRANCH  14  21
HETATM   21  C   UNK N   1       4.870 -11.001   0.425  0.00  0.00     0.129 C 
HETATM   22  C   UNK N   1       3.483 -11.277  -0.119  0.00  0.00     0.040 C 
BRANCH  21  23
HETATM   23  O   UNK N   1       4.979  -9.653   0.771  0.00  0.00    -0.395 OA
HETATM   24  H   UNK N   1       5.828  -9.250   1.012  0.00  0.00     0.210 HD
ENDBRANCH  21  23
ENDBRANCH  14  21
ENDBRANCH   7   8
ENDBRANCH   1   7
BRANCH   4  25
HETATM   25  C   UNK N   1      14.159 -16.186  -0.455  0.00  0.00     0.244 C 
HETATM   26  O   UNK N   1      14.666 -17.293  -0.362  0.00  0.00    -0.271 OA
HETATM   27  N   UNK N   1      15.017 -15.121  -0.556  0.00  0.00    -0.325 N 
HETATM   28  H   UNK N   1      15.964 -15.385  -0.501  0.00  0.00     0.169 HD
BRANCH  27  29
HETATM   29  C   UNK N   1      14.841 -13.718  -0.723  0.00  0.00     0.035 A 
HETATM   30  C   UNK N   1      13.819 -13.160  -1.502  0.00  0.00     0.029 A 
HETATM   31  C   UNK N   1      13.694 -11.771  -1.616  0.00  0.00     0.003 A 
HETATM   32  C   UNK N   1      14.610 -10.931  -0.978  0.00  0.00     0.018 A 
HETATM   33  C   UNK N   1      15.663 -11.476  -0.233  0.00  0.00     0.039 A 
HETATM   34  C   UNK N   1      15.772 -12.867  -0.117  0.00  0.00     0.047 A 
BRANCH  33  35
HETATM   35  C   UNK N   1      16.654 -10.602   0.427  0.00  0.00     0.176 C 
HETATM   36  O   UNK N   1      16.558  -9.387   0.344  0.00  0.00    -0.646 OA
BRANCH  35  37
HETATM   37  O   UNK N   1      17.676 -11.140   1.122  0.00  0.00    -0.773 OA
HETATM   38  H   UNK N   1      17.707 -11.942   1.605  0.00  0.00     0.167 HD
ENDBRANCH  35  37
ENDBRANCH  33  35
ENDBRANCH  27  29
ENDBRANCH   4  25
TORSDOF 10
