MODEL 1
REMARK VINA RESULT:      -6.5      0.000      0.000
REMARK  9 active torsions:
REMARK  status: ('A' for Active; 'I' for Inactive)
REMARK    1  A    between atoms: N_12  and  C_1 
REMARK    2  A    between atoms: C_2  and  N_11 
REMARK    3  A    between atoms: N_11  and  C_22 
REMARK    4  A    between atoms: C_21  and  N_12 
REMARK    5  A    between atoms: C_28  and  C_21 
REMARK    6  A    between atoms: C_22  and  C_27 
REMARK    7  A    between atoms: C_27  and  C_34 
REMARK    8  A    between atoms: C_33  and  C_28 
REMARK    9  A    between atoms: C_34  and  C_33 
ROOT
HETATM    1  C   UNK N   1      32.101  27.254  -4.980  0.00  0.00     0.002 C 
ENDROOT
BRANCH   1   2
HETATM    2  C   UNK N   1      31.520  27.328  -6.385  0.00  0.00     0.028 C 
BRANCH   2   3
HETATM    3  C   UNK N   1      30.923  28.708  -6.723  0.00  0.00     0.237 C 
BRANCH   3   4
HETATM    4  N   UNK N   1      29.508  28.706  -7.158  0.00  0.00    -0.062 N 
HETATM    5  C   UNK N   1      28.848  29.888  -6.620  0.00  0.00     0.273 C 
HETATM    6  C   UNK N   1      29.377  28.785  -8.610  0.00  0.00     0.273 C 
BRANCH   4   7
HETATM    7  C   UNK N   1      28.791  27.478  -6.722  0.00  0.00     0.257 A 
HETATM    8  C   UNK N   1      27.878  26.842  -7.770  0.00  0.00    -0.012 A 
HETATM    9  C   UNK N   1      26.569  26.773  -7.338  0.00  0.00    -0.017 A 
HETATM   10  C   UNK N   1      28.240  26.309  -9.010  0.00  0.00     0.010 A 
HETATM   11  C   UNK N   1      25.564  26.193  -8.110  0.00  0.00     0.013 A 
HETATM   12  C   UNK N   1      26.485  27.342  -6.027  0.00  0.00    -0.017 A 
HETATM   13  C   UNK N   1      25.913  25.662  -9.361  0.00  0.00     0.001 A 
HETATM   14  C   UNK N   1      27.247  25.719  -9.809  0.00  0.00     0.001 A 
HETATM   15  C   UNK N   1      27.746  27.744  -5.638  0.00  0.00    -0.012 A 
HETATM   16  C   UNK N   1      25.375  27.486  -5.198  0.00  0.00     0.013 A 
HETATM   17  C   UNK N   1      27.951  28.308  -4.378  0.00  0.00     0.010 A 
HETATM   18  C   UNK N   1      26.848  28.467  -3.522  0.00  0.00     0.001 A 
HETATM   19  C   UNK N   1      25.563  28.062  -3.933  0.00  0.00     0.001 A 
ENDBRANCH   4   7
ENDBRANCH   3   4
ENDBRANCH   2   3
ENDBRANCH   1   2
BRANCH   1  20
HETATM   20  C   UNK N   1      31.592  26.032  -4.217  0.00  0.00     0.002 C 
BRANCH  20  21
HETATM   21  C   UNK N   1      32.124  24.732  -4.803  0.00  0.00     0.028 C 
BRANCH  21  22
HETATM   22  C   UNK N   1      31.203  23.570  -4.422  0.00  0.00     0.237 C 
BRANCH  22  23
HETATM   23  N   UNK N   1      30.638  22.839  -5.568  0.00  0.00    -0.062 N 
HETATM   24  C   UNK N   1      30.065  21.565  -5.132  0.00  0.00     0.273 C 
HETATM   25  C   UNK N   1      31.718  22.567  -6.509  0.00  0.00     0.273 C 
BRANCH  23  26
HETATM   26  C   UNK N   1      29.622  23.706  -6.220  0.00  0.00     0.257 A 
HETATM   27  C   UNK N   1      28.915  23.061  -7.414  0.00  0.00    -0.012 A 
HETATM   28  C   UNK N   1      27.549  22.984  -7.226  0.00  0.00    -0.017 A 
HETATM   29  C   UNK N   1      29.490  22.598  -8.601  0.00  0.00     0.010 A 
HETATM   30  C   UNK N   1      26.698  22.443  -8.188  0.00  0.00     0.013 A 
HETATM   31  C   UNK N   1      27.229  23.540  -5.948  0.00  0.00    -0.017 A 
HETATM   32  C   UNK N   1      27.264  21.968  -9.381  0.00  0.00     0.001 A 
HETATM   33  C   UNK N   1      28.656  22.045  -9.586  0.00  0.00     0.001 A 
HETATM   34  C   UNK N   1      28.394  23.967  -5.345  0.00  0.00    -0.012 A 
HETATM   35  C   UNK N   1      25.986  23.676  -5.334  0.00  0.00     0.013 A 
HETATM   36  C   UNK N   1      28.359  24.560  -4.083  0.00  0.00     0.010 A 
HETATM   37  C   UNK N   1      27.121  24.700  -3.437  0.00  0.00     0.001 A 
HETATM   38  C   UNK N   1      25.938  24.263  -4.061  0.00  0.00     0.001 A 
ENDBRANCH  23  26
ENDBRANCH  22  23
ENDBRANCH  21  22
ENDBRANCH  20  21
ENDBRANCH   1  20
TORSDOF 9
ENDMDL
MODEL 2
REMARK VINA RESULT:      -6.5      1.610      5.631
REMARK  9 active torsions:
REMARK  status: ('A' for Active; 'I' for Inactive)
REMARK    1  A    between atoms: N_12  and  C_1 
REMARK    2  A    between atoms: C_2  and  N_11 
REMARK    3  A    between atoms: N_11  and  C_22 
REMARK    4  A    between atoms: C_21  and  N_12 
REMARK    5  A    between atoms: C_28  and  C_21 
REMARK    6  A    between atoms: C_22  and  C_27 
REMARK    7  A    between atoms: C_27  and  C_34 
REMARK    8  A    between atoms: C_33  and  C_28 
REMARK    9  A    between atoms: C_34  and  C_33 
ROOT
HETATM    1  C   UNK N   1      25.876  25.635 -10.344  0.00  0.00     0.002 C 
ENDROOT
BRANCH   1   2
HETATM    2  C   UNK N   1      26.030  24.206  -9.842  0.00  0.00     0.028 C 
BRANCH   2   3
HETATM    3  C   UNK N   1      25.427  23.986  -8.442  0.00  0.00     0.237 C 
BRANCH   3   4
HETATM    4  N   UNK N   1      26.311  23.319  -7.459  0.00  0.00    -0.062 N 
HETATM    5  C   UNK N   1      25.488  22.665  -6.451  0.00  0.00     0.273 C 
HETATM    6  C   UNK N   1      27.125  22.272  -8.071  0.00  0.00     0.273 C 
BRANCH   4   7
HETATM    7  C   UNK N   1      27.248  24.275  -6.811  0.00  0.00     0.257 A 
HETATM    8  C   UNK N   1      28.147  23.683  -5.726  0.00  0.00    -0.012 A 
HETATM    9  C   UNK N   1      27.962  24.305  -4.508  0.00  0.00    -0.017 A 
HETATM   10  C   UNK N   1      29.112  22.682  -5.867  0.00  0.00     0.010 A 
HETATM   11  C   UNK N   1      28.705  23.960  -3.380  0.00  0.00     0.013 A 
HETATM   12  C   UNK N   1      26.959  25.317  -4.654  0.00  0.00    -0.017 A 
HETATM   13  C   UNK N   1      29.670  22.950  -3.506  0.00  0.00     0.001 A 
HETATM   14  C   UNK N   1      29.874  22.314  -4.746  0.00  0.00     0.001 A 
HETATM   15  C   UNK N   1      26.538  25.335  -5.967  0.00  0.00    -0.012 A 
HETATM   16  C   UNK N   1      26.449  26.195  -3.702  0.00  0.00     0.013 A 
HETATM   17  C   UNK N   1      25.578  26.256  -6.389  0.00  0.00     0.010 A 
HETATM   18  C   UNK N   1      25.045  27.154  -5.448  0.00  0.00     0.001 A 
HETATM   19  C   UNK N   1      25.475  27.121  -4.107  0.00  0.00     0.001 A 
ENDBRANCH   4   7
ENDBRANCH   3   4
ENDBRANCH   2   3
ENDBRANCH   1   2
BRANCH   1  20
HETATM   20  C   UNK N   1      26.838  26.592  -9.644  0.00  0.00     0.002 C 
BRANCH  20  21
HETATM   21  C   UNK N   1      28.282  26.365 -10.073  0.00  0.00     0.028 C 
BRANCH  21  22
HETATM   22  C   UNK N   1      29.117  27.614  -9.783  0.00  0.00     0.237 C 
BRANCH  22  23
HETATM   23  N   UNK N   1      30.213  27.405  -8.824  0.00  0.00    -0.062 N 
HETATM   24  C   UNK N   1      30.870  28.675  -8.509  0.00  0.00     0.273 C 
HETATM   25  C   UNK N   1      31.191  26.516  -9.441  0.00  0.00     0.273 C 
BRANCH  23  26
HETATM   26  C   UNK N   1      29.654  26.757  -7.609  0.00  0.00     0.257 A 
HETATM   27  C   UNK N   1      30.696  26.072  -6.723  0.00  0.00    -0.012 A 
HETATM   28  C   UNK N   1      30.716  26.598  -5.447  0.00  0.00    -0.017 A 
HETATM   29  C   UNK N   1      31.552  25.020  -7.065  0.00  0.00     0.010 A 
HETATM   30  C   UNK N   1      31.578  26.122  -4.462  0.00  0.00     0.013 A 
HETATM   31  C   UNK N   1      29.738  27.638  -5.364  0.00  0.00    -0.017 A 
HETATM   32  C   UNK N   1      32.448  25.071  -4.795  0.00  0.00     0.001 A 
HETATM   33  C   UNK N   1      32.434  24.522  -6.092  0.00  0.00     0.001 A 
HETATM   34  C   UNK N   1      29.108  27.754  -6.586  0.00  0.00    -0.012 A 
HETATM   35  C   UNK N   1      29.403  28.447  -4.280  0.00  0.00     0.013 A 
HETATM   36  C   UNK N   1      28.098  28.698  -6.772  0.00  0.00     0.010 A 
HETATM   37  C   UNK N   1      27.748  29.533  -5.700  0.00  0.00     0.001 A 
HETATM   38  C   UNK N   1      28.395  29.406  -4.457  0.00  0.00     0.001 A 
ENDBRANCH  23  26
ENDBRANCH  22  23
ENDBRANCH  21  22
ENDBRANCH  20  21
ENDBRANCH   1  20
TORSDOF 9
ENDMDL
MODEL 3
REMARK VINA RESULT:      -6.4      1.578      5.091
REMARK  9 active torsions:
REMARK  status: ('A' for Active; 'I' for Inactive)
REMARK    1  A    between atoms: N_12  and  C_1 
REMARK    2  A    between atoms: C_2  and  N_11 
REMARK    3  A    between atoms: N_11  and  C_22 
REMARK    4  A    between atoms: C_21  and  N_12 
REMARK    5  A    between atoms: C_28  and  C_21 
REMARK    6  A    between atoms: C_22  and  C_27 
REMARK    7  A    between atoms: C_27  and  C_34 
REMARK    8  A    between atoms: C_33  and  C_28 
REMARK    9  A    between atoms: C_34  and  C_33 
ROOT
HETATM    1  C   UNK N   1      26.853  26.484  -9.524  0.00  0.00     0.002 C 
ENDROOT
BRANCH   1   2
HETATM    2  C   UNK N   1      28.305  26.546  -9.976  0.00  0.00     0.028 C 
BRANCH   2   3
HETATM    3  C   UNK N   1      28.998  27.873  -9.612  0.00  0.00     0.237 C 
BRANCH   3   4
HETATM    4  N   UNK N   1      29.984  27.802  -8.510  0.00  0.00    -0.062 N 
HETATM    5  C   UNK N   1      31.147  27.051  -8.965  0.00  0.00     0.273 C 
HETATM    6  C   UNK N   1      30.472  29.122  -8.119  0.00  0.00     0.273 C 
BRANCH   4   7
HETATM    7  C   UNK N   1      29.414  27.171  -7.290  0.00  0.00     0.257 A 
HETATM    8  C   UNK N   1      28.913  28.139  -6.220  0.00  0.00    -0.012 A 
HETATM    9  C   UNK N   1      29.564  27.959  -5.016  0.00  0.00    -0.017 A 
HETATM   10  C   UNK N   1      27.886  29.080  -6.331  0.00  0.00     0.010 A 
HETATM   11  C   UNK N   1      29.243  28.703  -3.881  0.00  0.00     0.013 A 
HETATM   12  C   UNK N   1      30.526  26.909  -5.165  0.00  0.00    -0.017 A 
HETATM   13  C   UNK N   1      28.219  29.657  -3.983  0.00  0.00     0.001 A 
HETATM   14  C   UNK N   1      27.542  29.845  -5.203  0.00  0.00     0.001 A 
HETATM   15  C   UNK N   1      30.456  26.426  -6.455  0.00  0.00    -0.012 A 
HETATM   16  C   UNK N   1      31.407  26.381  -4.224  0.00  0.00     0.013 A 
HETATM   17  C   UNK N   1      31.274  25.369  -6.859  0.00  0.00     0.010 A 
HETATM   18  C   UNK N   1      32.173  24.818  -5.930  0.00  0.00     0.001 A 
HETATM   19  C   UNK N   1      32.243  25.326  -4.618  0.00  0.00     0.001 A 
ENDBRANCH   4   7
ENDBRANCH   3   4
ENDBRANCH   2   3
ENDBRANCH   1   2
BRANCH   1  20
HETATM   20  C   UNK N   1      26.055  25.446 -10.311  0.00  0.00     0.002 C 
BRANCH  20  21
HETATM   21  C   UNK N   1      26.257  24.039  -9.766  0.00  0.00     0.028 C 
BRANCH  21  22
HETATM   22  C   UNK N   1      25.559  23.898  -8.411  0.00  0.00     0.237 C 
BRANCH  22  23
HETATM   23  N   UNK N   1      26.364  23.226  -7.378  0.00  0.00    -0.062 N 
HETATM   24  C   UNK N   1      27.100  22.099  -7.953  0.00  0.00     0.273 C 
HETATM   25  C   UNK N   1      25.457  22.717  -6.356  0.00  0.00     0.273 C 
BRANCH  23  26
HETATM   26  C   UNK N   1      27.278  24.229  -6.772  0.00  0.00     0.257 A 
HETATM   27  C   UNK N   1      26.578  25.274  -5.900  0.00  0.00    -0.012 A 
HETATM   28  C   UNK N   1      27.045  25.259  -4.601  0.00  0.00    -0.017 A 
HETATM   29  C   UNK N   1      25.595  26.190  -6.285  0.00  0.00     0.010 A 
HETATM   30  C   UNK N   1      26.561  26.132  -3.630  0.00  0.00     0.013 A 
HETATM   31  C   UNK N   1      28.050  24.248  -4.486  0.00  0.00    -0.017 A 
HETATM   32  C   UNK N   1      25.568  27.052  -4.001  0.00  0.00     0.001 A 
HETATM   33  C   UNK N   1      25.087  27.081  -5.325  0.00  0.00     0.001 A 
HETATM   34  C   UNK N   1      28.211  23.640  -5.713  0.00  0.00    -0.012 A 
HETATM   35  C   UNK N   1      28.797  23.872  -3.371  0.00  0.00     0.013 A 
HETATM   36  C   UNK N   1      29.145  22.616  -5.877  0.00  0.00     0.010 A 
HETATM   37  C   UNK N   1      29.903  22.210  -4.767  0.00  0.00     0.001 A 
HETATM   38  C   UNK N   1      29.733  22.838  -3.519  0.00  0.00     0.001 A 
ENDBRANCH  23  26
ENDBRANCH  22  23
ENDBRANCH  21  22
ENDBRANCH  20  21
ENDBRANCH   1  20
TORSDOF 9
ENDMDL
MODEL 4
REMARK VINA RESULT:      -6.3      1.678      5.228
REMARK  9 active torsions:
REMARK  status: ('A' for Active; 'I' for Inactive)
REMARK    1  A    between atoms: N_12  and  C_1 
REMARK    2  A    between atoms: C_2  and  N_11 
REMARK    3  A    between atoms: N_11  and  C_22 
REMARK    4  A    between atoms: C_21  and  N_12 
REMARK    5  A    between atoms: C_28  and  C_21 
REMARK    6  A    between atoms: C_22  and  C_27 
REMARK    7  A    between atoms: C_27  and  C_34 
REMARK    8  A    between atoms: C_33  and  C_28 
REMARK    9  A    between atoms: C_34  and  C_33 
ROOT
HETATM    1  C   UNK N   1      28.941  28.105  -8.852  0.00  0.00     0.002 C 
ENDROOT
BRANCH   1   2
HETATM    2  C   UNK N   1      30.168  27.285  -9.228  0.00  0.00     0.028 C 
BRANCH   2   3
HETATM    3  C   UNK N   1      29.819  25.925  -9.862  0.00  0.00     0.237 C 
BRANCH   3   4
HETATM    4  N   UNK N   1      30.380  24.737  -9.180  0.00  0.00    -0.062 N 
HETATM    5  C   UNK N   1      30.109  23.556  -9.991  0.00  0.00     0.273 C 
HETATM    6  C   UNK N   1      31.831  24.815  -9.036  0.00  0.00     0.273 C 
BRANCH   4   7
HETATM    7  C   UNK N   1      29.817  24.558  -7.815  0.00  0.00     0.257 A 
HETATM    8  C   UNK N   1      30.367  23.371  -7.026  0.00  0.00    -0.012 A 
HETATM    9  C   UNK N   1      29.371  22.486  -6.665  0.00  0.00    -0.017 A 
HETATM   10  C   UNK N   1      31.686  23.152  -6.617  0.00  0.00     0.010 A 
HETATM   11  C   UNK N   1      29.631  21.348  -5.902  0.00  0.00     0.013 A 
HETATM   12  C   UNK N   1      28.121  22.970  -7.166  0.00  0.00    -0.017 A 
HETATM   13  C   UNK N   1      30.953  21.113  -5.493  0.00  0.00     0.001 A 
HETATM   14  C   UNK N   1      31.977  22.012  -5.849  0.00  0.00     0.001 A 
HETATM   15  C   UNK N   1      28.339  24.165  -7.820  0.00  0.00    -0.012 A 
HETATM   16  C   UNK N   1      26.849  22.415  -7.045  0.00  0.00     0.013 A 
HETATM   17  C   UNK N   1      27.273  24.869  -8.381  0.00  0.00     0.010 A 
HETATM   18  C   UNK N   1      25.979  24.331  -8.275  0.00  0.00     0.001 A 
HETATM   19  C   UNK N   1      25.767  23.106  -7.614  0.00  0.00     0.001 A 
ENDBRANCH   4   7
ENDBRANCH   3   4
ENDBRANCH   2   3
ENDBRANCH   1   2
BRANCH   1  20
HETATM   20  C   UNK N   1      29.285  29.228  -7.876  0.00  0.00     0.002 C 
BRANCH  20  21
HETATM   21  C   UNK N   1      30.179  28.745  -6.742  0.00  0.00     0.028 C 
BRANCH  21  22
HETATM   22  C   UNK N   1      29.609  29.200  -5.396  0.00  0.00     0.237 C 
BRANCH  22  23
HETATM   23  N   UNK N   1      29.541  28.142  -4.375  0.00  0.00    -0.062 N 
HETATM   24  C   UNK N   1      28.591  28.506  -3.322  0.00  0.00     0.273 C 
HETATM   25  C   UNK N   1      30.864  28.001  -3.781  0.00  0.00     0.273 C 
BRANCH  23  26
HETATM   26  C   UNK N   1      29.161  26.871  -5.045  0.00  0.00     0.257 A 
HETATM   27  C   UNK N   1      29.440  25.614  -4.217  0.00  0.00    -0.012 A 
HETATM   28  C   UNK N   1      28.290  24.889  -3.976  0.00  0.00    -0.017 A 
HETATM   29  C   UNK N   1      30.672  25.162  -3.737  0.00  0.00     0.010 A 
HETATM   30  C   UNK N   1      28.303  23.699  -3.252  0.00  0.00     0.013 A 
HETATM   31  C   UNK N   1      27.186  25.561  -4.589  0.00  0.00    -0.017 A 
HETATM   32  C   UNK N   1      29.532  23.237  -2.758  0.00  0.00     0.001 A 
HETATM   33  C   UNK N   1      30.713  23.966  -3.001  0.00  0.00     0.001 A 
HETATM   34  C   UNK N   1      27.650  26.700  -5.213  0.00  0.00    -0.012 A 
HETATM   35  C   UNK N   1      25.839  25.203  -4.610  0.00  0.00     0.013 A 
HETATM   36  C   UNK N   1      26.770  27.538  -5.898  0.00  0.00     0.010 A 
HETATM   37  C   UNK N   1      25.406  27.207  -5.926  0.00  0.00     0.001 A 
HETATM   38  C   UNK N   1      24.942  26.041  -5.288  0.00  0.00     0.001 A 
ENDBRANCH  23  26
ENDBRANCH  22  23
ENDBRANCH  21  22
ENDBRANCH  20  21
ENDBRANCH   1  20
TORSDOF 9
ENDMDL
MODEL 5
REMARK VINA RESULT:      -6.3      0.409      5.837
REMARK  9 active torsions:
REMARK  status: ('A' for Active; 'I' for Inactive)
REMARK    1  A    between atoms: N_12  and  C_1 
REMARK    2  A    between atoms: C_2  and  N_11 
REMARK    3  A    between atoms: N_11  and  C_22 
REMARK    4  A    between atoms: C_21  and  N_12 
REMARK    5  A    between atoms: C_28  and  C_21 
REMARK    6  A    between atoms: C_22  and  C_27 
REMARK    7  A    between atoms: C_27  and  C_34 
REMARK    8  A    between atoms: C_33  and  C_28 
REMARK    9  A    between atoms: C_34  and  C_33 
ROOT
HETATM    1  C   UNK N   1      32.146  25.965  -4.803  0.00  0.00     0.002 C 
ENDROOT
BRANCH   1   2
HETATM    2  C   UNK N   1      32.595  24.557  -5.167  0.00  0.00     0.028 C 
BRANCH   2   3
HETATM    3  C   UNK N   1      31.590  23.469  -4.741  0.00  0.00     0.237 C 
BRANCH   3   4
HETATM    4  N   UNK N   1      30.836  22.826  -5.840  0.00  0.00    -0.062 N 
HETATM    5  C   UNK N   1      31.763  22.474  -6.907  0.00  0.00     0.273 C 
HETATM    6  C   UNK N   1      30.200  21.580  -5.418  0.00  0.00     0.273 C 
BRANCH   4   7
HETATM    7  C   UNK N   1      29.759  23.705  -6.368  0.00  0.00     0.257 A 
HETATM    8  C   UNK N   1      28.576  23.936  -5.429  0.00  0.00    -0.012 A 
HETATM    9  C   UNK N   1      27.385  23.519  -5.987  0.00  0.00    -0.017 A 
HETATM   10  C   UNK N   1      28.589  24.544  -4.171  0.00  0.00     0.010 A 
HETATM   11  C   UNK N   1      26.165  23.669  -5.329  0.00  0.00     0.013 A 
HETATM   12  C   UNK N   1      27.649  22.983  -7.289  0.00  0.00    -0.017 A 
HETATM   13  C   UNK N   1      26.166  24.270  -4.062  0.00  0.00     0.001 A 
HETATM   14  C   UNK N   1      27.374  24.707  -3.484  0.00  0.00     0.001 A 
HETATM   15  C   UNK N   1      29.000  23.087  -7.544  0.00  0.00    -0.012 A 
HETATM   16  C   UNK N   1      26.760  22.449  -8.219  0.00  0.00     0.013 A 
HETATM   17  C   UNK N   1      29.524  22.662  -8.766  0.00  0.00     0.010 A 
HETATM   18  C   UNK N   1      28.649  22.118  -9.722  0.00  0.00     0.001 A 
HETATM   19  C   UNK N   1      27.272  22.006  -9.448  0.00  0.00     0.001 A 
ENDBRANCH   4   7
ENDBRANCH   3   4
ENDBRANCH   2   3
ENDBRANCH   1   2
BRANCH   1  20
HETATM   20  C   UNK N   1      32.680  27.006  -5.784  0.00  0.00     0.002 C 
BRANCH  20  21
HETATM   21  C   UNK N   1      31.722  27.241  -6.944  0.00  0.00     0.028 C 
BRANCH  21  22
HETATM   22  C   UNK N   1      30.927  28.529  -6.713  0.00  0.00     0.237 C 
BRANCH  22  23
HETATM   23  N   UNK N   1      29.602  28.550  -7.353  0.00  0.00    -0.062 N 
HETATM   24  C   UNK N   1      29.735  28.618  -8.809  0.00  0.00     0.273 C 
HETATM   25  C   UNK N   1      28.896  29.740  -6.892  0.00  0.00     0.273 C 
BRANCH  23  26
HETATM   26  C   UNK N   1      28.858  27.337  -6.924  0.00  0.00     0.257 A 
HETATM   27  C   UNK N   1      27.724  27.610  -5.933  0.00  0.00    -0.012 A 
HETATM   28  C   UNK N   1      26.500  27.200  -6.422  0.00  0.00    -0.017 A 
HETATM   29  C   UNK N   1      27.820  28.177  -4.659  0.00  0.00     0.010 A 
HETATM   30  C   UNK N   1      25.324  27.338  -5.687  0.00  0.00     0.013 A 
HETATM   31  C   UNK N   1      26.689  26.644  -7.726  0.00  0.00    -0.017 A 
HETATM   32  C   UNK N   1      25.406  27.913  -4.409  0.00  0.00     0.001 A 
HETATM   33  C   UNK N   1      26.650  28.330  -3.897  0.00  0.00     0.001 A 
HETATM   34  C   UNK N   1      28.030  26.704  -8.044  0.00  0.00    -0.012 A 
HETATM   35  C   UNK N   1      25.745  26.106  -8.599  0.00  0.00     0.013 A 
HETATM   36  C   UNK N   1      28.487  26.216  -9.268  0.00  0.00     0.010 A 
HETATM   37  C   UNK N   1      27.557  25.678 -10.171  0.00  0.00     0.001 A 
HETATM   38  C   UNK N   1      26.191  25.620  -9.837  0.00  0.00     0.001 A 
ENDBRANCH  23  26
ENDBRANCH  22  23
ENDBRANCH  21  22
ENDBRANCH  20  21
ENDBRANCH   1  20
TORSDOF 9
ENDMDL
MODEL 6
REMARK VINA RESULT:      -6.3      1.786      6.284
REMARK  9 active torsions:
REMARK  status: ('A' for Active; 'I' for Inactive)
REMARK    1  A    between atoms: N_12  and  C_1 
REMARK    2  A    between atoms: C_2  and  N_11 
REMARK    3  A    between atoms: N_11  and  C_22 
REMARK    4  A    between atoms: C_21  and  N_12 
REMARK    5  A    between atoms: C_28  and  C_21 
REMARK    6  A    between atoms: C_22  and  C_27 
REMARK    7  A    between atoms: C_27  and  C_34 
REMARK    8  A    between atoms: C_33  and  C_28 
REMARK    9  A    between atoms: C_34  and  C_33 
ROOT
HETATM    1  C   UNK N   1      31.229  27.298  -5.643  0.00  0.00     0.002 C 
ENDROOT
BRANCH   1   2
HETATM    2  C   UNK N   1      31.491  26.283  -6.747  0.00  0.00     0.028 C 
BRANCH   2   3
HETATM    3  C   UNK N   1      31.625  24.840  -6.226  0.00  0.00     0.237 C 
BRANCH   3   4
HETATM    4  N   UNK N   1      30.858  23.815  -6.970  0.00  0.00    -0.062 N 
HETATM    5  C   UNK N   1      29.774  24.467  -7.691  0.00  0.00     0.273 C 
HETATM    6  C   UNK N   1      31.673  23.137  -7.975  0.00  0.00     0.273 C 
BRANCH   4   7
HETATM    7  C   UNK N   1      30.313  22.763  -6.071  0.00  0.00     0.257 A 
HETATM    8  C   UNK N   1      29.352  23.253  -4.989  0.00  0.00    -0.012 A 
HETATM    9  C   UNK N   1      29.806  22.951  -3.721  0.00  0.00    -0.017 A 
HETATM   10  C   UNK N   1      28.116  23.882  -5.164  0.00  0.00     0.010 A 
HETATM   11  C   UNK N   1      29.073  23.264  -2.577  0.00  0.00     0.013 A 
HETATM   12  C   UNK N   1      31.061  22.271  -3.831  0.00  0.00    -0.017 A 
HETATM   13  C   UNK N   1      27.835  23.903  -2.739  0.00  0.00     0.001 A 
HETATM   14  C   UNK N   1      27.357  24.211  -4.028  0.00  0.00     0.001 A 
HETATM   15  C   UNK N   1      31.375  22.135  -5.167  0.00  0.00    -0.012 A 
HETATM   16  C   UNK N   1      31.885  21.774  -2.824  0.00  0.00     0.013 A 
HETATM   17  C   UNK N   1      32.542  21.475  -5.556  0.00  0.00     0.010 A 
HETATM   18  C   UNK N   1      33.392  20.965  -4.560  0.00  0.00     0.001 A 
HETATM   19  C   UNK N   1      33.068  21.118  -3.198  0.00  0.00     0.001 A 
ENDBRANCH   4   7
ENDBRANCH   3   4
ENDBRANCH   2   3
ENDBRANCH   1   2
BRANCH   1  20
HETATM   20  C   UNK N   1      30.614  26.648  -4.406  0.00  0.00     0.002 C 
BRANCH  20  21
HETATM   21  C   UNK N   1      29.989  27.676  -3.473  0.00  0.00     0.028 C 
BRANCH  21  22
HETATM   22  C   UNK N   1      28.505  27.850  -3.804  0.00  0.00     0.237 C 
BRANCH  22  23
HETATM   23  N   UNK N   1      28.075  29.249  -3.959  0.00  0.00    -0.062 N 
HETATM   24  C   UNK N   1      29.217  30.155  -3.822  0.00  0.00     0.273 C 
HETATM   25  C   UNK N   1      27.114  29.547  -2.904  0.00  0.00     0.273 C 
BRANCH  23  26
HETATM   26  C   UNK N   1      27.415  29.391  -5.283  0.00  0.00     0.257 A 
HETATM   27  C   UNK N   1      28.383  29.463  -6.466  0.00  0.00    -0.012 A 
HETATM   28  C   UNK N   1      28.167  28.444  -7.373  0.00  0.00    -0.017 A 
HETATM   29  C   UNK N   1      29.378  30.416  -6.700  0.00  0.00     0.010 A 
HETATM   30  C   UNK N   1      28.923  28.316  -8.536  0.00  0.00     0.013 A 
HETATM   31  C   UNK N   1      27.089  27.631  -6.902  0.00  0.00    -0.017 A 
HETATM   32  C   UNK N   1      29.931  29.261  -8.779  0.00  0.00     0.001 A 
HETATM   33  C   UNK N   1      30.157  30.308  -7.864  0.00  0.00     0.001 A 
HETATM   34  C   UNK N   1      26.632  28.147  -5.708  0.00  0.00    -0.012 A 
HETATM   35  C   UNK N   1      26.523  26.497  -7.483  0.00  0.00     0.013 A 
HETATM   36  C   UNK N   1      25.570  27.540  -5.037  0.00  0.00     0.010 A 
HETATM   37  C   UNK N   1      24.989  26.390  -5.593  0.00  0.00     0.001 A 
HETATM   38  C   UNK N   1      25.461  25.872  -6.814  0.00  0.00     0.001 A 
ENDBRANCH  23  26
ENDBRANCH  22  23
ENDBRANCH  21  22
ENDBRANCH  20  21
ENDBRANCH   1  20
TORSDOF 9
ENDMDL
MODEL 7
REMARK VINA RESULT:      -6.2      1.740      3.961
REMARK  9 active torsions:
REMARK  status: ('A' for Active; 'I' for Inactive)
REMARK    1  A    between atoms: N_12  and  C_1 
REMARK    2  A    between atoms: C_2  and  N_11 
REMARK    3  A    between atoms: N_11  and  C_22 
REMARK    4  A    between atoms: C_21  and  N_12 
REMARK    5  A    between atoms: C_28  and  C_21 
REMARK    6  A    between atoms: C_22  and  C_27 
REMARK    7  A    between atoms: C_27  and  C_34 
REMARK    8  A    between atoms: C_33  and  C_28 
REMARK    9  A    between atoms: C_34  and  C_33 
ROOT
HETATM    1  C   UNK N   1      30.238  26.538  -4.681  0.00  0.00     0.002 C 
ENDROOT
BRANCH   1   2
HETATM    2  C   UNK N   1      29.982  27.667  -3.692  0.00  0.00     0.028 C 
BRANCH   2   3
HETATM    3  C   UNK N   1      28.489  28.017  -3.543  0.00  0.00     0.237 C 
BRANCH   3   4
HETATM    4  N   UNK N   1      28.120  29.411  -3.876  0.00  0.00    -0.062 N 
HETATM    5  C   UNK N   1      27.272  29.941  -2.817  0.00  0.00     0.273 C 
HETATM    6  C   UNK N   1      29.286  30.288  -3.949  0.00  0.00     0.273 C 
BRANCH   4   7
HETATM    7  C   UNK N   1      27.422  29.507  -5.186  0.00  0.00     0.257 A 
HETATM    8  C   UNK N   1      26.632  28.268  -5.604  0.00  0.00    -0.012 A 
HETATM    9  C   UNK N   1      27.078  27.753  -6.805  0.00  0.00    -0.017 A 
HETATM   10  C   UNK N   1      25.539  27.690  -4.953  0.00  0.00     0.010 A 
HETATM   11  C   UNK N   1      26.480  26.646  -7.405  0.00  0.00     0.013 A 
HETATM   12  C   UNK N   1      28.167  28.556  -7.274  0.00  0.00    -0.017 A 
HETATM   13  C   UNK N   1      25.386  26.053  -6.756  0.00  0.00     0.001 A 
HETATM   14  C   UNK N   1      24.917  26.573  -5.535  0.00  0.00     0.001 A 
HETATM   15  C   UNK N   1      28.381  29.580  -6.375  0.00  0.00    -0.012 A 
HETATM   16  C   UNK N   1      28.924  28.422  -8.436  0.00  0.00     0.013 A 
HETATM   17  C   UNK N   1      29.373  30.532  -6.611  0.00  0.00     0.010 A 
HETATM   18  C   UNK N   1      30.153  30.420  -7.775  0.00  0.00     0.001 A 
HETATM   19  C   UNK N   1      29.933  29.365  -8.682  0.00  0.00     0.001 A 
ENDBRANCH   4   7
ENDBRANCH   3   4
ENDBRANCH   2   3
ENDBRANCH   1   2
BRANCH   1  20
HETATM   20  C   UNK N   1      31.125  26.987  -5.840  0.00  0.00     0.002 C 
BRANCH  20  21
HETATM   21  C   UNK N   1      31.167  25.955  -6.959  0.00  0.00     0.028 C 
BRANCH  21  22
HETATM   22  C   UNK N   1      31.412  24.561  -6.376  0.00  0.00     0.237 C 
BRANCH  22  23
HETATM   23  N   UNK N   1      30.774  23.467  -7.125  0.00  0.00    -0.062 N 
HETATM   24  C   UNK N   1      31.723  22.864  -8.062  0.00  0.00     0.273 C 
HETATM   25  C   UNK N   1      29.661  24.026  -7.883  0.00  0.00     0.273 C 
BRANCH  23  26
HETATM   26  C   UNK N   1      30.256  22.473  -6.148  0.00  0.00     0.257 A 
HETATM   27  C   UNK N   1      31.303  21.956  -5.159  0.00  0.00    -0.012 A 
HETATM   28  C   UNK N   1      30.952  22.219  -3.850  0.00  0.00    -0.017 A 
HETATM   29  C   UNK N   1      32.488  21.271  -5.447  0.00  0.00     0.010 A 
HETATM   30  C   UNK N   1      31.749  21.830  -2.776  0.00  0.00     0.013 A 
HETATM   31  C   UNK N   1      29.698  22.907  -3.841  0.00  0.00    -0.017 A 
HETATM   32  C   UNK N   1      32.944  21.148  -3.052  0.00  0.00     0.001 A 
HETATM   33  C   UNK N   1      33.312  20.869  -4.383  0.00  0.00     0.001 A 
HETATM   34  C   UNK N   1      29.269  23.066  -5.142  0.00  0.00    -0.012 A 
HETATM   35  C   UNK N   1      28.957  23.372  -2.756  0.00  0.00     0.013 A 
HETATM   36  C   UNK N   1      28.059  23.705  -5.413  0.00  0.00     0.010 A 
HETATM   37  C   UNK N   1      27.297  24.192  -4.339  0.00  0.00     0.001 A 
HETATM   38  C   UNK N   1      27.742  24.024  -3.015  0.00  0.00     0.001 A 
ENDBRANCH  23  26
ENDBRANCH  22  23
ENDBRANCH  21  22
ENDBRANCH  20  21
ENDBRANCH   1  20
TORSDOF 9
ENDMDL
MODEL 8
REMARK VINA RESULT:      -6.2      1.516      4.113
REMARK  9 active torsions:
REMARK  status: ('A' for Active; 'I' for Inactive)
REMARK    1  A    between atoms: N_12  and  C_1 
REMARK    2  A    between atoms: C_2  and  N_11 
REMARK    3  A    between atoms: N_11  and  C_22 
REMARK    4  A    between atoms: C_21  and  N_12 
REMARK    5  A    between atoms: C_28  and  C_21 
REMARK    6  A    between atoms: C_22  and  C_27 
REMARK    7  A    between atoms: C_27  and  C_34 
REMARK    8  A    between atoms: C_33  and  C_28 
REMARK    9  A    between atoms: C_34  and  C_33 
ROOT
HETATM    1  C   UNK N   1      28.591  22.408  -6.477  0.00  0.00     0.002 C 
ENDROOT
BRANCH   1   2
HETATM    2  C   UNK N   1      28.372  23.247  -7.728  0.00  0.00     0.028 C 
BRANCH   2   3
HETATM    3  C   UNK N   1      27.980  24.705  -7.421  0.00  0.00     0.237 C 
BRANCH   3   4
HETATM    4  N   UNK N   1      26.584  25.077  -7.743  0.00  0.00    -0.062 N 
HETATM    5  C   UNK N   1      26.196  24.423  -8.986  0.00  0.00     0.273 C 
HETATM    6  C   UNK N   1      25.642  24.620  -6.725  0.00  0.00     0.273 C 
BRANCH   4   7
HETATM    7  C   UNK N   1      26.411  26.548  -7.866  0.00  0.00     0.257 A 
HETATM    8  C   UNK N   1      27.624  27.313  -8.395  0.00  0.00    -0.012 A 
HETATM    9  C   UNK N   1      28.068  28.262  -7.497  0.00  0.00    -0.017 A 
HETATM   10  C   UNK N   1      28.239  27.183  -9.644  0.00  0.00     0.010 A 
HETATM   11  C   UNK N   1      29.138  29.109  -7.782  0.00  0.00     0.013 A 
HETATM   12  C   UNK N   1      27.238  28.216  -6.331  0.00  0.00    -0.017 A 
HETATM   13  C   UNK N   1      29.768  28.983  -9.029  0.00  0.00     0.001 A 
HETATM   14  C   UNK N   1      29.320  28.023  -9.957  0.00  0.00     0.001 A 
HETATM   15  C   UNK N   1      26.269  27.252  -6.515  0.00  0.00    -0.012 A 
HETATM   16  C   UNK N   1      27.305  28.985  -5.171  0.00  0.00     0.013 A 
HETATM   17  C   UNK N   1      25.305  27.023  -5.533  0.00  0.00     0.010 A 
HETATM   18  C   UNK N   1      25.349  27.784  -4.353  0.00  0.00     0.001 A 
HETATM   19  C   UNK N   1      26.349  28.759  -4.170  0.00  0.00     0.001 A 
ENDBRANCH   4   7
ENDBRANCH   3   4
ENDBRANCH   2   3
ENDBRANCH   1   2
BRANCH   1  20
HETATM   20  C   UNK N   1      29.315  21.100  -6.789  0.00  0.00     0.002 C 
BRANCH  20  21
HETATM   21  C   UNK N   1      30.499  20.868  -5.859  0.00  0.00     0.028 C 
BRANCH  21  22
HETATM   22  C   UNK N   1      31.179  22.201  -5.536  0.00  0.00     0.237 C 
BRANCH  22  23
HETATM   23  N   UNK N   1      31.794  22.262  -4.201  0.00  0.00    -0.062 N 
HETATM   24  C   UNK N   1      33.233  22.006  -4.286  0.00  0.00     0.273 C 
HETATM   25  C   UNK N   1      31.185  21.228  -3.373  0.00  0.00     0.273 C 
BRANCH  23  26
HETATM   26  C   UNK N   1      31.506  23.598  -3.615  0.00  0.00     0.257 A 
HETATM   27  C   UNK N   1      31.819  24.774  -4.542  0.00  0.00    -0.012 A 
HETATM   28  C   UNK N   1      30.701  25.542  -4.798  0.00  0.00    -0.017 A 
HETATM   29  C   UNK N   1      33.056  25.123  -5.093  0.00  0.00     0.010 A 
HETATM   30  C   UNK N   1      30.749  26.674  -5.609  0.00  0.00     0.013 A 
HETATM   31  C   UNK N   1      29.586  24.977  -4.103  0.00  0.00    -0.017 A 
HETATM   32  C   UNK N   1      31.983  27.031  -6.175  0.00  0.00     0.001 A 
HETATM   33  C   UNK N   1      33.132  26.258  -5.917  0.00  0.00     0.001 A 
HETATM   34  C   UNK N   1      30.013  23.863  -3.411  0.00  0.00    -0.012 A 
HETATM   35  C   UNK N   1      28.262  25.409  -4.065  0.00  0.00     0.013 A 
HETATM   36  C   UNK N   1      29.116  23.125  -2.638  0.00  0.00     0.010 A 
HETATM   37  C   UNK N   1      27.773  23.532  -2.591  0.00  0.00     0.001 A 
HETATM   38  C   UNK N   1      27.348  24.672  -3.298  0.00  0.00     0.001 A 
ENDBRANCH  23  26
ENDBRANCH  22  23
ENDBRANCH  21  22
ENDBRANCH  20  21
ENDBRANCH   1  20
TORSDOF 9
ENDMDL
MODEL 9
REMARK VINA RESULT:      -6.2      1.001      2.898
REMARK  9 active torsions:
REMARK  status: ('A' for Active; 'I' for Inactive)
REMARK    1  A    between atoms: N_12  and  C_1 
REMARK    2  A    between atoms: C_2  and  N_11 
REMARK    3  A    between atoms: N_11  and  C_22 
REMARK    4  A    between atoms: C_21  and  N_12 
REMARK    5  A    between atoms: C_28  and  C_21 
REMARK    6  A    between atoms: C_22  and  C_27 
REMARK    7  A    between atoms: C_27  and  C_34 
REMARK    8  A    between atoms: C_33  and  C_28 
REMARK    9  A    between atoms: C_34  and  C_33 
ROOT
HETATM    1  C   UNK N   1      32.185  25.560  -6.017  0.00  0.00     0.002 C 
ENDROOT
BRANCH   1   2
HETATM    2  C   UNK N   1      31.308  26.738  -5.618  0.00  0.00     0.028 C 
BRANCH   2   3
HETATM    3  C   UNK N   1      30.254  27.099  -6.682  0.00  0.00     0.237 C 
BRANCH   3   4
HETATM    4  N   UNK N   1      29.936  28.540  -6.808  0.00  0.00    -0.062 N 
HETATM    5  C   UNK N   1      30.291  29.212  -5.566  0.00  0.00     0.273 C 
HETATM    6  C   UNK N   1      30.710  29.186  -7.864  0.00  0.00     0.273 C 
BRANCH   4   7
HETATM    7  C   UNK N   1      28.500  28.770  -7.120  0.00  0.00     0.257 A 
HETATM    8  C   UNK N   1      27.550  28.723  -5.924  0.00  0.00    -0.012 A 
HETATM    9  C   UNK N   1      26.582  27.750  -6.072  0.00  0.00    -0.017 A 
HETATM   10  C   UNK N   1      27.541  29.560  -4.805  0.00  0.00     0.010 A 
HETATM   11  C   UNK N   1      25.580  27.551  -5.124  0.00  0.00     0.013 A 
HETATM   12  C   UNK N   1      26.792  27.077  -7.318  0.00  0.00    -0.017 A 
HETATM   13  C   UNK N   1      25.566  28.379  -3.992  0.00  0.00     0.001 A 
HETATM   14  C   UNK N   1      26.543  29.381  -3.833  0.00  0.00     0.001 A 
HETATM   15  C   UNK N   1      27.878  27.647  -7.951  0.00  0.00    -0.012 A 
HETATM   16  C   UNK N   1      26.068  26.034  -7.890  0.00  0.00     0.013 A 
HETATM   17  C   UNK N   1      28.281  27.194  -9.208  0.00  0.00     0.010 A 
HETATM   18  C   UNK N   1      27.568  26.142  -9.807  0.00  0.00     0.001 A 
HETATM   19  C   UNK N   1      26.468  25.560  -9.148  0.00  0.00     0.001 A 
ENDBRANCH   4   7
ENDBRANCH   3   4
ENDBRANCH   2   3
ENDBRANCH   1   2
BRANCH   1  20
HETATM   20  C   UNK N   1      32.367  24.570  -4.868  0.00  0.00     0.002 C 
BRANCH  20  21
HETATM   21  C   UNK N   1      31.986  23.152  -5.271  0.00  0.00     0.028 C 
BRANCH  21  22
HETATM   22  C   UNK N   1      31.197  23.175  -6.583  0.00  0.00     0.237 C 
BRANCH  22  23
HETATM   23  N   UNK N   1      29.970  22.361  -6.570  0.00  0.00    -0.062 N 
HETATM   24  C   UNK N   1      29.798  21.713  -5.268  0.00  0.00     0.273 C 
HETATM   25  C   UNK N   1      30.101  21.329  -7.591  0.00  0.00     0.273 C 
BRANCH  23  26
HETATM   26  C   UNK N   1      28.822  23.243  -6.903  0.00  0.00     0.257 A 
HETATM   27  C   UNK N   1      27.614  22.511  -7.490  0.00  0.00    -0.012 A 
HETATM   28  C   UNK N   1      26.480  22.683  -6.721  0.00  0.00    -0.017 A 
HETATM   29  C   UNK N   1      27.559  21.756  -8.665  0.00  0.00     0.010 A 
HETATM   30  C   UNK N   1      25.256  22.117  -7.068  0.00  0.00     0.013 A 
HETATM   31  C   UNK N   1      26.808  23.506  -5.597  0.00  0.00    -0.017 A 
HETATM   32  C   UNK N   1      25.189  21.350  -8.241  0.00  0.00     0.001 A 
HETATM   33  C   UNK N   1      26.338  21.170  -9.037  0.00  0.00     0.001 A 
HETATM   34  C   UNK N   1      28.143  23.847  -5.672  0.00  0.00    -0.012 A 
HETATM   35  C   UNK N   1      25.990  23.944  -4.558  0.00  0.00     0.013 A 
HETATM   36  C   UNK N   1      28.719  24.658  -4.694  0.00  0.00     0.010 A 
HETATM   37  C   UNK N   1      27.920  25.105  -3.630  0.00  0.00     0.001 A 
HETATM   38  C   UNK N   1      26.559  24.752  -3.563  0.00  0.00     0.001 A 
ENDBRANCH  23  26
ENDBRANCH  22  23
ENDBRANCH  21  22
ENDBRANCH  20  21
ENDBRANCH   1  20
TORSDOF 9
ENDMDL
