MODEL 1
REMARK VINA RESULT:      -5.0      0.000      0.000
REMARK  6 active torsions:
REMARK  status: ('A' for Active; 'I' for Inactive)
REMARK    1  A    between atoms: C_7  and  O_2 
REMARK    2  A    between atoms: C_6  and  O_3 
REMARK    3  A    between atoms: O_8  and  C_9 
REMARK    4  A    between atoms: C_9  and  C_10 
REMARK    5  A    between atoms: C_12  and  C_10 
REMARK    6  A    between atoms: C_10  and  O_11 
ROOT
HETATM    1  O   UNK N   1      34.633  17.477   9.678  0.00  0.00    -0.301 OA
HETATM    2  C   UNK N   1      34.789  18.170   8.536  0.00  0.00     0.320 A 
HETATM    3  O   UNK N   1      35.278  19.286   8.478  0.00  0.00    -0.257 OA
HETATM    4  C   UNK N   1      34.300  17.411   7.428  0.00  0.00     0.173 A 
HETATM    5  C   UNK N   1      33.861  16.272   7.914  0.00  0.00     0.114 A 
HETATM    6  C   UNK N   1      34.053  16.234   9.421  0.00  0.00     0.222 A 
ENDROOT
BRANCH   6   7
HETATM    7  C   UNK N   1      35.001  15.109   9.857  0.00  0.00     0.177 C 
BRANCH   7   8
HETATM    8  C   UNK N   1      35.792  15.450  11.119  0.00  0.00     0.198 C 
BRANCH   8   9
HETATM    9  O   UNK N   1      36.974  16.123  10.805  0.00  0.00    -0.398 OA
HETATM   10  H   UNK N   1      37.866  16.125  10.426  0.00  0.00     0.209 HD
ENDBRANCH   8   9
ENDBRANCH   7   8
BRANCH   7  11
HETATM   11  O   UNK N   1      35.877  14.792   8.817  0.00  0.00    -0.390 OA
HETATM   12  H   UNK N   1      36.081  15.395   8.086  0.00  0.00     0.210 HD
ENDBRANCH   7  11
ENDBRANCH   6   7
BRANCH   5  13
HETATM   13  O   UNK N   1      33.314  15.290   7.171  0.00  0.00    -0.359 OA
HETATM   14  H   UNK N   1      32.701  14.688   7.545  0.00  0.00     0.217 HD
ENDBRANCH   5  13
BRANCH   4  15
HETATM   15  O   UNK N   1      34.283  17.780   6.133  0.00  0.00    -0.353 OA
HETATM   16  H   UNK N   1      33.511  17.760   5.603  0.00  0.00     0.218 HD
ENDBRANCH   4  15
TORSDOF 6
ENDMDL
MODEL 2
REMARK VINA RESULT:      -5.0      1.674      3.545
REMARK  6 active torsions:
REMARK  status: ('A' for Active; 'I' for Inactive)
REMARK    1  A    between atoms: C_7  and  O_2 
REMARK    2  A    between atoms: C_6  and  O_3 
REMARK    3  A    between atoms: O_8  and  C_9 
REMARK    4  A    between atoms: C_9  and  C_10 
REMARK    5  A    between atoms: C_12  and  C_10 
REMARK    6  A    between atoms: C_10  and  O_11 
ROOT
HETATM    1  O   UNK N   1      33.601  16.151   7.171  0.00  0.00    -0.301 OA
HETATM    2  C   UNK N   1      34.105  17.387   7.009  0.00  0.00     0.320 A 
HETATM    3  O   UNK N   1      34.146  17.972   5.940  0.00  0.00    -0.257 OA
HETATM    4  C   UNK N   1      34.577  17.895   8.260  0.00  0.00     0.173 A 
HETATM    5  C   UNK N   1      34.347  16.963   9.157  0.00  0.00     0.114 A 
HETATM    6  C   UNK N   1      33.688  15.757   8.507  0.00  0.00     0.222 A 
ENDROOT
BRANCH   6   7
HETATM    7  C   UNK N   1      32.287  15.489   9.070  0.00  0.00     0.177 C 
BRANCH   7   8
HETATM    8  C   UNK N   1      31.298  16.616   8.777  0.00  0.00     0.198 C 
BRANCH   8   9
HETATM    9  O   UNK N   1      30.712  16.456   7.520  0.00  0.00    -0.398 OA
HETATM   10  H   UNK N   1      30.235  16.825   6.760  0.00  0.00     0.209 HD
ENDBRANCH   8   9
ENDBRANCH   7   8
BRANCH   7  11
HETATM   11  O   UNK N   1      32.359  15.265  10.447  0.00  0.00    -0.390 OA
HETATM   12  H   UNK N   1      32.951  14.614  10.853  0.00  0.00     0.210 HD
ENDBRANCH   7  11
ENDBRANCH   6   7
BRANCH   5  13
HETATM   13  O   UNK N   1      34.664  17.071  10.462  0.00  0.00    -0.359 OA
HETATM   14  H   UNK N   1      35.558  17.136  10.737  0.00  0.00     0.217 HD
ENDBRANCH   5  13
BRANCH   4  15
HETATM   15  O   UNK N   1      35.149  19.092   8.488  0.00  0.00    -0.353 OA
HETATM   16  H   UNK N   1      35.448  19.657   7.804  0.00  0.00     0.218 HD
ENDBRANCH   4  15
TORSDOF 6
ENDMDL
MODEL 3
REMARK VINA RESULT:      -4.9     13.855     15.146
REMARK  6 active torsions:
REMARK  status: ('A' for Active; 'I' for Inactive)
REMARK    1  A    between atoms: C_7  and  O_2 
REMARK    2  A    between atoms: C_6  and  O_3 
REMARK    3  A    between atoms: O_8  and  C_9 
REMARK    4  A    between atoms: C_9  and  C_10 
REMARK    5  A    between atoms: C_12  and  C_10 
REMARK    6  A    between atoms: C_10  and  O_11 
ROOT
HETATM    1  O   UNK N   1      21.140  20.004   3.901  0.00  0.00    -0.301 OA
HETATM    2  C   UNK N   1      21.397  20.524   2.687  0.00  0.00     0.320 A 
HETATM    3  O   UNK N   1      22.103  21.502   2.501  0.00  0.00    -0.257 OA
HETATM    4  C   UNK N   1      20.728  19.769   1.674  0.00  0.00     0.173 A 
HETATM    5  C   UNK N   1      20.081  18.804   2.288  0.00  0.00     0.114 A 
HETATM    6  C   UNK N   1      20.309  18.888   3.789  0.00  0.00     0.222 A 
ENDROOT
BRANCH   6   7
HETATM    7  C   UNK N   1      21.019  17.645   4.338  0.00  0.00     0.177 C 
BRANCH   7   8
HETATM    8  C   UNK N   1      22.028  17.970   5.438  0.00  0.00     0.198 C 
BRANCH   8   9
HETATM    9  O   UNK N   1      21.406  18.589   6.524  0.00  0.00    -0.398 OA
HETATM   10  H   UNK N   1      20.751  19.211   6.876  0.00  0.00     0.209 HD
ENDBRANCH   8   9
ENDBRANCH   7   8
BRANCH   7  11
HETATM   11  O   UNK N   1      21.652  16.957   3.300  0.00  0.00    -0.390 OA
HETATM   12  H   UNK N   1      22.219  16.182   3.438  0.00  0.00     0.210 HD
ENDBRANCH   7  11
ENDBRANCH   6   7
BRANCH   5  13
HETATM   13  O   UNK N   1      19.320  17.883   1.664  0.00  0.00    -0.359 OA
HETATM   14  H   UNK N   1      19.597  17.498   0.856  0.00  0.00     0.217 HD
ENDBRANCH   5  13
BRANCH   4  15
HETATM   15  O   UNK N   1      20.746  19.993   0.347  0.00  0.00    -0.353 OA
HETATM   16  H   UNK N   1      19.987  20.243  -0.142  0.00  0.00     0.218 HD
ENDBRANCH   4  15
TORSDOF 6
ENDMDL
MODEL 4
REMARK VINA RESULT:      -4.6      3.300      5.968
REMARK  6 active torsions:
REMARK  status: ('A' for Active; 'I' for Inactive)
REMARK    1  A    between atoms: C_7  and  O_2 
REMARK    2  A    between atoms: C_6  and  O_3 
REMARK    3  A    between atoms: O_8  and  C_9 
REMARK    4  A    between atoms: C_9  and  C_10 
REMARK    5  A    between atoms: C_12  and  C_10 
REMARK    6  A    between atoms: C_10  and  O_11 
ROOT
HETATM    1  O   UNK N   1      35.122  14.059  13.439  0.00  0.00    -0.301 OA
HETATM    2  C   UNK N   1      35.093  12.721  13.298  0.00  0.00     0.320 A 
HETATM    3  O   UNK N   1      34.243  12.002  13.794  0.00  0.00    -0.257 OA
HETATM    4  C   UNK N   1      36.194  12.286  12.495  0.00  0.00     0.173 A 
HETATM    5  C   UNK N   1      36.867  13.364  12.161  0.00  0.00     0.114 A 
HETATM    6  C   UNK N   1      36.209  14.601  12.752  0.00  0.00     0.222 A 
ENDROOT
BRANCH   6   7
HETATM    7  C   UNK N   1      35.718  15.570  11.669  0.00  0.00     0.177 C 
BRANCH   7   8
HETATM    8  C   UNK N   1      34.719  14.933  10.704  0.00  0.00     0.198 C 
BRANCH   8   9
HETATM    9  O   UNK N   1      33.421  14.987  11.216  0.00  0.00    -0.398 OA
HETATM   10  H   UNK N   1      32.753  15.418  11.771  0.00  0.00     0.209 HD
ENDBRANCH   8   9
ENDBRANCH   7   8
BRANCH   7  11
HETATM   11  O   UNK N   1      36.805  16.084  10.958  0.00  0.00    -0.390 OA
HETATM   12  H   UNK N   1      37.003  15.847  10.038  0.00  0.00     0.210 HD
ENDBRANCH   7  11
ENDBRANCH   6   7
BRANCH   5  13
HETATM   13  O   UNK N   1      37.984  13.358  11.407  0.00  0.00    -0.359 OA
HETATM   14  H   UNK N   1      38.520  14.123  11.335  0.00  0.00     0.217 HD
ENDBRANCH   5  13
BRANCH   4  15
HETATM   15  O   UNK N   1      36.496  11.022  12.145  0.00  0.00    -0.353 OA
HETATM   16  H   UNK N   1      36.823  10.788  11.299  0.00  0.00     0.218 HD
ENDBRANCH   4  15
TORSDOF 6
ENDMDL
MODEL 5
REMARK VINA RESULT:      -4.6      1.782      3.876
REMARK  6 active torsions:
REMARK  status: ('A' for Active; 'I' for Inactive)
REMARK    1  A    between atoms: C_7  and  O_2 
REMARK    2  A    between atoms: C_6  and  O_3 
REMARK    3  A    between atoms: O_8  and  C_9 
REMARK    4  A    between atoms: C_9  and  C_10 
REMARK    5  A    between atoms: C_12  and  C_10 
REMARK    6  A    between atoms: C_10  and  O_11 
ROOT
HETATM    1  O   UNK N   1      35.101  16.375   8.968  0.00  0.00    -0.301 OA
HETATM    2  C   UNK N   1      35.363  15.956  10.219  0.00  0.00     0.320 A 
HETATM    3  O   UNK N   1      36.340  16.300  10.862  0.00  0.00    -0.257 OA
HETATM    4  C   UNK N   1      34.339  15.063  10.664  0.00  0.00     0.173 A 
HETATM    5  C   UNK N   1      33.474  14.959   9.680  0.00  0.00     0.114 A 
HETATM    6  C   UNK N   1      33.910  15.814   8.502  0.00  0.00     0.222 A 
ENDROOT
BRANCH   6   7
HETATM    7  C   UNK N   1      32.897  16.920   8.181  0.00  0.00     0.177 C 
BRANCH   7   8
HETATM    8  C   UNK N   1      33.554  18.272   7.909  0.00  0.00     0.198 C 
BRANCH   8   9
HETATM    9  O   UNK N   1      34.493  18.176   6.880  0.00  0.00    -0.398 OA
HETATM   10  H   UNK N   1      34.763  18.359   5.967  0.00  0.00     0.209 HD
ENDBRANCH   8   9
ENDBRANCH   7   8
BRANCH   7  11
HETATM   11  O   UNK N   1      31.974  17.041   9.223  0.00  0.00    -0.390 OA
HETATM   12  H   UNK N   1      31.070  17.368   9.100  0.00  0.00     0.210 HD
ENDBRANCH   7  11
ENDBRANCH   6   7
BRANCH   5  13
HETATM   13  O   UNK N   1      32.366  14.192   9.722  0.00  0.00    -0.359 OA
HETATM   14  H   UNK N   1      32.193  13.560   9.052  0.00  0.00     0.217 HD
ENDBRANCH   5  13
BRANCH   4  15
HETATM   15  O   UNK N   1      34.263  14.440  11.856  0.00  0.00    -0.353 OA
HETATM   16  H   UNK N   1      34.054  14.883  12.654  0.00  0.00     0.218 HD
ENDBRANCH   4  15
TORSDOF 6
ENDMDL
MODEL 6
REMARK VINA RESULT:      -4.5     10.048     11.331
REMARK  6 active torsions:
REMARK  status: ('A' for Active; 'I' for Inactive)
REMARK    1  A    between atoms: C_7  and  O_2 
REMARK    2  A    between atoms: C_6  and  O_3 
REMARK    3  A    between atoms: O_8  and  C_9 
REMARK    4  A    between atoms: C_9  and  C_10 
REMARK    5  A    between atoms: C_12  and  C_10 
REMARK    6  A    between atoms: C_10  and  O_11 
ROOT
HETATM    1  O   UNK N   1      43.019  20.496   2.581  0.00  0.00    -0.301 OA
HETATM    2  C   UNK N   1      41.756  20.157   2.895  0.00  0.00     0.320 A 
HETATM    3  O   UNK N   1      41.437  19.078   3.366  0.00  0.00    -0.257 OA
HETATM    4  C   UNK N   1      40.867  21.236   2.595  0.00  0.00     0.173 A 
HETATM    5  C   UNK N   1      41.604  22.209   2.109  0.00  0.00     0.114 A 
HETATM    6  C   UNK N   1      43.065  21.794   2.070  0.00  0.00     0.222 A 
ENDROOT
BRANCH   6   7
HETATM    7  C   UNK N   1      43.944  22.681   2.961  0.00  0.00     0.177 C 
BRANCH   7   8
HETATM    8  C   UNK N   1      44.690  21.893   4.037  0.00  0.00     0.198 C 
BRANCH   8   9
HETATM    9  O   UNK N   1      45.948  22.448   4.285  0.00  0.00    -0.398 OA
HETATM   10  H   UNK N   1      46.913  22.419   4.195  0.00  0.00     0.209 HD
ENDBRANCH   8   9
ENDBRANCH   7   8
BRANCH   7  11
HETATM   11  O   UNK N   1      43.170  23.681   3.554  0.00  0.00    -0.390 OA
HETATM   12  H   UNK N   1      43.492  24.255   4.266  0.00  0.00     0.210 HD
ENDBRANCH   7  11
ENDBRANCH   6   7
BRANCH   5  13
HETATM   13  O   UNK N   1      41.117  23.398   1.700  0.00  0.00    -0.359 OA
HETATM   14  H   UNK N   1      40.223  23.630   1.853  0.00  0.00     0.217 HD
ENDBRANCH   5  13
BRANCH   4  15
HETATM   15  O   UNK N   1      39.532  21.262   2.769  0.00  0.00    -0.353 OA
HETATM   16  H   UNK N   1      39.125  21.382   3.604  0.00  0.00     0.218 HD
ENDBRANCH   4  15
TORSDOF 6
ENDMDL
MODEL 7
REMARK VINA RESULT:      -4.4      1.685      4.337
REMARK  6 active torsions:
REMARK  status: ('A' for Active; 'I' for Inactive)
REMARK    1  A    between atoms: C_7  and  O_2 
REMARK    2  A    between atoms: C_6  and  O_3 
REMARK    3  A    between atoms: O_8  and  C_9 
REMARK    4  A    between atoms: C_9  and  C_10 
REMARK    5  A    between atoms: C_12  and  C_10 
REMARK    6  A    between atoms: C_10  and  O_11 
ROOT
HETATM    1  O   UNK N   1      32.718  16.559   8.474  0.00  0.00    -0.301 OA
HETATM    2  C   UNK N   1      33.633  16.106   9.350  0.00  0.00     0.320 A 
HETATM    3  O   UNK N   1      33.528  15.059   9.966  0.00  0.00    -0.257 OA
HETATM    4  C   UNK N   1      34.722  17.028   9.445  0.00  0.00     0.173 A 
HETATM    5  C   UNK N   1      34.452  18.018   8.625  0.00  0.00     0.114 A 
HETATM    6  C   UNK N   1      33.123  17.778   7.928  0.00  0.00     0.222 A 
ENDROOT
BRANCH   6   7
HETATM    7  C   UNK N   1      33.280  17.649   6.408  0.00  0.00     0.177 C 
BRANCH   7   8
HETATM    8  C   UNK N   1      32.359  16.591   5.800  0.00  0.00     0.198 C 
BRANCH   8   9
HETATM    9  O   UNK N   1      31.019  16.882   6.062  0.00  0.00    -0.398 OA
HETATM   10  H   UNK N   1      30.086  16.618   6.067  0.00  0.00     0.209 HD
ENDBRANCH   8   9
ENDBRANCH   7   8
BRANCH   7  11
HETATM   11  O   UNK N   1      34.609  17.364   6.086  0.00  0.00    -0.390 OA
HETATM   12  H   UNK N   1      35.172  17.957   5.565  0.00  0.00     0.210 HD
ENDBRANCH   7  11
ENDBRANCH   6   7
BRANCH   5  13
HETATM   13  O   UNK N   1      35.247  19.092   8.443  0.00  0.00    -0.359 OA
HETATM   14  H   UNK N   1      35.562  19.586   9.174  0.00  0.00     0.217 HD
ENDBRANCH   5  13
BRANCH   4  15
HETATM   15  O   UNK N   1      35.816  16.917  10.222  0.00  0.00    -0.353 OA
HETATM   16  H   UNK N   1      35.813  16.490  11.056  0.00  0.00     0.218 HD
ENDBRANCH   4  15
TORSDOF 6
ENDMDL
MODEL 8
REMARK VINA RESULT:      -4.4      2.360      3.977
REMARK  6 active torsions:
REMARK  status: ('A' for Active; 'I' for Inactive)
REMARK    1  A    between atoms: C_7  and  O_2 
REMARK    2  A    between atoms: C_6  and  O_3 
REMARK    3  A    between atoms: O_8  and  C_9 
REMARK    4  A    between atoms: C_9  and  C_10 
REMARK    5  A    between atoms: C_12  and  C_10 
REMARK    6  A    between atoms: C_10  and  O_11 
ROOT
HETATM    1  O   UNK N   1      34.687  13.612  10.085  0.00  0.00    -0.301 OA
HETATM    2  C   UNK N   1      34.020  14.779  10.016  0.00  0.00     0.320 A 
HETATM    3  O   UNK N   1      32.831  14.871   9.761  0.00  0.00    -0.257 OA
HETATM    4  C   UNK N   1      34.906  15.869  10.282  0.00  0.00     0.173 A 
HETATM    5  C   UNK N   1      36.091  15.347  10.511  0.00  0.00     0.114 A 
HETATM    6  C   UNK N   1      36.028  13.832  10.402  0.00  0.00     0.222 A 
ENDROOT
BRANCH   6   7
HETATM    7  C   UNK N   1      36.377  13.141  11.726  0.00  0.00     0.177 C 
BRANCH   7   8
HETATM    8  C   UNK N   1      35.604  13.705  12.917  0.00  0.00     0.198 C 
BRANCH   8   9
HETATM    9  O   UNK N   1      34.365  13.075  13.055  0.00  0.00    -0.398 OA
HETATM   10  H   UNK N   1      33.758  12.512  13.561  0.00  0.00     0.209 HD
ENDBRANCH   8   9
ENDBRANCH   7   8
BRANCH   7  11
HETATM   11  O   UNK N   1      37.750  13.230  11.965  0.00  0.00    -0.390 OA
HETATM   12  H   UNK N   1      38.206  14.063  12.161  0.00  0.00     0.210 HD
ENDBRANCH   7  11
ENDBRANCH   6   7
BRANCH   5  13
HETATM   13  O   UNK N   1      37.195  16.065  10.792  0.00  0.00    -0.359 OA
HETATM   14  H   UNK N   1      37.163  16.781  11.396  0.00  0.00     0.217 HD
ENDBRANCH   5  13
BRANCH   4  15
HETATM   15  O   UNK N   1      34.602  17.181  10.296  0.00  0.00    -0.353 OA
HETATM   16  H   UNK N   1      34.773  17.755   9.576  0.00  0.00     0.218 HD
ENDBRANCH   4  15
TORSDOF 6
ENDMDL
MODEL 9
REMARK VINA RESULT:      -4.4      3.540      6.011
REMARK  6 active torsions:
REMARK  status: ('A' for Active; 'I' for Inactive)
REMARK    1  A    between atoms: C_7  and  O_2 
REMARK    2  A    between atoms: C_6  and  O_3 
REMARK    3  A    between atoms: O_8  and  C_9 
REMARK    4  A    between atoms: C_9  and  C_10 
REMARK    5  A    between atoms: C_12  and  C_10 
REMARK    6  A    between atoms: C_10  and  O_11 
ROOT
HETATM    1  O   UNK N   1      36.579  14.323  12.983  0.00  0.00    -0.301 OA
HETATM    2  C   UNK N   1      36.196  13.867  14.188  0.00  0.00     0.320 A 
HETATM    3  O   UNK N   1      36.620  14.298  15.247  0.00  0.00    -0.257 OA
HETATM    4  C   UNK N   1      35.234  12.819  14.036  0.00  0.00     0.173 A 
HETATM    5  C   UNK N   1      35.049  12.661  12.745  0.00  0.00     0.114 A 
HETATM    6  C   UNK N   1      35.914  13.638  11.965  0.00  0.00     0.222 A 
ENDROOT
BRANCH   6   7
HETATM    7  C   UNK N   1      35.077  14.616  11.131  0.00  0.00     0.177 C 
BRANCH   7   8
HETATM    8  C   UNK N   1      35.563  16.060  11.237  0.00  0.00     0.198 C 
BRANCH   8   9
HETATM    9  O   UNK N   1      36.896  16.172  10.838  0.00  0.00    -0.398 OA
HETATM   10  H   UNK N   1      37.654  16.718  10.577  0.00  0.00     0.209 HD
ENDBRANCH   8   9
ENDBRANCH   7   8
BRANCH   7  11
HETATM   11  O   UNK N   1      33.733  14.537  11.506  0.00  0.00    -0.390 OA
HETATM   12  H   UNK N   1      33.387  13.868  12.116  0.00  0.00     0.210 HD
ENDBRANCH   7  11
ENDBRANCH   6   7
BRANCH   5  13
HETATM   13  O   UNK N   1      34.214  11.752  12.204  0.00  0.00    -0.359 OA
HETATM   14  H   UNK N   1      34.069  10.925  12.619  0.00  0.00     0.217 HD
ENDBRANCH   5  13
BRANCH   4  15
HETATM   15  O   UNK N   1      34.631  12.120  15.016  0.00  0.00    -0.353 OA
HETATM   16  H   UNK N   1      34.517  11.191  14.988  0.00  0.00     0.218 HD
ENDBRANCH   4  15
TORSDOF 6
ENDMDL
