MODEL 1
REMARK VINA RESULT:      -6.5      0.000      0.000
REMARK  18 active torsions:
REMARK  status: ('A' for Active; 'I' for Inactive)
REMARK    1  A    between atoms: C_14  and  C_6 
REMARK    2  A    between atoms: N_27  and  C_6 
REMARK    3  A    between atoms: O_31  and  C_9 
REMARK    4  A    between atoms: O_34  and  C_9 
REMARK    5  A    between atoms: O_32  and  C_10 
REMARK    6  A    between atoms: O_35  and  C_10 
REMARK    7  A    between atoms: O_33  and  C_11 
REMARK    8  A    between atoms: P_38  and  C_11 
REMARK    9  A    between atoms: O_36  and  C_12 
REMARK   10  A    between atoms: O_37  and  C_13 
REMARK   11  A    between atoms: O_33  and  C_14 
REMARK   12  A    between atoms: N_20  and  C_16 
REMARK   13  A    between atoms: O_31  and  C_18 
REMARK   14  A    between atoms: O_36  and  C_18 
REMARK   15  A    between atoms: O_32  and  C_19 
REMARK   16  A    between atoms: O_37  and  C_19 
REMARK   17  A    between atoms: P_38  and  O_34 
REMARK   18  A    between atoms: P_38  and  O_35 
ROOT
HETATM    1  C   UNK N   1      20.572  16.946   6.478  0.00  0.00     0.300 C 
ENDROOT
BRANCH   1   2
HETATM    2  O   UNK N   1      20.733  17.241   7.847  0.00  0.00    -0.373 OA
BRANCH   2   3
HETATM    3  C   UNK N   1      20.312  16.171   8.687  0.00  0.00     0.136 C 
HETATM    4  C   UNK N   1      18.839  16.398   8.986  0.00  0.00     0.041 C 
BRANCH   3   5
HETATM    5  C   UNK N   1      20.548  14.741   8.129  0.00  0.00     0.163 C 
BRANCH   5   6
HETATM    6  N   UNK N   1      21.787  14.130   8.588  0.00  0.00    -0.325 N 
HETATM    7  C   UNK N   1      23.035  14.233   8.065  0.00  0.00     0.185 A 
HETATM    8  N   UNK N   1      23.938  13.528   8.807  0.00  0.00    -0.346 N 
HETATM    9  C   UNK N   1      23.202  12.984   9.796  0.00  0.00     0.122 A 
ATOM     10  HN  UNK N   1      24.942  13.435   8.650  1.00  0.00     0.167 HD
HETATM   11  C   UNK N   1      23.582  12.171  10.853  0.00  0.00     0.131 A 
HETATM   12  C   UNK N   1      21.914  13.343   9.657  0.00  0.00     0.140 A 
HETATM   13  N   UNK N   1      22.611  11.752  11.719  0.00  0.00    -0.337 N 
HETATM   14  C   UNK N   1      21.300  12.127  11.549  0.00  0.00     0.183 A 
ATOM     15  HN  UNK N   1      22.864  11.151  12.504  1.00  0.00     0.168 HD
HETATM   16  N   UNK N   1      20.941  12.938  10.507  0.00  0.00    -0.336 N 
ATOM     17  HN  UNK N   1      19.973  13.228  10.375  1.00  0.00     0.168 HD
BRANCH  11  18
HETATM   18  N   UNK N   1      24.926  11.789  11.039  0.00  0.00    -0.383 N 
HETATM   19  H   UNK N   1      25.478  11.508  10.275  0.00  0.00     0.157 HD
HETATM   20  H   UNK N   1      25.315  11.803  11.943  0.00  0.00     0.157 HD
ENDBRANCH  11  18
ENDBRANCH   5   6
ENDBRANCH   3   5
ENDBRANCH   2   3
ENDBRANCH   1   2
BRANCH   1  21
HETATM   21  P   UNK N   1      21.723  17.954   5.412  0.00  0.00     0.356 P 
HETATM   22  O   UNK N   1      21.173  18.804   6.588  0.00  0.00    -0.256 OA
BRANCH  21  23
HETATM   23  O   UNK N   1      20.340  17.575   4.422  0.00  0.00    -0.286 OA
BRANCH  23  24
HETATM   24  C   UNK N   1      20.350  16.180   4.301  0.00  0.00     0.360 C 
BRANCH  24  25
HETATM   25  O   UNK N   1      19.764  15.815   3.114  0.00  0.00    -0.272 OA
BRANCH  25  26
HETATM   26  C   UNK N   1      19.643  14.520   2.738  0.00  0.00     0.408 C 
HETATM   27  O   UNK N   1      18.801  13.821   3.282  0.00  0.00    -0.229 OA
BRANCH  26  28
HETATM   28  O   UNK N   1      20.445  14.007   1.760  0.00  0.00    -0.293 OA
BRANCH  28  29
HETATM   29  C   UNK N   1      21.829  13.949   1.814  0.00  0.00     0.126 C 
HETATM   30  C   UNK N   1      22.424  13.371   0.540  0.00  0.00     0.040 C 
HETATM   31  C   UNK N   1      22.308  13.177   3.032  0.00  0.00     0.040 C 
ENDBRANCH  28  29
ENDBRANCH  26  28
ENDBRANCH  25  26
ENDBRANCH  24  25
ENDBRANCH  23  24
ENDBRANCH  21  23
BRANCH  21  32
HETATM   32  O   UNK N   1      21.432  19.491   4.644  0.00  0.00    -0.286 OA
BRANCH  32  33
HETATM   33  C   UNK N   1      22.124  19.437   3.430  0.00  0.00     0.360 C 
BRANCH  33  34
HETATM   34  O   UNK N   1      22.947  20.536   3.324  0.00  0.00    -0.272 OA
BRANCH  34  35
HETATM   35  C   UNK N   1      24.277  20.414   3.095  0.00  0.00     0.408 C 
HETATM   36  O   UNK N   1      24.758  20.781   2.029  0.00  0.00    -0.229 OA
BRANCH  35  37
HETATM   37  O   UNK N   1      25.072  19.923   4.075  0.00  0.00    -0.293 OA
BRANCH  37  38
HETATM   38  C   UNK N   1      26.254  20.531   4.429  0.00  0.00     0.126 C 
HETATM   39  C   UNK N   1      26.285  20.748   5.928  0.00  0.00     0.040 C 
HETATM   40  C   UNK N   1      27.421  19.661   4.019  0.00  0.00     0.040 C 
ENDBRANCH  37  38
ENDBRANCH  35  37
ENDBRANCH  34  35
ENDBRANCH  33  34
ENDBRANCH  32  33
ENDBRANCH  21  32
ENDBRANCH   1  21
TORSDOF 18
ENDMDL
MODEL 2
REMARK VINA RESULT:      -6.3     11.527     14.810
REMARK  18 active torsions:
REMARK  status: ('A' for Active; 'I' for Inactive)
REMARK    1  A    between atoms: C_14  and  C_6 
REMARK    2  A    between atoms: N_27  and  C_6 
REMARK    3  A    between atoms: O_31  and  C_9 
REMARK    4  A    between atoms: O_34  and  C_9 
REMARK    5  A    between atoms: O_32  and  C_10 
REMARK    6  A    between atoms: O_35  and  C_10 
REMARK    7  A    between atoms: O_33  and  C_11 
REMARK    8  A    between atoms: P_38  and  C_11 
REMARK    9  A    between atoms: O_36  and  C_12 
REMARK   10  A    between atoms: O_37  and  C_13 
REMARK   11  A    between atoms: O_33  and  C_14 
REMARK   12  A    between atoms: N_20  and  C_16 
REMARK   13  A    between atoms: O_31  and  C_18 
REMARK   14  A    between atoms: O_36  and  C_18 
REMARK   15  A    between atoms: O_32  and  C_19 
REMARK   16  A    between atoms: O_37  and  C_19 
REMARK   17  A    between atoms: P_38  and  O_34 
REMARK   18  A    between atoms: P_38  and  O_35 
ROOT
HETATM    1  C   UNK N   1      34.582  15.767   9.928  0.00  0.00     0.300 C 
ENDROOT
BRANCH   1   2
HETATM    2  O   UNK N   1      34.503  17.163   9.756  0.00  0.00    -0.373 OA
BRANCH   2   3
HETATM    3  C   UNK N   1      33.551  17.537   8.764  0.00  0.00     0.136 C 
HETATM    4  C   UNK N   1      34.331  18.152   7.614  0.00  0.00     0.041 C 
BRANCH   3   5
HETATM    5  C   UNK N   1      32.624  16.398   8.256  0.00  0.00     0.163 C 
BRANCH   5   6
HETATM    6  N   UNK N   1      31.433  16.876   7.568  0.00  0.00    -0.325 N 
HETATM    7  C   UNK N   1      31.171  16.906   6.237  0.00  0.00     0.185 A 
HETATM    8  N   UNK N   1      29.923  17.405   5.994  0.00  0.00    -0.346 N 
HETATM    9  C   UNK N   1      29.435  17.687   7.217  0.00  0.00     0.122 A 
ATOM     10  HN  UNK N   1      29.465  17.535   5.091  1.00  0.00     0.167 HD
HETATM   11  C   UNK N   1      28.208  18.212   7.594  0.00  0.00     0.131 A 
HETATM   12  C   UNK N   1      30.345  17.373   8.156  0.00  0.00     0.140 A 
HETATM   13  N   UNK N   1      27.975  18.404   8.927  0.00  0.00    -0.337 N 
HETATM   14  C   UNK N   1      28.926  18.082   9.866  0.00  0.00     0.183 A 
ATOM     15  HN  UNK N   1      27.082  18.791   9.230  1.00  0.00     0.168 HD
HETATM   16  N   UNK N   1      30.129  17.555   9.480  0.00  0.00    -0.336 N 
ATOM     17  HN  UNK N   1      30.840  17.306  10.168  1.00  0.00     0.168 HD
BRANCH  11  18
HETATM   18  N   UNK N   1      27.224  18.537   6.639  0.00  0.00    -0.383 N 
HETATM   19  H   UNK N   1      26.310  18.768   6.919  0.00  0.00     0.157 HD
HETATM   20  H   UNK N   1      27.455  18.532   5.682  0.00  0.00     0.157 HD
ENDBRANCH  11  18
ENDBRANCH   5   6
ENDBRANCH   3   5
ENDBRANCH   2   3
ENDBRANCH   1   2
BRANCH   1  21
HETATM   21  P   UNK N   1      35.437  15.312  11.521  0.00  0.00     0.356 P 
HETATM   22  O   UNK N   1      36.457  15.849  10.481  0.00  0.00    -0.256 OA
BRANCH  21  23
HETATM   23  O   UNK N   1      34.824  13.826  10.850  0.00  0.00    -0.286 OA
BRANCH  23  24
HETATM   24  C   UNK N   1      35.132  13.888   9.485  0.00  0.00     0.360 C 
BRANCH  24  25
HETATM   25  O   UNK N   1      35.764  12.731   9.100  0.00  0.00    -0.272 OA
BRANCH  25  26
HETATM   26  C   UNK N   1      36.856  12.738   8.302  0.00  0.00     0.408 C 
HETATM   27  O   UNK N   1      37.565  11.743   8.257  0.00  0.00    -0.229 OA
BRANCH  26  28
HETATM   28  O   UNK N   1      37.157  13.837   7.551  0.00  0.00    -0.293 OA
BRANCH  28  29
HETATM   29  C   UNK N   1      36.911  13.965   6.193  0.00  0.00     0.126 C 
HETATM   30  C   UNK N   1      38.123  14.494   5.442  0.00  0.00     0.040 C 
HETATM   31  C   UNK N   1      35.690  14.832   5.926  0.00  0.00     0.040 C 
ENDBRANCH  28  29
ENDBRANCH  26  28
ENDBRANCH  25  26
ENDBRANCH  24  25
ENDBRANCH  23  24
ENDBRANCH  21  23
BRANCH  21  32
HETATM   32  O   UNK N   1      36.798  14.250  11.764  0.00  0.00    -0.286 OA
BRANCH  32  33
HETATM   33  C   UNK N   1      36.531  13.570  12.956  0.00  0.00     0.360 C 
BRANCH  33  34
HETATM   34  O   UNK N   1      36.359  14.483  13.973  0.00  0.00    -0.272 OA
BRANCH  34  35
HETATM   35  C   UNK N   1      36.851  14.268  15.217  0.00  0.00     0.408 C 
HETATM   36  O   UNK N   1      37.597  15.089  15.739  0.00  0.00    -0.229 OA
BRANCH  35  37
HETATM   37  O   UNK N   1      36.474  13.157  15.893  0.00  0.00    -0.293 OA
BRANCH  37  38
HETATM   38  C   UNK N   1      35.176  12.958  16.305  0.00  0.00     0.126 C 
HETATM   39  C   UNK N   1      34.760  11.533  16.003  0.00  0.00     0.040 C 
HETATM   40  C   UNK N   1      35.067  13.214  17.791  0.00  0.00     0.040 C 
ENDBRANCH  37  38
ENDBRANCH  35  37
ENDBRANCH  34  35
ENDBRANCH  33  34
ENDBRANCH  32  33
ENDBRANCH  21  32
ENDBRANCH   1  21
TORSDOF 18
ENDMDL
MODEL 3
REMARK VINA RESULT:      -6.2     12.120     15.316
REMARK  18 active torsions:
REMARK  status: ('A' for Active; 'I' for Inactive)
REMARK    1  A    between atoms: C_14  and  C_6 
REMARK    2  A    between atoms: N_27  and  C_6 
REMARK    3  A    between atoms: O_31  and  C_9 
REMARK    4  A    between atoms: O_34  and  C_9 
REMARK    5  A    between atoms: O_32  and  C_10 
REMARK    6  A    between atoms: O_35  and  C_10 
REMARK    7  A    between atoms: O_33  and  C_11 
REMARK    8  A    between atoms: P_38  and  C_11 
REMARK    9  A    between atoms: O_36  and  C_12 
REMARK   10  A    between atoms: O_37  and  C_13 
REMARK   11  A    between atoms: O_33  and  C_14 
REMARK   12  A    between atoms: N_20  and  C_16 
REMARK   13  A    between atoms: O_31  and  C_18 
REMARK   14  A    between atoms: O_36  and  C_18 
REMARK   15  A    between atoms: O_32  and  C_19 
REMARK   16  A    between atoms: O_37  and  C_19 
REMARK   17  A    between atoms: P_38  and  O_34 
REMARK   18  A    between atoms: P_38  and  O_35 
ROOT
HETATM    1  C   UNK N   1      37.299  14.061  10.716  0.00  0.00     0.300 C 
ENDROOT
BRANCH   1   2
HETATM    2  O   UNK N   1      38.446  13.899   9.915  0.00  0.00    -0.373 OA
BRANCH   2   3
HETATM    3  C   UNK N   1      38.413  12.693   9.156  0.00  0.00     0.136 C 
HETATM    4  C   UNK N   1      39.838  12.417   8.704  0.00  0.00     0.041 C 
BRANCH   3   5
HETATM    5  C   UNK N   1      37.813  11.457   9.880  0.00  0.00     0.163 C 
BRANCH   5   6
HETATM    6  N   UNK N   1      36.485  11.090   9.409  0.00  0.00    -0.325 N 
HETATM    7  C   UNK N   1      36.043  10.935   8.135  0.00  0.00     0.185 A 
HETATM    8  N   UNK N   1      34.732  10.556   8.113  0.00  0.00    -0.346 N 
HETATM    9  C   UNK N   1      34.384  10.492   9.412  0.00  0.00     0.122 A 
ATOM     10  HN  UNK N   1      34.149  10.364   7.298  1.00  0.00     0.167 HD
HETATM   11  C   UNK N   1      33.175  10.154  10.001  0.00  0.00     0.131 A 
HETATM   12  C   UNK N   1      35.435  10.818  10.184  0.00  0.00     0.140 A 
HETATM   13  N   UNK N   1      33.097  10.178  11.366  0.00  0.00    -0.337 N 
HETATM   14  C   UNK N   1      34.185  10.523  12.131  0.00  0.00     0.183 A 
ATOM     15  HN  UNK N   1      32.218   9.936  11.823  1.00  0.00     0.168 HD
HETATM   16  N   UNK N   1      35.376  10.845  11.536  0.00  0.00    -0.336 N 
ATOM     17  HN  UNK N   1      36.192  11.096  12.094  1.00  0.00     0.168 HD
BRANCH  11  18
HETATM   18  N   UNK N   1      32.056   9.791   9.224  0.00  0.00    -0.383 N 
HETATM   19  H   UNK N   1      31.510   9.009   9.466  0.00  0.00     0.157 HD
HETATM   20  H   UNK N   1      31.819  10.326   8.433  0.00  0.00     0.157 HD
ENDBRANCH  11  18
ENDBRANCH   5   6
ENDBRANCH   3   5
ENDBRANCH   2   3
ENDBRANCH   1   2
BRANCH   1  21
HETATM   21  P   UNK N   1      35.968  15.024   9.834  0.00  0.00     0.356 P 
HETATM   22  O   UNK N   1      36.861  15.968  10.682  0.00  0.00    -0.256 OA
BRANCH  21  23
HETATM   23  O   UNK N   1      35.153  13.997  10.981  0.00  0.00    -0.286 OA
BRANCH  23  24
HETATM   24  C   UNK N   1      35.553  14.466  12.239  0.00  0.00     0.360 C 
BRANCH  24  25
HETATM   25  O   UNK N   1      34.949  13.723  13.223  0.00  0.00    -0.272 OA
BRANCH  25  26
HETATM   26  C   UNK N   1      35.587  13.391  14.370  0.00  0.00     0.408 C 
HETATM   27  O   UNK N   1      36.723  13.801  14.555  0.00  0.00    -0.229 OA
BRANCH  26  28
HETATM   28  O   UNK N   1      34.965  12.618  15.308  0.00  0.00    -0.293 OA
BRANCH  28  29
HETATM   29  C   UNK N   1      35.496  12.288  16.545  0.00  0.00     0.126 C 
HETATM   30  C   UNK N   1      35.172  10.855  16.939  0.00  0.00     0.040 C 
HETATM   31  C   UNK N   1      35.044  13.259  17.623  0.00  0.00     0.040 C 
ENDBRANCH  28  29
ENDBRANCH  26  28
ENDBRANCH  25  26
ENDBRANCH  24  25
ENDBRANCH  23  24
ENDBRANCH  21  23
BRANCH  21  32
HETATM   32  O   UNK N   1      34.798  16.130  10.501  0.00  0.00    -0.286 OA
BRANCH  32  33
HETATM   33  C   UNK N   1      33.937  16.444   9.445  0.00  0.00     0.360 C 
BRANCH  33  34
HETATM   34  O   UNK N   1      34.680  16.799   8.340  0.00  0.00    -0.272 OA
BRANCH  34  35
HETATM   35  C   UNK N   1      34.546  18.009   7.747  0.00  0.00     0.408 C 
HETATM   36  O   UNK N   1      34.818  19.034   8.362  0.00  0.00    -0.229 OA
BRANCH  35  37
HETATM   37  O   UNK N   1      34.149  18.070   6.454  0.00  0.00    -0.293 OA
BRANCH  37  38
HETATM   38  C   UNK N   1      33.236  17.185   5.928  0.00  0.00     0.126 C 
HETATM   39  C   UNK N   1      31.903  17.353   6.631  0.00  0.00     0.040 C 
HETATM   40  C   UNK N   1      33.065  17.445   4.449  0.00  0.00     0.040 C 
ENDBRANCH  37  38
ENDBRANCH  35  37
ENDBRANCH  34  35
ENDBRANCH  33  34
ENDBRANCH  32  33
ENDBRANCH  21  32
ENDBRANCH   1  21
TORSDOF 18
ENDMDL
MODEL 4
REMARK VINA RESULT:      -6.2     10.690     14.134
REMARK  18 active torsions:
REMARK  status: ('A' for Active; 'I' for Inactive)
REMARK    1  A    between atoms: C_14  and  C_6 
REMARK    2  A    between atoms: N_27  and  C_6 
REMARK    3  A    between atoms: O_31  and  C_9 
REMARK    4  A    between atoms: O_34  and  C_9 
REMARK    5  A    between atoms: O_32  and  C_10 
REMARK    6  A    between atoms: O_35  and  C_10 
REMARK    7  A    between atoms: O_33  and  C_11 
REMARK    8  A    between atoms: P_38  and  C_11 
REMARK    9  A    between atoms: O_36  and  C_12 
REMARK   10  A    between atoms: O_37  and  C_13 
REMARK   11  A    between atoms: O_33  and  C_14 
REMARK   12  A    between atoms: N_20  and  C_16 
REMARK   13  A    between atoms: O_31  and  C_18 
REMARK   14  A    between atoms: O_36  and  C_18 
REMARK   15  A    between atoms: O_32  and  C_19 
REMARK   16  A    between atoms: O_37  and  C_19 
REMARK   17  A    between atoms: P_38  and  O_34 
REMARK   18  A    between atoms: P_38  and  O_35 
ROOT
HETATM    1  C   UNK N   1      34.644  16.615   9.093  0.00  0.00     0.300 C 
ENDROOT
BRANCH   1   2
HETATM    2  O   UNK N   1      33.738  17.651   9.396  0.00  0.00    -0.373 OA
BRANCH   2   3
HETATM    3  C   UNK N   1      32.731  17.801   8.399  0.00  0.00     0.136 C 
HETATM    4  C   UNK N   1      33.388  17.510   7.060  0.00  0.00     0.041 C 
BRANCH   3   5
HETATM    5  C   UNK N   1      31.458  16.931   8.591  0.00  0.00     0.163 C 
BRANCH   5   6
HETATM    6  N   UNK N   1      30.214  17.669   8.418  0.00  0.00    -0.325 N 
HETATM    7  C   UNK N   1      29.453  18.290   9.354  0.00  0.00     0.185 A 
HETATM    8  N   UNK N   1      28.371  18.897   8.783  0.00  0.00    -0.346 N 
HETATM    9  C   UNK N   1      28.491  18.620   7.471  0.00  0.00     0.122 A 
ATOM     10  HN  UNK N   1      27.639  19.437   9.246  1.00  0.00     0.167 HD
HETATM   11  C   UNK N   1      27.685  18.981   6.401  0.00  0.00     0.131 A 
HETATM   12  C   UNK N   1      29.593  17.880   7.258  0.00  0.00     0.140 A 
HETATM   13  N   UNK N   1      28.045  18.551   5.154  0.00  0.00    -0.337 N 
HETATM   14  C   UNK N   1      29.172  17.789   4.966  0.00  0.00     0.183 A 
ATOM     15  HN  UNK N   1      27.467  18.801   4.352  1.00  0.00     0.168 HD
HETATM   16  N   UNK N   1      29.964  17.449   6.029  0.00  0.00    -0.336 N 
ATOM     17  HN  UNK N   1      30.806  16.889   5.901  1.00  0.00     0.168 HD
BRANCH  11  18
HETATM   18  N   UNK N   1      26.531  19.770   6.585  0.00  0.00    -0.383 N 
HETATM   19  H   UNK N   1      25.802  19.464   7.171  0.00  0.00     0.157 HD
HETATM   20  H   UNK N   1      26.455  20.635   6.122  0.00  0.00     0.157 HD
ENDBRANCH  11  18
ENDBRANCH   5   6
ENDBRANCH   3   5
ENDBRANCH   2   3
ENDBRANCH   1   2
BRANCH   1  21
HETATM   21  P   UNK N   1      34.940  15.503  10.561  0.00  0.00     0.356 P 
HETATM   22  O   UNK N   1      35.250  16.982  10.917  0.00  0.00    -0.256 OA
BRANCH  21  23
HETATM   23  O   UNK N   1      36.119  15.056   9.358  0.00  0.00    -0.286 OA
BRANCH  23  24
HETATM   24  C   UNK N   1      35.375  14.512   8.303  0.00  0.00     0.360 C 
BRANCH  24  25
HETATM   25  O   UNK N   1      36.224  14.065   7.321  0.00  0.00    -0.272 OA
BRANCH  25  26
HETATM   26  C   UNK N   1      36.278  14.642   6.098  0.00  0.00     0.408 C 
HETATM   27  O   UNK N   1      37.365  14.791   5.560  0.00  0.00    -0.229 OA
BRANCH  26  28
HETATM   28  O   UNK N   1      35.133  15.042   5.472  0.00  0.00    -0.293 OA
BRANCH  28  29
HETATM   29  C   UNK N   1      34.447  14.304   4.521  0.00  0.00     0.126 C 
HETATM   30  C   UNK N   1      33.746  15.194   3.506  0.00  0.00     0.040 C 
HETATM   31  C   UNK N   1      33.462  13.342   5.165  0.00  0.00     0.040 C 
ENDBRANCH  28  29
ENDBRANCH  26  28
ENDBRANCH  25  26
ENDBRANCH  24  25
ENDBRANCH  23  24
ENDBRANCH  21  23
BRANCH  21  32
HETATM   32  O   UNK N   1      36.374  15.349  11.540  0.00  0.00    -0.286 OA
BRANCH  32  33
HETATM   33  C   UNK N   1      36.017  14.498  12.590  0.00  0.00     0.360 C 
BRANCH  33  34
HETATM   34  O   UNK N   1      36.380  15.073  13.788  0.00  0.00    -0.272 OA
BRANCH  34  35
HETATM   35  C   UNK N   1      36.734  14.327  14.861  0.00  0.00     0.408 C 
HETATM   36  O   UNK N   1      37.523  14.766  15.689  0.00  0.00    -0.229 OA
BRANCH  35  37
HETATM   37  O   UNK N   1      36.170  13.107  15.031  0.00  0.00    -0.293 OA
BRANCH  37  38
HETATM   38  C   UNK N   1      34.954  12.945  15.653  0.00  0.00     0.126 C 
HETATM   39  C   UNK N   1      34.187  11.823  14.983  0.00  0.00     0.040 C 
HETATM   40  C   UNK N   1      35.166  12.613  17.113  0.00  0.00     0.040 C 
ENDBRANCH  37  38
ENDBRANCH  35  37
ENDBRANCH  34  35
ENDBRANCH  33  34
ENDBRANCH  32  33
ENDBRANCH  21  32
ENDBRANCH   1  21
TORSDOF 18
ENDMDL
MODEL 5
REMARK VINA RESULT:      -6.2      6.296      9.647
REMARK  18 active torsions:
REMARK  status: ('A' for Active; 'I' for Inactive)
REMARK    1  A    between atoms: C_14  and  C_6 
REMARK    2  A    between atoms: N_27  and  C_6 
REMARK    3  A    between atoms: O_31  and  C_9 
REMARK    4  A    between atoms: O_34  and  C_9 
REMARK    5  A    between atoms: O_32  and  C_10 
REMARK    6  A    between atoms: O_35  and  C_10 
REMARK    7  A    between atoms: O_33  and  C_11 
REMARK    8  A    between atoms: P_38  and  C_11 
REMARK    9  A    between atoms: O_36  and  C_12 
REMARK   10  A    between atoms: O_37  and  C_13 
REMARK   11  A    between atoms: O_33  and  C_14 
REMARK   12  A    between atoms: N_20  and  C_16 
REMARK   13  A    between atoms: O_31  and  C_18 
REMARK   14  A    between atoms: O_36  and  C_18 
REMARK   15  A    between atoms: O_32  and  C_19 
REMARK   16  A    between atoms: O_37  and  C_19 
REMARK   17  A    between atoms: P_38  and  O_34 
REMARK   18  A    between atoms: P_38  and  O_35 
ROOT
HETATM    1  C   UNK N   1      29.196  16.893   4.546  0.00  0.00     0.300 C 
ENDROOT
BRANCH   1   2
HETATM    2  O   UNK N   1      30.153  16.777   3.518  0.00  0.00    -0.373 OA
BRANCH   2   3
HETATM    3  C   UNK N   1      31.448  16.452   4.015  0.00  0.00     0.136 C 
HETATM    4  C   UNK N   1      32.408  16.550   2.841  0.00  0.00     0.041 C 
BRANCH   3   5
HETATM    5  C   UNK N   1      31.947  17.311   5.210  0.00  0.00     0.163 C 
BRANCH   5   6
HETATM    6  N   UNK N   1      32.121  16.554   6.442  0.00  0.00    -0.325 N 
HETATM    7  C   UNK N   1      31.510  15.407   6.832  0.00  0.00     0.185 A 
HETATM    8  N   UNK N   1      31.970  14.996   8.050  0.00  0.00    -0.346 N 
HETATM    9  C   UNK N   1      32.874  15.933   8.396  0.00  0.00     0.122 A 
ATOM     10  HN  UNK N   1      31.692  14.168   8.579  1.00  0.00     0.167 HD
HETATM   11  C   UNK N   1      33.667  16.039   9.529  0.00  0.00     0.131 A 
HETATM   12  C   UNK N   1      32.957  16.866   7.432  0.00  0.00     0.140 A 
HETATM   13  N   UNK N   1      34.506  17.113   9.625  0.00  0.00    -0.337 N 
HETATM   14  C   UNK N   1      34.565  18.058   8.629  0.00  0.00     0.183 A 
ATOM     15  HN  UNK N   1      35.098  17.216  10.450  1.00  0.00     0.168 HD
HETATM   16  N   UNK N   1      33.784  17.935   7.511  0.00  0.00    -0.336 N 
ATOM     17  HN  UNK N   1      33.824  18.626   6.763  1.00  0.00     0.168 HD
BRANCH  11  18
HETATM   18  N   UNK N   1      33.618  15.070  10.552  0.00  0.00    -0.383 N 
HETATM   19  H   UNK N   1      32.957  14.342  10.523  0.00  0.00     0.157 HD
HETATM   20  H   UNK N   1      34.252  15.124  11.303  0.00  0.00     0.157 HD
ENDBRANCH  11  18
ENDBRANCH   5   6
ENDBRANCH   3   5
ENDBRANCH   2   3
ENDBRANCH   1   2
BRANCH   1  21
HETATM   21  P   UNK N   1      27.579  17.572   3.913  0.00  0.00     0.356 P 
HETATM   22  O   UNK N   1      28.511  18.718   4.387  0.00  0.00    -0.256 OA
BRANCH  21  23
HETATM   23  O   UNK N   1      27.201  16.655   5.346  0.00  0.00    -0.286 OA
BRANCH  23  24
HETATM   24  C   UNK N   1      28.186  17.010   6.276  0.00  0.00     0.360 C 
BRANCH  24  25
HETATM   25  O   UNK N   1      27.595  17.377   7.460  0.00  0.00    -0.272 OA
BRANCH  25  26
HETATM   26  C   UNK N   1      27.888  18.543   8.081  0.00  0.00     0.408 C 
HETATM   27  O   UNK N   1      27.871  19.579   7.434  0.00  0.00    -0.229 OA
BRANCH  26  28
HETATM   28  O   UNK N   1      28.190  18.560   9.412  0.00  0.00    -0.293 OA
BRANCH  28  29
HETATM   29  C   UNK N   1      29.437  18.281   9.949  0.00  0.00     0.126 C 
HETATM   30  C   UNK N   1      30.564  18.772   9.055  0.00  0.00     0.040 C 
HETATM   31  C   UNK N   1      29.595  16.800  10.254  0.00  0.00     0.040 C 
ENDBRANCH  28  29
ENDBRANCH  26  28
ENDBRANCH  25  26
ENDBRANCH  24  25
ENDBRANCH  23  24
ENDBRANCH  21  23
BRANCH  21  32
HETATM   32  O   UNK N   1      26.460  18.644   4.710  0.00  0.00    -0.286 OA
BRANCH  32  33
HETATM   33  C   UNK N   1      25.365  18.749   3.846  0.00  0.00     0.360 C 
BRANCH  33  34
HETATM   34  O   UNK N   1      24.840  20.020   3.926  0.00  0.00    -0.272 OA
BRANCH  34  35
HETATM   35  C   UNK N   1      24.214  20.601   2.875  0.00  0.00     0.408 C 
HETATM   36  O   UNK N   1      24.818  20.805   1.829  0.00  0.00    -0.229 OA
BRANCH  35  37
HETATM   37  O   UNK N   1      22.900  20.913   2.981  0.00  0.00    -0.293 OA
BRANCH  37  38
HETATM   38  C   UNK N   1      21.909  20.037   2.604  0.00  0.00     0.126 C 
HETATM   39  C   UNK N   1      21.258  19.446   3.839  0.00  0.00     0.040 C 
HETATM   40  C   UNK N   1      20.869  20.764   1.782  0.00  0.00     0.040 C 
ENDBRANCH  37  38
ENDBRANCH  35  37
ENDBRANCH  34  35
ENDBRANCH  33  34
ENDBRANCH  32  33
ENDBRANCH  21  32
ENDBRANCH   1  21
TORSDOF 18
ENDMDL
MODEL 6
REMARK VINA RESULT:      -6.2      4.053      7.744
REMARK  18 active torsions:
REMARK  status: ('A' for Active; 'I' for Inactive)
REMARK    1  A    between atoms: C_14  and  C_6 
REMARK    2  A    between atoms: N_27  and  C_6 
REMARK    3  A    between atoms: O_31  and  C_9 
REMARK    4  A    between atoms: O_34  and  C_9 
REMARK    5  A    between atoms: O_32  and  C_10 
REMARK    6  A    between atoms: O_35  and  C_10 
REMARK    7  A    between atoms: O_33  and  C_11 
REMARK    8  A    between atoms: P_38  and  C_11 
REMARK    9  A    between atoms: O_36  and  C_12 
REMARK   10  A    between atoms: O_37  and  C_13 
REMARK   11  A    between atoms: O_33  and  C_14 
REMARK   12  A    between atoms: N_20  and  C_16 
REMARK   13  A    between atoms: O_31  and  C_18 
REMARK   14  A    between atoms: O_36  and  C_18 
REMARK   15  A    between atoms: O_32  and  C_19 
REMARK   16  A    between atoms: O_37  and  C_19 
REMARK   17  A    between atoms: P_38  and  O_34 
REMARK   18  A    between atoms: P_38  and  O_35 
ROOT
HETATM    1  C   UNK N   1      25.513  15.815   3.999  0.00  0.00     0.300 C 
ENDROOT
BRANCH   1   2
HETATM    2  O   UNK N   1      26.748  15.578   4.634  0.00  0.00    -0.373 OA
BRANCH   2   3
HETATM    3  C   UNK N   1      27.853  15.724   3.747  0.00  0.00     0.136 C 
HETATM    4  C   UNK N   1      27.329  15.468   2.344  0.00  0.00     0.041 C 
BRANCH   3   5
HETATM    5  C   UNK N   1      28.599  17.085   3.818  0.00  0.00     0.163 C 
BRANCH   5   6
HETATM    6  N   UNK N   1      29.610  17.145   4.865  0.00  0.00    -0.325 N 
HETATM    7  C   UNK N   1      30.962  17.133   4.748  0.00  0.00     0.185 A 
HETATM    8  N   UNK N   1      31.561  17.234   5.970  0.00  0.00    -0.346 N 
HETATM    9  C   UNK N   1      30.534  17.299   6.839  0.00  0.00     0.122 A 
ATOM     10  HN  UNK N   1      32.560  17.256   6.178  1.00  0.00     0.167 HD
HETATM   11  C   UNK N   1      30.533  17.415   8.220  0.00  0.00     0.131 A 
HETATM   12  C   UNK N   1      29.367  17.240   6.172  0.00  0.00     0.140 A 
HETATM   13  N   UNK N   1      29.326  17.453   8.860  0.00  0.00    -0.337 N 
HETATM   14  C   UNK N   1      28.148  17.382   8.155  0.00  0.00     0.183 A 
ATOM     15  HN  UNK N   1      29.299  17.536   9.876  1.00  0.00     0.168 HD
HETATM   16  N   UNK N   1      28.164  17.278   6.790  0.00  0.00    -0.336 N 
ATOM     17  HN  UNK N   1      27.296  17.232   6.256  1.00  0.00     0.168 HD
BRANCH  11  18
HETATM   18  N   UNK N   1      31.736  17.497   8.950  0.00  0.00    -0.383 N 
HETATM   19  H   UNK N   1      31.897  18.242   9.572  0.00  0.00     0.157 HD
HETATM   20  H   UNK N   1      32.423  16.800   8.837  0.00  0.00     0.157 HD
ENDBRANCH  11  18
ENDBRANCH   5   6
ENDBRANCH   3   5
ENDBRANCH   2   3
ENDBRANCH   1   2
BRANCH   1  21
HETATM   21  P   UNK N   1      24.302  16.664   5.135  0.00  0.00     0.356 P 
HETATM   22  O   UNK N   1      23.828  15.225   4.800  0.00  0.00    -0.256 OA
BRANCH  21  23
HETATM   23  O   UNK N   1      24.254  17.534   3.626  0.00  0.00    -0.286 OA
BRANCH  23  24
HETATM   24  C   UNK N   1      25.115  18.624   3.806  0.00  0.00     0.360 C 
BRANCH  24  25
HETATM   25  O   UNK N   1      24.379  19.772   3.972  0.00  0.00    -0.272 OA
BRANCH  25  26
HETATM   26  C   UNK N   1      24.004  20.545   2.926  0.00  0.00     0.408 C 
HETATM   27  O   UNK N   1      24.839  20.854   2.089  0.00  0.00    -0.229 OA
BRANCH  26  28
HETATM   28  O   UNK N   1      22.711  20.964   2.806  0.00  0.00    -0.293 OA
BRANCH  28  29
HETATM   29  C   UNK N   1      21.640  20.155   2.461  0.00  0.00     0.126 C 
HETATM   30  C   UNK N   1      21.000  20.585   1.151  0.00  0.00     0.040 C 
HETATM   31  C   UNK N   1      20.606  20.094   3.573  0.00  0.00     0.040 C 
ENDBRANCH  28  29
ENDBRANCH  26  28
ENDBRANCH  25  26
ENDBRANCH  24  25
ENDBRANCH  23  24
ENDBRANCH  21  23
BRANCH  21  32
HETATM   32  O   UNK N   1      22.585  16.884   4.930  0.00  0.00    -0.286 OA
BRANCH  32  33
HETATM   33  C   UNK N   1      22.184  17.697   5.995  0.00  0.00     0.360 C 
BRANCH  33  34
HETATM   34  O   UNK N   1      20.858  17.457   6.279  0.00  0.00    -0.272 OA
BRANCH  34  35
HETATM   35  C   UNK N   1      20.431  17.210   7.540  0.00  0.00     0.408 C 
HETATM   36  O   UNK N   1      20.224  18.136   8.317  0.00  0.00    -0.229 OA
BRANCH  35  37
HETATM   37  O   UNK N   1      20.193  15.932   7.917  0.00  0.00    -0.293 OA
BRANCH  37  38
HETATM   38  C   UNK N   1      21.083  15.221   8.688  0.00  0.00     0.126 C 
HETATM   39  C   UNK N   1      20.325  14.282   9.605  0.00  0.00     0.040 C 
HETATM   40  C   UNK N   1      22.007  14.421   7.797  0.00  0.00     0.040 C 
ENDBRANCH  37  38
ENDBRANCH  35  37
ENDBRANCH  34  35
ENDBRANCH  33  34
ENDBRANCH  32  33
ENDBRANCH  21  32
ENDBRANCH   1  21
TORSDOF 18
ENDMDL
MODEL 7
REMARK VINA RESULT:      -6.1      4.090      7.952
REMARK  18 active torsions:
REMARK  status: ('A' for Active; 'I' for Inactive)
REMARK    1  A    between atoms: C_14  and  C_6 
REMARK    2  A    between atoms: N_27  and  C_6 
REMARK    3  A    between atoms: O_31  and  C_9 
REMARK    4  A    between atoms: O_34  and  C_9 
REMARK    5  A    between atoms: O_32  and  C_10 
REMARK    6  A    between atoms: O_35  and  C_10 
REMARK    7  A    between atoms: O_33  and  C_11 
REMARK    8  A    between atoms: P_38  and  C_11 
REMARK    9  A    between atoms: O_36  and  C_12 
REMARK   10  A    between atoms: O_37  and  C_13 
REMARK   11  A    between atoms: O_33  and  C_14 
REMARK   12  A    between atoms: N_20  and  C_16 
REMARK   13  A    between atoms: O_31  and  C_18 
REMARK   14  A    between atoms: O_36  and  C_18 
REMARK   15  A    between atoms: O_32  and  C_19 
REMARK   16  A    between atoms: O_37  and  C_19 
REMARK   17  A    between atoms: P_38  and  O_34 
REMARK   18  A    between atoms: P_38  and  O_35 
ROOT
HETATM    1  C   UNK N   1      21.457  14.803   7.792  0.00  0.00     0.300 C 
ENDROOT
BRANCH   1   2
HETATM    2  O   UNK N   1      20.050  14.875   7.802  0.00  0.00    -0.373 OA
BRANCH   2   3
HETATM    3  C   UNK N   1      19.568  16.166   7.441  0.00  0.00     0.136 C 
HETATM    4  C   UNK N   1      19.247  16.895   8.735  0.00  0.00     0.041 C 
BRANCH   3   5
HETATM    5  C   UNK N   1      20.517  17.015   6.550  0.00  0.00     0.163 C 
BRANCH   5   6
HETATM    6  N   UNK N   1      20.235  16.905   5.125  0.00  0.00    -0.325 N 
HETATM    7  C   UNK N   1      19.606  15.907   4.454  0.00  0.00     0.185 A 
HETATM    8  N   UNK N   1      19.513  16.193   3.123  0.00  0.00    -0.346 N 
HETATM    9  C   UNK N   1      20.112  17.393   2.999  0.00  0.00     0.122 A 
ATOM     10  HN  UNK N   1      19.087  15.628   2.388  1.00  0.00     0.167 HD
HETATM   11  C   UNK N   1      20.313  18.185   1.878  0.00  0.00     0.131 A 
HETATM   12  C   UNK N   1      20.547  17.813   4.201  0.00  0.00     0.140 A 
HETATM   13  N   UNK N   1      20.967  19.374   2.042  0.00  0.00    -0.337 N 
HETATM   14  C   UNK N   1      21.409  19.774   3.280  0.00  0.00     0.183 A 
ATOM     15  HN  UNK N   1      21.130  19.973   1.233  1.00  0.00     0.168 HD
HETATM   16  N   UNK N   1      21.195  18.988   4.380  0.00  0.00    -0.336 N 
ATOM     17  HN  UNK N   1      21.512  19.278   5.304  1.00  0.00     0.168 HD
BRANCH  11  18
HETATM   18  N   UNK N   1      19.856  17.785   0.606  0.00  0.00    -0.383 N 
HETATM   19  H   UNK N   1      19.006  17.299   0.509  0.00  0.00     0.157 HD
HETATM   20  H   UNK N   1      20.393  17.994  -0.191  0.00  0.00     0.157 HD
ENDBRANCH  11  18
ENDBRANCH   5   6
ENDBRANCH   3   5
ENDBRANCH   2   3
ENDBRANCH   1   2
BRANCH   1  21
HETATM   21  P   UNK N   1      22.083  13.680   6.441  0.00  0.00     0.356 P 
HETATM   22  O   UNK N   1      21.518  12.854   7.627  0.00  0.00    -0.256 OA
BRANCH  21  23
HETATM   23  O   UNK N   1      23.476  14.513   7.073  0.00  0.00    -0.286 OA
BRANCH  23  24
HETATM   24  C   UNK N   1      23.677  15.596   6.207  0.00  0.00     0.360 C 
BRANCH  24  25
HETATM   25  O   UNK N   1      23.648  15.159   4.905  0.00  0.00    -0.272 OA
BRANCH  25  26
HETATM   26  C   UNK N   1      23.563  16.014   3.861  0.00  0.00     0.408 C 
HETATM   27  O   UNK N   1      23.157  15.598   2.785  0.00  0.00    -0.229 OA
BRANCH  26  28
HETATM   28  O   UNK N   1      23.917  17.324   4.009  0.00  0.00    -0.293 OA
BRANCH  28  29
HETATM   29  C   UNK N   1      25.215  17.808   3.962  0.00  0.00     0.126 C 
HETATM   30  C   UNK N   1      25.277  19.217   3.396  0.00  0.00     0.040 C 
HETATM   31  C   UNK N   1      26.130  16.874   3.186  0.00  0.00     0.040 C 
ENDBRANCH  28  29
ENDBRANCH  26  28
ENDBRANCH  25  26
ENDBRANCH  24  25
ENDBRANCH  23  24
ENDBRANCH  21  23
BRANCH  21  32
HETATM   32  O   UNK N   1      23.230  12.373   6.553  0.00  0.00    -0.286 OA
BRANCH  32  33
HETATM   33  C   UNK N   1      22.920  11.706   7.742  0.00  0.00     0.360 C 
BRANCH  33  34
HETATM   34  O   UNK N   1      24.076  11.484   8.456  0.00  0.00    -0.272 OA
BRANCH  34  35
HETATM   35  C   UNK N   1      24.311  12.093   9.643  0.00  0.00     0.408 C 
HETATM   36  O   UNK N   1      24.984  13.116   9.692  0.00  0.00    -0.229 OA
BRANCH  35  37
HETATM   37  O   UNK N   1      23.758  11.581  10.768  0.00  0.00    -0.293 OA
BRANCH  37  38
HETATM   38  C   UNK N   1      22.940  12.328  11.584  0.00  0.00     0.126 C 
HETATM   39  C   UNK N   1      21.498  12.160  11.148  0.00  0.00     0.040 C 
HETATM   40  C   UNK N   1      23.092  11.872  13.018  0.00  0.00     0.040 C 
ENDBRANCH  37  38
ENDBRANCH  35  37
ENDBRANCH  34  35
ENDBRANCH  33  34
ENDBRANCH  32  33
ENDBRANCH  21  32
ENDBRANCH   1  21
TORSDOF 18
ENDMDL
MODEL 8
REMARK VINA RESULT:      -6.1     11.215     14.523
REMARK  18 active torsions:
REMARK  status: ('A' for Active; 'I' for Inactive)
REMARK    1  A    between atoms: C_14  and  C_6 
REMARK    2  A    between atoms: N_27  and  C_6 
REMARK    3  A    between atoms: O_31  and  C_9 
REMARK    4  A    between atoms: O_34  and  C_9 
REMARK    5  A    between atoms: O_32  and  C_10 
REMARK    6  A    between atoms: O_35  and  C_10 
REMARK    7  A    between atoms: O_33  and  C_11 
REMARK    8  A    between atoms: P_38  and  C_11 
REMARK    9  A    between atoms: O_36  and  C_12 
REMARK   10  A    between atoms: O_37  and  C_13 
REMARK   11  A    between atoms: O_33  and  C_14 
REMARK   12  A    between atoms: N_20  and  C_16 
REMARK   13  A    between atoms: O_31  and  C_18 
REMARK   14  A    between atoms: O_36  and  C_18 
REMARK   15  A    between atoms: O_32  and  C_19 
REMARK   16  A    between atoms: O_37  and  C_19 
REMARK   17  A    between atoms: P_38  and  O_34 
REMARK   18  A    between atoms: P_38  and  O_35 
ROOT
HETATM    1  C   UNK N   1      35.064  16.134   9.625  0.00  0.00     0.300 C 
ENDROOT
BRANCH   1   2
HETATM    2  O   UNK N   1      34.607  17.458   9.467  0.00  0.00    -0.373 OA
BRANCH   2   3
HETATM    3  C   UNK N   1      33.524  17.553   8.546  0.00  0.00     0.136 C 
HETATM    4  C   UNK N   1      34.128  17.832   7.180  0.00  0.00     0.041 C 
BRANCH   3   5
HETATM    5  C   UNK N   1      32.576  16.323   8.490  0.00  0.00     0.163 C 
BRANCH   5   6
HETATM    6  N   UNK N   1      31.343  16.567   7.755  0.00  0.00    -0.325 N 
HETATM    7  C   UNK N   1      31.007  16.181   6.498  0.00  0.00     0.185 A 
HETATM    8  N   UNK N   1      29.742  16.584   6.182  0.00  0.00    -0.346 N 
HETATM    9  C   UNK N   1      29.318  17.236   7.282  0.00  0.00     0.122 A 
ATOM     10  HN  UNK N   1      29.233  16.428   5.311  1.00  0.00     0.167 HD
HETATM   11  C   UNK N   1      28.107  17.858   7.545  0.00  0.00     0.131 A 
HETATM   12  C   UNK N   1      30.282  17.227   8.219  0.00  0.00     0.140 A 
HETATM   13  N   UNK N   1      27.945  18.457   8.762  0.00  0.00    -0.337 N 
HETATM   14  C   UNK N   1      28.950  18.441   9.699  0.00  0.00     0.183 A 
ATOM     15  HN  UNK N   1      27.064  18.924   8.979  1.00  0.00     0.168 HD
HETATM   16  N   UNK N   1      30.137  17.815   9.430  0.00  0.00    -0.336 N 
ATOM     17  HN  UNK N   1      30.887  17.790  10.120  1.00  0.00     0.168 HD
BRANCH  11  18
HETATM   18  N   UNK N   1      27.067  17.872   6.592  0.00  0.00    -0.383 N 
HETATM   19  H   UNK N   1      26.753  17.036   6.180  0.00  0.00     0.157 HD
HETATM   20  H   UNK N   1      26.653  18.728   6.337  0.00  0.00     0.157 HD
ENDBRANCH  11  18
ENDBRANCH   5   6
ENDBRANCH   3   5
ENDBRANCH   2   3
ENDBRANCH   1   2
BRANCH   1  21
HETATM   21  P   UNK N   1      35.604  15.793  11.377  0.00  0.00     0.356 P 
HETATM   22  O   UNK N   1      36.793  15.637  10.392  0.00  0.00    -0.256 OA
BRANCH  21  23
HETATM   23  O   UNK N   1      34.479  14.532  10.954  0.00  0.00    -0.286 OA
BRANCH  23  24
HETATM   24  C   UNK N   1      34.952  14.013   9.742  0.00  0.00     0.360 C 
BRANCH  24  25
HETATM   25  O   UNK N   1      34.867  12.642   9.760  0.00  0.00    -0.272 OA
BRANCH  25  26
HETATM   26  C   UNK N   1      33.772  11.982   9.319  0.00  0.00     0.408 C 
HETATM   27  O   UNK N   1      32.891  12.610   8.750  0.00  0.00    -0.229 OA
BRANCH  26  28
HETATM   28  O   UNK N   1      33.658  10.634   9.498  0.00  0.00    -0.293 OA
BRANCH  28  29
HETATM   29  C   UNK N   1      32.951  10.024  10.523  0.00  0.00     0.126 C 
HETATM   30  C   UNK N   1      33.766   9.935  11.803  0.00  0.00     0.040 C 
HETATM   31  C   UNK N   1      32.442   8.653  10.110  0.00  0.00     0.040 C 
ENDBRANCH  28  29
ENDBRANCH  26  28
ENDBRANCH  25  26
ENDBRANCH  24  25
ENDBRANCH  23  24
ENDBRANCH  21  23
BRANCH  21  32
HETATM   32  O   UNK N   1      36.420  14.391  12.013  0.00  0.00    -0.286 OA
BRANCH  32  33
HETATM   33  C   UNK N   1      35.747  14.072  13.196  0.00  0.00     0.360 C 
BRANCH  33  34
HETATM   34  O   UNK N   1      36.284  12.923  13.733  0.00  0.00    -0.272 OA
BRANCH  34  35
HETATM   35  C   UNK N   1      36.638  12.842  15.038  0.00  0.00     0.408 C 
HETATM   36  O   UNK N   1      37.031  13.836  15.637  0.00  0.00    -0.229 OA
BRANCH  35  37
HETATM   37  O   UNK N   1      36.509  11.659  15.683  0.00  0.00    -0.293 OA
BRANCH  37  38
HETATM   38  C   UNK N   1      35.393  11.351  16.427  0.00  0.00     0.126 C 
HETATM   39  C   UNK N   1      34.619  10.240  15.746  0.00  0.00     0.040 C 
HETATM   40  C   UNK N   1      35.808  10.904  17.811  0.00  0.00     0.040 C 
ENDBRANCH  37  38
ENDBRANCH  35  37
ENDBRANCH  34  35
ENDBRANCH  33  34
ENDBRANCH  32  33
ENDBRANCH  21  32
ENDBRANCH   1  21
TORSDOF 18
ENDMDL
MODEL 9
REMARK VINA RESULT:      -6.1      4.239      7.467
REMARK  18 active torsions:
REMARK  status: ('A' for Active; 'I' for Inactive)
REMARK    1  A    between atoms: C_14  and  C_6 
REMARK    2  A    between atoms: N_27  and  C_6 
REMARK    3  A    between atoms: O_31  and  C_9 
REMARK    4  A    between atoms: O_34  and  C_9 
REMARK    5  A    between atoms: O_32  and  C_10 
REMARK    6  A    between atoms: O_35  and  C_10 
REMARK    7  A    between atoms: O_33  and  C_11 
REMARK    8  A    between atoms: P_38  and  C_11 
REMARK    9  A    between atoms: O_36  and  C_12 
REMARK   10  A    between atoms: O_37  and  C_13 
REMARK   11  A    between atoms: O_33  and  C_14 
REMARK   12  A    between atoms: N_20  and  C_16 
REMARK   13  A    between atoms: O_31  and  C_18 
REMARK   14  A    between atoms: O_36  and  C_18 
REMARK   15  A    between atoms: O_32  and  C_19 
REMARK   16  A    between atoms: O_37  and  C_19 
REMARK   17  A    between atoms: P_38  and  O_34 
REMARK   18  A    between atoms: P_38  and  O_35 
ROOT
HETATM    1  C   UNK N   1      23.584  14.525   4.246  0.00  0.00     0.300 C 
ENDROOT
BRANCH   1   2
HETATM    2  O   UNK N   1      22.778  15.309   3.397  0.00  0.00    -0.373 OA
BRANCH   2   3
HETATM    3  C   UNK N   1      21.578  14.642   3.017  0.00  0.00     0.136 C 
HETATM    4  C   UNK N   1      21.457  13.412   3.903  0.00  0.00     0.041 C 
BRANCH   3   5
HETATM    5  C   UNK N   1      20.282  15.496   3.078  0.00  0.00     0.163 C 
BRANCH   5   6
HETATM    6  N   UNK N   1      20.286  16.632   2.166  0.00  0.00    -0.325 N 
HETATM    7  C   UNK N   1      20.068  16.652   0.827  0.00  0.00     0.185 A 
HETATM    8  N   UNK N   1      20.131  17.925   0.339  0.00  0.00    -0.346 N 
HETATM    9  C   UNK N   1      20.402  18.682   1.420  0.00  0.00     0.122 A 
ATOM     10  HN  UNK N   1      20.001  18.234  -0.625  1.00  0.00     0.167 HD
HETATM   11  C   UNK N   1      20.573  20.053   1.535  0.00  0.00     0.131 A 
HETATM   12  C   UNK N   1      20.499  17.902   2.511  0.00  0.00     0.140 A 
HETATM   13  N   UNK N   1      20.850  20.563   2.773  0.00  0.00    -0.337 N 
HETATM   14  C   UNK N   1      20.953  19.742   3.870  0.00  0.00     0.183 A 
ATOM     15  HN  UNK N   1      20.983  21.568   2.883  1.00  0.00     0.168 HD
HETATM   16  N   UNK N   1      20.771  18.391   3.744  0.00  0.00    -0.336 N 
ATOM     17  HN  UNK N   1      20.838  17.773   4.552  1.00  0.00     0.168 HD
BRANCH  11  18
HETATM   18  N   UNK N   1      20.462  20.903   0.416  0.00  0.00    -0.383 N 
HETATM   19  H   UNK N   1      20.429  21.880   0.529  0.00  0.00     0.157 HD
HETATM   20  H   UNK N   1      20.416  20.515  -0.487  0.00  0.00     0.157 HD
ENDBRANCH  11  18
ENDBRANCH   5   6
ENDBRANCH   3   5
ENDBRANCH   2   3
ENDBRANCH   1   2
BRANCH   1  21
HETATM   21  P   UNK N   1      24.887  15.547   5.103  0.00  0.00     0.356 P 
HETATM   22  O   UNK N   1      25.153  14.032   5.306  0.00  0.00    -0.256 OA
BRANCH  21  23
HETATM   23  O   UNK N   1      23.387  15.873   5.926  0.00  0.00    -0.286 OA
BRANCH  23  24
HETATM   24  C   UNK N   1      23.230  14.814   6.830  0.00  0.00     0.360 C 
BRANCH  24  25
HETATM   25  O   UNK N   1      22.140  15.049   7.632  0.00  0.00    -0.272 OA
BRANCH  25  26
HETATM   26  C   UNK N   1      21.390  14.043   8.139  0.00  0.00     0.408 C 
HETATM   27  O   UNK N   1      20.182  14.052   7.953  0.00  0.00    -0.229 OA
BRANCH  26  28
HETATM   28  O   UNK N   1      21.976  13.030   8.841  0.00  0.00    -0.293 OA
BRANCH  28  29
HETATM   29  C   UNK N   1      22.219  13.044  10.206  0.00  0.00     0.126 C 
HETATM   30  C   UNK N   1      23.558  12.412  10.552  0.00  0.00     0.040 C 
HETATM   31  C   UNK N   1      21.092  12.380  10.980  0.00  0.00     0.040 C 
ENDBRANCH  28  29
ENDBRANCH  26  28
ENDBRANCH  25  26
ENDBRANCH  24  25
ENDBRANCH  23  24
ENDBRANCH  21  23
BRANCH  21  32
HETATM   32  O   UNK N   1      25.400  15.488   6.767  0.00  0.00    -0.286 OA
BRANCH  32  33
HETATM   33  C   UNK N   1      26.724  15.937   6.765  0.00  0.00     0.360 C 
BRANCH  33  34
HETATM   34  O   UNK N   1      26.835  17.027   5.930  0.00  0.00    -0.272 OA
BRANCH  34  35
HETATM   35  C   UNK N   1      27.753  18.000   6.143  0.00  0.00     0.408 C 
HETATM   36  O   UNK N   1      28.538  17.917   7.081  0.00  0.00    -0.229 OA
BRANCH  35  37
HETATM   37  O   UNK N   1      27.820  19.044   5.283  0.00  0.00    -0.293 OA
BRANCH  37  38
HETATM   38  C   UNK N   1      26.829  19.995   5.210  0.00  0.00     0.126 C 
HETATM   39  C   UNK N   1      27.243  21.221   5.999  0.00  0.00     0.040 C 
HETATM   40  C   UNK N   1      26.592  20.378   3.767  0.00  0.00     0.040 C 
ENDBRANCH  37  38
ENDBRANCH  35  37
ENDBRANCH  34  35
ENDBRANCH  33  34
ENDBRANCH  32  33
ENDBRANCH  21  32
ENDBRANCH   1  21
TORSDOF 18
ENDMDL
