MODEL 1
REMARK VINA RESULT:      -7.5      0.000      0.000
REMARK  5 active torsions:
REMARK  status: ('A' for Active; 'I' for Inactive)
REMARK    1  A    between atoms: C_11  and  C_17 
REMARK       I    between atoms: C_17  and  N_19 
REMARK    2  A    between atoms: N_19  and  C_20 
REMARK    3  A    between atoms: C_20  and  C_21 
REMARK    4  A    between atoms: C_20  and  C_24 
REMARK    5  A    between atoms: C_24  and  O_25 
ROOT
HETATM    1  C   UNK N   1      30.160  17.906   9.320  0.00  0.00     0.013 A 
HETATM    2  C   UNK N   1      28.875  18.514   9.278  0.00  0.00     0.003 A 
HETATM    3  C   UNK N   1      28.157  18.605   8.058  0.00  0.00     0.030 A 
HETATM    4  C   UNK N   1      28.769  18.094   6.914  0.00  0.00     0.045 A 
HETATM    5  C   UNK N   1      29.991  17.523   6.978  0.00  0.00     0.009 A 
HETATM    6  C   UNK N   1      30.719  17.384   8.135  0.00  0.00    -0.015 A 
HETATM    7  C   UNK N   1      32.029  16.707   8.016  0.00  0.00    -0.017 C 
HETATM    8  C   UNK N   1      30.371  17.169   5.724  0.00  0.00    -0.027 A 
HETATM    9  C   UNK N   1      31.743  16.627   5.435  0.00  0.00     0.081 C 
HETATM   10  C   UNK N   1      32.331  15.928   6.705  0.00  0.00     0.260 C 
HETATM   11  C   UNK N   1      34.239  16.067   8.851  0.00  0.00     0.129 C 
HETATM   12  C   UNK N   1      32.932  16.776   9.006  0.00  0.00    -0.001 C 
HETATM   13  N   UNK N   1      33.755  15.494   6.575  0.00  0.00     0.094 N 
HETATM   14  C   UNK N   1      34.689  16.247   7.410  0.00  0.00     0.290 C 
HETATM   15  C   UNK N   1      29.324  17.533   4.878  0.00  0.00     0.099 A 
HETATM   16  N   UNK N   1      28.340  18.089   5.635  0.00  0.00    -0.360 N 
HETATM   17  C   UNK N   1      34.260  15.462   5.208  0.00  0.00     0.310 C 
HETATM   18  C   UNK N   1      27.081  18.616   5.138  0.00  0.00     0.155 C 
ENDROOT
BRANCH  11  19
HETATM   19  C   UNK N   1      35.286  16.429   9.880  0.00  0.00     0.227 C 
HETATM   20  N   UNK N   1      35.987  15.465  10.537  0.00  0.00    -0.354 N 
HETATM   21  H   UNK N   1      36.633  15.744  11.225  0.00  0.00     0.163 HD
HETATM   22  O   UNK N   1      35.491  17.601  10.155  0.00  0.00    -0.273 OA
BRANCH  20  23
HETATM   23  C   UNK N   1      35.830  14.051  10.275  0.00  0.00     0.107 C 
BRANCH  23  24
HETATM   24  C   UNK N   1      37.138  13.487   9.743  0.00  0.00     0.023 C 
HETATM   25  C   UNK N   1      38.018  12.993  10.877  0.00  0.00     0.007 C 
ENDBRANCH  23  24
BRANCH  23  26
HETATM   26  C   UNK N   1      35.386  13.308  11.532  0.00  0.00     0.189 C 
BRANCH  26  27
HETATM   27  O   UNK N   1      34.237  13.905  12.052  0.00  0.00    -0.399 OA
HETATM   28  H   UNK N   1      33.779  13.507  12.809  0.00  0.00     0.209 HD
ENDBRANCH  26  27
ENDBRANCH  23  26
ENDBRANCH  20  23
ENDBRANCH  11  19
TORSDOF 5
ENDMDL
MODEL 2
REMARK VINA RESULT:      -7.0      5.730     10.422
REMARK  5 active torsions:
REMARK  status: ('A' for Active; 'I' for Inactive)
REMARK    1  A    between atoms: C_11  and  C_17 
REMARK       I    between atoms: C_17  and  N_19 
REMARK    2  A    between atoms: N_19  and  C_20 
REMARK    3  A    between atoms: C_20  and  C_21 
REMARK    4  A    between atoms: C_20  and  C_24 
REMARK    5  A    between atoms: C_24  and  O_25 
ROOT
HETATM    1  C   UNK N   1      35.460  13.777  17.015  0.00  0.00     0.013 A 
HETATM    2  C   UNK N   1      35.336  13.950  18.421  0.00  0.00     0.003 A 
HETATM    3  C   UNK N   1      35.162  12.830  19.275  0.00  0.00     0.030 A 
HETATM    4  C   UNK N   1      35.102  11.571  18.678  0.00  0.00     0.045 A 
HETATM    5  C   UNK N   1      35.220  11.433  17.339  0.00  0.00     0.009 A 
HETATM    6  C   UNK N   1      35.417  12.478  16.470  0.00  0.00    -0.015 A 
HETATM    7  C   UNK N   1      35.551  12.132  15.037  0.00  0.00    -0.017 C 
HETATM    8  C   UNK N   1      35.067  10.122  17.023  0.00  0.00    -0.027 A 
HETATM    9  C   UNK N   1      35.013   9.652  15.597  0.00  0.00     0.081 C 
HETATM   10  C   UNK N   1      35.791  10.640  14.667  0.00  0.00     0.260 C 
HETATM   11  C   UNK N   1      35.609  12.684  12.654  0.00  0.00     0.129 C 
HETATM   12  C   UNK N   1      35.455  13.075  14.089  0.00  0.00    -0.001 C 
HETATM   13  N   UNK N   1      35.665  10.353  13.207  0.00  0.00     0.094 N 
HETATM   14  C   UNK N   1      34.901  11.352  12.464  0.00  0.00     0.290 C 
HETATM   15  C   UNK N   1      34.862   9.448  18.227  0.00  0.00     0.099 A 
HETATM   16  N   UNK N   1      34.900  10.360  19.236  0.00  0.00    -0.360 N 
HETATM   17  C   UNK N   1      35.148   9.027  12.888  0.00  0.00     0.310 C 
HETATM   18  C   UNK N   1      34.715  10.073  20.648  0.00  0.00     0.155 C 
ENDROOT
BRANCH  11  19
HETATM   19  C   UNK N   1      35.212  13.750  11.657  0.00  0.00     0.227 C 
HETATM   20  N   UNK N   1      35.848  13.863  10.460  0.00  0.00    -0.354 N 
HETATM   21  H   UNK N   1      35.582  14.594   9.856  0.00  0.00     0.163 HD
HETATM   22  O   UNK N   1      34.327  14.544  11.935  0.00  0.00    -0.273 OA
BRANCH  20  23
HETATM   23  C   UNK N   1      36.897  12.964  10.030  0.00  0.00     0.107 C 
BRANCH  23  24
HETATM   24  C   UNK N   1      36.651  12.554   8.586  0.00  0.00     0.023 C 
HETATM   25  C   UNK N   1      35.682  13.505   7.909  0.00  0.00     0.007 C 
ENDBRANCH  23  24
BRANCH  23  26
HETATM   26  C   UNK N   1      38.271  13.612  10.187  0.00  0.00     0.189 C 
BRANCH  26  27
HETATM   27  O   UNK N   1      38.143  15.001  10.167  0.00  0.00    -0.399 OA
HETATM   28  H   UNK N   1      38.933  15.564  10.164  0.00  0.00     0.209 HD
ENDBRANCH  26  27
ENDBRANCH  23  26
ENDBRANCH  20  23
ENDBRANCH  11  19
TORSDOF 5
ENDMDL
MODEL 3
REMARK VINA RESULT:      -6.8      2.549      4.477
REMARK  5 active torsions:
REMARK  status: ('A' for Active; 'I' for Inactive)
REMARK    1  A    between atoms: C_11  and  C_17 
REMARK       I    between atoms: C_17  and  N_19 
REMARK    2  A    between atoms: N_19  and  C_20 
REMARK    3  A    between atoms: C_20  and  C_21 
REMARK    4  A    between atoms: C_20  and  C_24 
REMARK    5  A    between atoms: C_24  and  O_25 
ROOT
HETATM    1  C   UNK N   1      33.865  15.360   3.982  0.00  0.00     0.013 A 
HETATM    2  C   UNK N   1      33.865  14.460   2.881  0.00  0.00     0.003 A 
HETATM    3  C   UNK N   1      32.668  13.819   2.470  0.00  0.00     0.030 A 
HETATM    4  C   UNK N   1      31.510  14.094   3.199  0.00  0.00     0.045 A 
HETATM    5  C   UNK N   1      31.536  14.952   4.243  0.00  0.00     0.009 A 
HETATM    6  C   UNK N   1      32.660  15.620   4.665  0.00  0.00    -0.015 A 
HETATM    7  C   UNK N   1      32.491  16.540   5.812  0.00  0.00    -0.017 C 
HETATM    8  C   UNK N   1      30.301  14.990   4.803  0.00  0.00    -0.027 A 
HETATM    9  C   UNK N   1      30.029  15.751   6.070  0.00  0.00     0.081 C 
HETATM   10  C   UNK N   1      31.043  16.931   6.226  0.00  0.00     0.260 C 
HETATM   11  C   UNK N   1      33.340  17.950   7.623  0.00  0.00     0.129 C 
HETATM   12  C   UNK N   1      33.555  17.012   6.479  0.00  0.00    -0.001 C 
HETATM   13  N   UNK N   1      30.964  17.654   7.530  0.00  0.00     0.094 N 
HETATM   14  C   UNK N   1      32.125  17.460   8.395  0.00  0.00     0.290 C 
HETATM   15  C   UNK N   1      29.501  14.129   4.053  0.00  0.00     0.099 A 
HETATM   16  N   UNK N   1      30.264  13.597   3.060  0.00  0.00    -0.360 N 
HETATM   17  C   UNK N   1      29.752  17.395   8.298  0.00  0.00     0.310 C 
HETATM   18  C   UNK N   1      29.817  12.639   2.064  0.00  0.00     0.155 C 
ENDROOT
BRANCH  11  19
HETATM   19  C   UNK N   1      34.562  18.202   8.477  0.00  0.00     0.227 C 
HETATM   20  N   UNK N   1      35.049  17.240   9.306  0.00  0.00    -0.354 N 
HETATM   21  H   UNK N   1      35.825  17.459   9.873  0.00  0.00     0.163 HD
HETATM   22  O   UNK N   1      35.108  19.295   8.451  0.00  0.00    -0.273 OA
BRANCH  20  23
HETATM   23  C   UNK N   1      34.484  15.911   9.400  0.00  0.00     0.107 C 
BRANCH  23  24
HETATM   24  C   UNK N   1      35.331  14.943   8.588  0.00  0.00     0.023 C 
HETATM   25  C   UNK N   1      34.471  13.859   7.965  0.00  0.00     0.007 C 
ENDBRANCH  23  24
BRANCH  23  26
HETATM   26  C   UNK N   1      34.383  15.461  10.855  0.00  0.00     0.189 C 
BRANCH  26  27
HETATM   27  O   UNK N   1      33.093  14.997  11.116  0.00  0.00    -0.399 OA
HETATM   28  H   UNK N   1      32.896  14.547  11.953  0.00  0.00     0.209 HD
ENDBRANCH  26  27
ENDBRANCH  23  26
ENDBRANCH  20  23
ENDBRANCH  11  19
TORSDOF 5
ENDMDL
MODEL 4
REMARK VINA RESULT:      -6.6      3.922      8.645
REMARK  5 active torsions:
REMARK  status: ('A' for Active; 'I' for Inactive)
REMARK    1  A    between atoms: C_11  and  C_17 
REMARK       I    between atoms: C_17  and  N_19 
REMARK    2  A    between atoms: N_19  and  C_20 
REMARK    3  A    between atoms: C_20  and  C_21 
REMARK    4  A    between atoms: C_20  and  C_24 
REMARK    5  A    between atoms: C_24  and  O_25 
ROOT
HETATM    1  C   UNK N   1      31.133  17.176   3.695  0.00  0.00     0.013 A 
HETATM    2  C   UNK N   1      32.340  16.682   3.129  0.00  0.00     0.003 A 
HETATM    3  C   UNK N   1      33.372  16.170   3.958  0.00  0.00     0.030 A 
HETATM    4  C   UNK N   1      33.157  16.191   5.336  0.00  0.00     0.045 A 
HETATM    5  C   UNK N   1      32.002  16.667   5.850  0.00  0.00     0.009 A 
HETATM    6  C   UNK N   1      30.960  17.148   5.094  0.00  0.00    -0.015 A 
HETATM    7  C   UNK N   1      29.761  17.603   5.832  0.00  0.00    -0.017 C 
HETATM    8  C   UNK N   1      32.080  16.625   7.205  0.00  0.00    -0.027 A 
HETATM    9  C   UNK N   1      31.006  17.209   8.079  0.00  0.00     0.081 C 
HETATM   10  C   UNK N   1      29.633  17.206   7.330  0.00  0.00     0.260 C 
HETATM   11  C   UNK N   1      27.620  18.775   6.006  0.00  0.00     0.129 C 
HETATM   12  C   UNK N   1      28.822  18.346   5.228  0.00  0.00    -0.001 C 
HETATM   13  N   UNK N   1      28.529  17.911   8.048  0.00  0.00     0.094 N 
HETATM   14  C   UNK N   1      28.088  19.147   7.405  0.00  0.00     0.290 C 
HETATM   15  C   UNK N   1      33.330  16.089   7.510  0.00  0.00     0.099 A 
HETATM   16  N   UNK N   1      33.973  15.815   6.343  0.00  0.00    -0.360 N 
HETATM   17  C   UNK N   1      28.792  18.179   9.458  0.00  0.00     0.310 C 
HETATM   18  C   UNK N   1      35.309  15.260   6.217  0.00  0.00     0.155 C 
ENDROOT
BRANCH  11  19
HETATM   19  C   UNK N   1      26.768  19.827   5.334  0.00  0.00     0.227 C 
HETATM   20  N   UNK N   1      25.584  19.502   4.747  0.00  0.00    -0.354 N 
HETATM   21  H   UNK N   1      25.079  20.213   4.289  0.00  0.00     0.163 HD
HETATM   22  O   UNK N   1      27.155  20.985   5.287  0.00  0.00    -0.273 OA
BRANCH  20  23
HETATM   23  C   UNK N   1      25.031  18.165   4.762  0.00  0.00     0.107 C 
BRANCH  23  24
HETATM   24  C   UNK N   1      23.529  18.242   4.984  0.00  0.00     0.023 C 
HETATM   25  C   UNK N   1      22.991  16.926   5.516  0.00  0.00     0.007 C 
ENDBRANCH  23  24
BRANCH  23  26
HETATM   26  C   UNK N   1      25.354  17.426   3.466  0.00  0.00     0.189 C 
BRANCH  26  27
HETATM   27  O   UNK N   1      26.164  16.324   3.741  0.00  0.00    -0.399 OA
HETATM   28  H   UNK N   1      26.842  16.376   4.433  0.00  0.00     0.209 HD
ENDBRANCH  26  27
ENDBRANCH  23  26
ENDBRANCH  20  23
ENDBRANCH  11  19
TORSDOF 5
ENDMDL
MODEL 5
REMARK VINA RESULT:      -6.5      6.480     11.796
REMARK  5 active torsions:
REMARK  status: ('A' for Active; 'I' for Inactive)
REMARK    1  A    between atoms: C_11  and  C_17 
REMARK       I    between atoms: C_17  and  N_19 
REMARK    2  A    between atoms: N_19  and  C_20 
REMARK    3  A    between atoms: C_20  and  C_21 
REMARK    4  A    between atoms: C_20  and  C_24 
REMARK    5  A    between atoms: C_24  and  O_25 
ROOT
HETATM    1  C   UNK N   1      26.682  19.118   4.535  0.00  0.00     0.013 A 
HETATM    2  C   UNK N   1      28.071  19.389   4.678  0.00  0.00     0.003 A 
HETATM    3  C   UNK N   1      28.993  18.336   4.912  0.00  0.00     0.030 A 
HETATM    4  C   UNK N   1      28.479  17.043   5.012  0.00  0.00     0.045 A 
HETATM    5  C   UNK N   1      27.155  16.812   4.874  0.00  0.00     0.009 A 
HETATM    6  C   UNK N   1      26.222  17.788   4.620  0.00  0.00    -0.015 A 
HETATM    7  C   UNK N   1      24.819  17.342   4.474  0.00  0.00    -0.017 C 
HETATM    8  C   UNK N   1      26.922  15.490   5.074  0.00  0.00    -0.027 A 
HETATM    9  C   UNK N   1      25.529  14.928   5.122  0.00  0.00     0.081 C 
HETATM   10  C   UNK N   1      24.553  15.821   4.287  0.00  0.00     0.260 C 
HETATM   11  C   UNK N   1      22.406  17.732   4.349  0.00  0.00     0.129 C 
HETATM   12  C   UNK N   1      23.809  18.224   4.514  0.00  0.00    -0.001 C 
HETATM   13  N   UNK N   1      23.112  15.443   4.398  0.00  0.00     0.094 N 
HETATM   14  C   UNK N   1      22.289  16.419   5.108  0.00  0.00     0.290 C 
HETATM   15  C   UNK N   1      28.163  14.906   5.329  0.00  0.00     0.099 A 
HETATM   16  N   UNK N   1      29.111  15.880   5.272  0.00  0.00    -0.360 N 
HETATM   17  C   UNK N   1      22.871  14.120   4.962  0.00  0.00     0.310 C 
HETATM   18  C   UNK N   1      30.535  15.696   5.495  0.00  0.00     0.155 C 
ENDROOT
BRANCH  11  19
HETATM   19  C   UNK N   1      21.334  18.744   4.685  0.00  0.00     0.227 C 
HETATM   20  N   UNK N   1      20.625  19.366   3.705  0.00  0.00    -0.354 N 
HETATM   21  H   UNK N   1      19.961  20.045   3.967  0.00  0.00     0.163 HD
HETATM   22  O   UNK N   1      21.114  19.034   5.851  0.00  0.00    -0.273 OA
BRANCH  20  23
HETATM   23  C   UNK N   1      20.798  19.082   2.297  0.00  0.00     0.107 C 
BRANCH  23  24
HETATM   24  C   UNK N   1      19.739  18.088   1.847  0.00  0.00     0.023 C 
HETATM   25  C   UNK N   1      20.373  16.780   1.409  0.00  0.00     0.007 C 
ENDBRANCH  23  24
BRANCH  23  26
HETATM   26  C   UNK N   1      20.731  20.363   1.469  0.00  0.00     0.189 C 
BRANCH  26  27
HETATM   27  O   UNK N   1      20.723  20.047   0.110  0.00  0.00    -0.399 OA
HETATM   28  H   UNK N   1      20.017  19.492  -0.258  0.00  0.00     0.209 HD
ENDBRANCH  26  27
ENDBRANCH  23  26
ENDBRANCH  20  23
ENDBRANCH  11  19
TORSDOF 5
ENDMDL
MODEL 6
REMARK VINA RESULT:      -6.4      3.832      8.221
REMARK  5 active torsions:
REMARK  status: ('A' for Active; 'I' for Inactive)
REMARK    1  A    between atoms: C_11  and  C_17 
REMARK       I    between atoms: C_17  and  N_19 
REMARK    2  A    between atoms: N_19  and  C_20 
REMARK    3  A    between atoms: C_20  and  C_21 
REMARK    4  A    between atoms: C_20  and  C_24 
REMARK    5  A    between atoms: C_24  and  O_25 
ROOT
HETATM    1  C   UNK N   1      31.858  17.596   7.461  0.00  0.00     0.013 A 
HETATM    2  C   UNK N   1      33.080  17.496   8.181  0.00  0.00     0.003 A 
HETATM    3  C   UNK N   1      34.156  16.720   7.677  0.00  0.00     0.030 A 
HETATM    4  C   UNK N   1      33.954  16.052   6.469  0.00  0.00     0.045 A 
HETATM    5  C   UNK N   1      32.783  16.162   5.804  0.00  0.00     0.009 A 
HETATM    6  C   UNK N   1      31.721  16.921   6.232  0.00  0.00    -0.015 A 
HETATM    7  C   UNK N   1      30.527  16.940   5.357  0.00  0.00    -0.017 C 
HETATM    8  C   UNK N   1      32.835  15.372   4.702  0.00  0.00    -0.027 A 
HETATM    9  C   UNK N   1      31.638  15.167   3.817  0.00  0.00     0.081 C 
HETATM   10  C   UNK N   1      30.676  16.396   3.908  0.00  0.00     0.260 C 
HETATM   11  C   UNK N   1      28.173  17.416   4.888  0.00  0.00     0.129 C 
HETATM   12  C   UNK N   1      29.351  17.401   5.808  0.00  0.00    -0.001 C 
HETATM   13  N   UNK N   1      29.376  16.227   3.191  0.00  0.00     0.094 N 
HETATM   14  C   UNK N   1      28.214  16.134   4.071  0.00  0.00     0.290 C 
HETATM   15  C   UNK N   1      34.096  14.777   4.702  0.00  0.00     0.099 A 
HETATM   16  N   UNK N   1      34.775  15.222   5.794  0.00  0.00    -0.360 N 
HETATM   17  C   UNK N   1      29.343  15.119   2.243  0.00  0.00     0.310 C 
HETATM   18  C   UNK N   1      36.123  14.833   6.175  0.00  0.00     0.155 C 
ENDROOT
BRANCH  11  19
HETATM   19  C   UNK N   1      26.844  17.686   5.558  0.00  0.00     0.227 C 
HETATM   20  N   UNK N   1      26.367  18.953   5.684  0.00  0.00    -0.354 N 
HETATM   21  H   UNK N   1      25.515  19.087   6.160  0.00  0.00     0.163 HD
HETATM   22  O   UNK N   1      26.198  16.759   6.022  0.00  0.00    -0.273 OA
BRANCH  20  23
HETATM   23  C   UNK N   1      27.048  20.115   5.155  0.00  0.00     0.107 C 
BRANCH  23  24
HETATM   24  C   UNK N   1      26.448  20.484   3.808  0.00  0.00     0.023 C 
HETATM   25  C   UNK N   1      24.961  20.180   3.774  0.00  0.00     0.007 C 
ENDBRANCH  23  24
BRANCH  23  26
HETATM   26  C   UNK N   1      26.965  21.288   6.130  0.00  0.00     0.189 C 
BRANCH  26  27
HETATM   27  O   UNK N   1      26.175  20.936   7.225  0.00  0.00    -0.399 OA
HETATM   28  H   UNK N   1      25.465  21.525   7.524  0.00  0.00     0.209 HD
ENDBRANCH  26  27
ENDBRANCH  23  26
ENDBRANCH  20  23
ENDBRANCH  11  19
TORSDOF 5
ENDMDL
MODEL 7
REMARK VINA RESULT:      -6.2      6.658     11.857
REMARK  5 active torsions:
REMARK  status: ('A' for Active; 'I' for Inactive)
REMARK    1  A    between atoms: C_11  and  C_17 
REMARK       I    between atoms: C_17  and  N_19 
REMARK    2  A    between atoms: N_19  and  C_20 
REMARK    3  A    between atoms: C_20  and  C_21 
REMARK    4  A    between atoms: C_20  and  C_24 
REMARK    5  A    between atoms: C_24  and  O_25 
ROOT
HETATM    1  C   UNK N   1      35.150  12.321  17.339  0.00  0.00     0.013 A 
HETATM    2  C   UNK N   1      35.101  12.793  18.680  0.00  0.00     0.003 A 
HETATM    3  C   UNK N   1      35.660  12.029  19.737  0.00  0.00     0.030 A 
HETATM    4  C   UNK N   1      36.235  10.801  19.406  0.00  0.00     0.045 A 
HETATM    5  C   UNK N   1      36.267  10.374  18.125  0.00  0.00     0.009 A 
HETATM    6  C   UNK N   1      35.766  11.084  17.061  0.00  0.00    -0.015 A 
HETATM    7  C   UNK N   1      35.915  10.467  15.724  0.00  0.00    -0.017 C 
HETATM    8  C   UNK N   1      36.823   9.136  18.095  0.00  0.00    -0.027 A 
HETATM    9  C   UNK N   1      36.883   8.325  16.831  0.00  0.00     0.081 C 
HETATM   10  C   UNK N   1      36.891   9.265  15.581  0.00  0.00     0.260 C 
HETATM   11  C   UNK N   1      35.409  10.282  13.337  0.00  0.00     0.129 C 
HETATM   12  C   UNK N   1      35.219  10.926  14.674  0.00  0.00    -0.001 C 
HETATM   13  N   UNK N   1      36.788   8.558  14.269  0.00  0.00     0.094 N 
HETATM   14  C   UNK N   1      35.528   8.783  13.564  0.00  0.00     0.290 C 
HETATM   15  C   UNK N   1      37.148   8.818  19.413  0.00  0.00     0.099 A 
HETATM   16  N   UNK N   1      36.789   9.865  20.204  0.00  0.00    -0.360 N 
HETATM   17  C   UNK N   1      37.050   7.125  14.326  0.00  0.00     0.310 C 
HETATM   18  C   UNK N   1      36.942   9.933  21.647  0.00  0.00     0.155 C 
ENDROOT
BRANCH  11  19
HETATM   19  C   UNK N   1      34.391  10.675  12.291  0.00  0.00     0.227 C 
HETATM   20  N   UNK N   1      34.533  11.819  11.568  0.00  0.00    -0.354 N 
HETATM   21  H   UNK N   1      33.828  12.055  10.922  0.00  0.00     0.163 HD
HETATM   22  O   UNK N   1      33.406   9.976  12.106  0.00  0.00    -0.273 OA
BRANCH  20  23
HETATM   23  C   UNK N   1      35.668  12.706  11.700  0.00  0.00     0.107 C 
BRANCH  23  24
HETATM   24  C   UNK N   1      36.370  12.834  10.357  0.00  0.00     0.023 C 
HETATM   25  C   UNK N   1      37.743  13.461  10.519  0.00  0.00     0.007 C 
ENDBRANCH  23  24
BRANCH  23  26
HETATM   26  C   UNK N   1      35.236  14.074  12.223  0.00  0.00     0.189 C 
BRANCH  26  27
HETATM   27  O   UNK N   1      34.057  14.470  11.589  0.00  0.00    -0.399 OA
HETATM   28  H   UNK N   1      33.432  15.057  12.043  0.00  0.00     0.209 HD
ENDBRANCH  26  27
ENDBRANCH  23  26
ENDBRANCH  20  23
ENDBRANCH  11  19
TORSDOF 5
ENDMDL
MODEL 8
REMARK VINA RESULT:      -6.1      4.635      9.011
REMARK  5 active torsions:
REMARK  status: ('A' for Active; 'I' for Inactive)
REMARK    1  A    between atoms: C_11  and  C_17 
REMARK       I    between atoms: C_17  and  N_19 
REMARK    2  A    between atoms: N_19  and  C_20 
REMARK    3  A    between atoms: C_20  and  C_21 
REMARK    4  A    between atoms: C_20  and  C_24 
REMARK    5  A    between atoms: C_24  and  O_25 
ROOT
HETATM    1  C   UNK N   1      28.397  17.988   8.583  0.00  0.00     0.013 A 
HETATM    2  C   UNK N   1      29.371  18.644   9.386  0.00  0.00     0.003 A 
HETATM    3  C   UNK N   1      30.756  18.459   9.140  0.00  0.00     0.030 A 
HETATM    4  C   UNK N   1      31.113  17.602   8.099  0.00  0.00     0.045 A 
HETATM    5  C   UNK N   1      30.170  16.989   7.351  0.00  0.00     0.009 A 
HETATM    6  C   UNK N   1      28.817  17.153   7.528  0.00  0.00    -0.015 A 
HETATM    7  C   UNK N   1      27.934  16.420   6.594  0.00  0.00    -0.017 C 
HETATM    8  C   UNK N   1      30.786  16.175   6.457  0.00  0.00    -0.027 A 
HETATM    9  C   UNK N   1      30.011  15.249   5.563  0.00  0.00     0.081 C 
HETATM   10  C   UNK N   1      28.572  15.809   5.314  0.00  0.00     0.260 C 
HETATM   11  C   UNK N   1      25.765  15.542   5.876  0.00  0.00     0.129 C 
HETATM   12  C   UNK N   1      26.625  16.279   6.853  0.00  0.00    -0.001 C 
HETATM   13  N   UNK N   1      27.664  14.887   4.569  0.00  0.00     0.094 N 
HETATM   14  C   UNK N   1      26.564  14.352   5.369  0.00  0.00     0.290 C 
HETATM   15  C   UNK N   1      32.156  16.319   6.673  0.00  0.00     0.099 A 
HETATM   16  N   UNK N   1      32.336  17.214   7.681  0.00  0.00    -0.360 N 
HETATM   17  C   UNK N   1      28.336  13.785   3.890  0.00  0.00     0.310 C 
HETATM   18  C   UNK N   1      33.615  17.636   8.227  0.00  0.00     0.155 C 
ENDROOT
BRANCH  11  19
HETATM   19  C   UNK N   1      24.382  15.195   6.381  0.00  0.00     0.227 C 
HETATM   20  N   UNK N   1      23.276  15.784   5.853  0.00  0.00    -0.354 N 
HETATM   21  H   UNK N   1      22.397  15.556   6.236  0.00  0.00     0.163 HD
HETATM   22  O   UNK N   1      24.251  14.397   7.296  0.00  0.00    -0.273 OA
BRANCH  20  23
HETATM   23  C   UNK N   1      23.323  16.729   4.758  0.00  0.00     0.107 C 
BRANCH  23  24
HETATM   24  C   UNK N   1      22.616  16.137   3.548  0.00  0.00     0.023 C 
HETATM   25  C   UNK N   1      21.340  16.898   3.239  0.00  0.00     0.007 C 
ENDBRANCH  23  24
BRANCH  23  26
HETATM   26  C   UNK N   1      22.696  18.062   5.159  0.00  0.00     0.189 C 
BRANCH  26  27
HETATM   27  O   UNK N   1      22.254  17.997   6.480  0.00  0.00    -0.399 OA
HETATM   28  H   UNK N   1      21.330  17.775   6.676  0.00  0.00     0.209 HD
ENDBRANCH  26  27
ENDBRANCH  23  26
ENDBRANCH  20  23
ENDBRANCH  11  19
TORSDOF 5
ENDMDL
MODEL 9
REMARK VINA RESULT:      -6.1      4.407      7.369
REMARK  5 active torsions:
REMARK  status: ('A' for Active; 'I' for Inactive)
REMARK    1  A    between atoms: C_11  and  C_17 
REMARK       I    between atoms: C_17  and  N_19 
REMARK    2  A    between atoms: N_19  and  C_20 
REMARK    3  A    between atoms: C_20  and  C_21 
REMARK    4  A    between atoms: C_20  and  C_24 
REMARK    5  A    between atoms: C_24  and  O_25 
ROOT
HETATM    1  C   UNK N   1      23.570  16.620   5.113  0.00  0.00     0.013 A 
HETATM    2  C   UNK N   1      22.258  16.248   4.713  0.00  0.00     0.003 A 
HETATM    3  C   UNK N   1      22.047  15.510   3.520  0.00  0.00     0.030 A 
HETATM    4  C   UNK N   1      23.170  15.187   2.758  0.00  0.00     0.045 A 
HETATM    5  C   UNK N   1      24.407  15.554   3.158  0.00  0.00     0.009 A 
HETATM    6  C   UNK N   1      24.671  16.244   4.316  0.00  0.00    -0.015 A 
HETATM    7  C   UNK N   1      26.093  16.536   4.603  0.00  0.00    -0.017 C 
HETATM    8  C   UNK N   1      25.301  15.169   2.212  0.00  0.00    -0.027 A 
HETATM    9  C   UNK N   1      26.753  15.546   2.294  0.00  0.00     0.081 C 
HETATM   10  C   UNK N   1      27.174  15.776   3.782  0.00  0.00     0.260 C 
HETATM   11  C   UNK N   1      27.884  17.693   5.804  0.00  0.00     0.129 C 
HETATM   12  C   UNK N   1      26.436  17.438   5.536  0.00  0.00    -0.001 C 
HETATM   13  N   UNK N   1      28.556  16.312   3.965  0.00  0.00     0.094 N 
HETATM   14  C   UNK N   1      28.607  17.684   4.466  0.00  0.00     0.290 C 
HETATM   15  C   UNK N   1      24.566  14.533   1.212  0.00  0.00     0.099 A 
HETATM   16  N   UNK N   1      23.255  14.543   1.576  0.00  0.00    -0.360 N 
HETATM   17  C   UNK N   1      29.411  16.205   2.788  0.00  0.00     0.310 C 
HETATM   18  C   UNK N   1      22.154  13.995   0.803  0.00  0.00     0.155 C 
ENDROOT
BRANCH  11  19
HETATM   19  C   UNK N   1      28.169  18.909   6.657  0.00  0.00     0.227 C 
HETATM   20  N   UNK N   1      28.867  18.801   7.820  0.00  0.00    -0.354 N 
HETATM   21  H   UNK N   1      28.998  19.612   8.364  0.00  0.00     0.163 HD
HETATM   22  O   UNK N   1      27.745  20.003   6.319  0.00  0.00    -0.273 OA
BRANCH  20  23
HETATM   23  C   UNK N   1      29.425  17.555   8.301  0.00  0.00     0.107 C 
BRANCH  23  24
HETATM   24  C   UNK N   1      30.913  17.514   7.990  0.00  0.00     0.023 C 
HETATM   25  C   UNK N   1      31.216  16.482   6.920  0.00  0.00     0.007 C 
ENDBRANCH  23  24
BRANCH  23  26
HETATM   26  C   UNK N   1      29.173  17.385   9.797  0.00  0.00     0.189 C 
BRANCH  26  27
HETATM   27  O   UNK N   1      29.652  18.499  10.486  0.00  0.00    -0.399 OA
HETATM   28  H   UNK N   1      29.436  19.394  10.179  0.00  0.00     0.209 HD
ENDBRANCH  26  27
ENDBRANCH  23  26
ENDBRANCH  20  23
ENDBRANCH  11  19
TORSDOF 5
ENDMDL
