MODEL 1
REMARK VINA RESULT:      -1.2      0.000      0.000
REMARK  1 active torsions:
REMARK  status: ('A' for Active; 'I' for Inactive)
REMARK    1  A    between atoms: Mg_1  and  Mg_1 
ROOT
HETATM    1 Mg   UNK N   1      39.964  21.073  13.075  0.00  0.00     0.000 Mg
ENDROOT
TORSDOF 1
ENDMDL
MODEL 2
REMARK VINA RESULT:      -1.2      4.352      4.352
REMARK  1 active torsions:
REMARK  status: ('A' for Active; 'I' for Inactive)
REMARK    1  A    between atoms: Mg_1  and  Mg_1 
ROOT
HETATM    1 Mg   UNK N   1      35.636  21.382  12.738  0.00  0.00     0.000 Mg
ENDROOT
TORSDOF 1
ENDMDL
MODEL 3
REMARK VINA RESULT:      -1.2     26.829     26.829
REMARK  1 active torsions:
REMARK  status: ('A' for Active; 'I' for Inactive)
REMARK    1  A    between atoms: Mg_1  and  Mg_1 
ROOT
HETATM    1 Mg   UNK N   1      21.453  21.778  -6.332  0.00  0.00     0.000 Mg
ENDROOT
TORSDOF 1
ENDMDL
MODEL 4
REMARK VINA RESULT:      -1.1      9.592      9.592
REMARK  1 active torsions:
REMARK  status: ('A' for Active; 'I' for Inactive)
REMARK    1  A    between atoms: Mg_1  and  Mg_1 
ROOT
HETATM    1 Mg   UNK N   1      43.320  25.304   5.147  0.00  0.00     0.000 Mg
ENDROOT
TORSDOF 1
ENDMDL
MODEL 5
REMARK VINA RESULT:      -1.1     21.899     21.899
REMARK  1 active torsions:
REMARK  status: ('A' for Active; 'I' for Inactive)
REMARK    1  A    between atoms: Mg_1  and  Mg_1 
ROOT
HETATM    1 Mg   UNK N   1      21.613  31.062  19.633  0.00  0.00     0.000 Mg
ENDROOT
TORSDOF 1
ENDMDL
MODEL 6
REMARK VINA RESULT:      -1.1     14.862     14.862
REMARK  1 active torsions:
REMARK  status: ('A' for Active; 'I' for Inactive)
REMARK    1  A    between atoms: Mg_1  and  Mg_1 
ROOT
HETATM    1 Mg   UNK N   1      48.685  30.681   5.827  0.00  0.00     0.000 Mg
ENDROOT
TORSDOF 1
ENDMDL
MODEL 7
REMARK VINA RESULT:      -1.1      6.859      6.859
REMARK  1 active torsions:
REMARK  status: ('A' for Active; 'I' for Inactive)
REMARK    1  A    between atoms: Mg_1  and  Mg_1 
ROOT
HETATM    1 Mg   UNK N   1      45.119  25.582  12.711  0.00  0.00     0.000 Mg
ENDROOT
TORSDOF 1
ENDMDL
MODEL 8
REMARK VINA RESULT:      -1.0     27.747     27.747
REMARK  1 active torsions:
REMARK  status: ('A' for Active; 'I' for Inactive)
REMARK    1  A    between atoms: Mg_1  and  Mg_1 
ROOT
HETATM    1 Mg   UNK N   1      19.922  20.074  -6.088  0.00  0.00     0.000 Mg
ENDROOT
TORSDOF 1
ENDMDL
MODEL 9
REMARK VINA RESULT:      -1.0      9.565      9.565
REMARK  1 active torsions:
REMARK  status: ('A' for Active; 'I' for Inactive)
REMARK    1  A    between atoms: Mg_1  and  Mg_1 
ROOT
HETATM    1 Mg   UNK N   1      42.899  29.357  16.852  0.00  0.00     0.000 Mg
ENDROOT
TORSDOF 1
ENDMDL
