REMARK  10 active torsions:
REMARK  status: ('A' for Active; 'I' for Inactive)
REMARK    1  A    between atoms: C_2  and  C_1 
REMARK       I    between atoms: N_4  and  C_2 
REMARK    2  A    between atoms: O_18  and  C_3 
REMARK    3  A    between atoms: C_7  and  N_4 
REMARK    4  A    between atoms: C_9  and  O_20 
REMARK    5  A    between atoms: N_16  and  C_10 
REMARK    6  A    between atoms: C_27  and  N_11 
REMARK    7  A    between atoms: O_29  and  C_21 
REMARK    8  A    between atoms: C_28  and  C_27 
REMARK    9  A    between atoms: C_30  and  C_28 
REMARK   10  A    between atoms: C_30  and  O_29 
ROOT
HETATM    1  C   UNK N   1       9.432  -7.840   0.249  0.00  0.00     0.117 C 
HETATM    2  C   UNK N   1      10.494  -8.483   1.129  0.00  0.00     0.171 C 
HETATM    3  N   UNK N   1       9.075 -10.393   0.321  0.00  0.00     0.091 N 
HETATM    4  C   UNK N   1      10.228 -10.013   1.169  0.00  0.00     0.306 C 
HETATM    5  C   UNK N   1       9.377  -8.434  -1.155  0.00  0.00     0.058 C 
HETATM    6  C   UNK N   1       9.273  -9.960  -1.066  0.00  0.00     0.274 C 
ENDROOT
BRANCH   1   7
HETATM    7  N   UNK N   1       9.347  -6.405   0.255  0.00  0.00    -0.350 N 
HETATM    8  C   UNK N   1       8.150  -5.761   0.118  0.00  0.00     0.254 C 
HETATM    9  O   UNK N   1       8.164  -4.560  -0.070  0.00  0.00    -0.268 OA
HETATM   10  H   UNK N   1      10.170  -5.875   0.360  0.00  0.00     0.163 HD
BRANCH   8  11
HETATM   11  C   UNK N   1       6.832  -6.510   0.140  0.00  0.00     0.067 A 
HETATM   12  C   UNK N   1       5.648  -6.017  -0.480  0.00  0.00     0.086 A 
HETATM   13  C   UNK N   1       4.489  -6.808  -0.483  0.00  0.00     0.068 A 
HETATM   14  C   UNK N   1       4.465  -8.057   0.141  0.00  0.00     0.050 A 
HETATM   15  C   UNK N   1       5.608  -8.531   0.785  0.00  0.00     0.061 A 
HETATM   16  C   UNK N   1       6.766  -7.764   0.774  0.00  0.00     0.046 A 
HETATM   17 Cl   UNK N   1       5.624 -10.088   1.597  0.00  0.00    -0.082 Cl
BRANCH  12  18
HETATM   18  O   UNK N   1       5.606  -4.833  -1.124  0.00  0.00    -0.355 OA
HETATM   19  C   UNK N   1       5.615  -3.640  -0.443  0.00  0.00     0.210 C 
ENDBRANCH  12  18
BRANCH  14  20
HETATM   20  N   UNK N   1       3.285  -8.829   0.117  0.00  0.00    -0.398 N 
HETATM   21  H   UNK N   1       2.406  -8.385   0.100  0.00  0.00     0.156 HD
HETATM   22  H   UNK N   1       3.340  -9.812   0.117  0.00  0.00     0.156 HD
ENDBRANCH  14  20
ENDBRANCH   8  11
ENDBRANCH   1   7
BRANCH   2  23
HETATM   23  O   UNK N   1      11.764  -8.235   0.599  0.00  0.00    -0.387 OA
HETATM   24  C   UNK N   1      12.288  -7.182   1.350  0.00  0.00     0.202 C 
ENDBRANCH   2  23
BRANCH   3  25
HETATM   25  C   UNK N   1       8.706 -11.811   0.362  0.00  0.00     0.274 C 
BRANCH  25  26
HETATM   26  C   UNK N   1       9.880 -12.786   0.363  0.00  0.00     0.057 C 
BRANCH  26  27
HETATM   27  C   UNK N   1      10.847 -12.566  -0.785  0.00  0.00     0.177 C 
BRANCH  27  28
HETATM   28  O   UNK N   1      12.111 -12.750  -0.281  0.00  0.00    -0.351 OA
BRANCH  28  29
HETATM   29  C   UNK N   1      13.044 -11.775  -0.234  0.00  0.00     0.068 A 
HETATM   30  C   UNK N   1      12.935 -10.602  -1.002  0.00  0.00     0.040 A 
HETATM   31  C   UNK N   1      13.915  -9.607  -0.904  0.00  0.00     0.045 A 
HETATM   32  C   UNK N   1      14.994  -9.772  -0.031  0.00  0.00     0.116 A 
HETATM   33  C   UNK N   1      15.106 -10.938   0.729  0.00  0.00     0.045 A 
HETATM   34  F   UNK N   1      15.933  -8.803   0.080  0.00  0.00    -0.206 F 
HETATM   35  C   UNK N   1      14.137 -11.938   0.622  0.00  0.00     0.040 A 
ENDBRANCH  28  29
ENDBRANCH  27  28
ENDBRANCH  26  27
ENDBRANCH  25  26
ENDBRANCH   3  25
TORSDOF 10
