MODEL 1
REMARK VINA RESULT:      -8.9      0.000      0.000
REMARK  8 active torsions:
REMARK  status: ('A' for Active; 'I' for Inactive)
REMARK    1  A    between atoms: C_1  and  O_14 
REMARK    2  A    between atoms: C_2  and  C_20 
REMARK    3  A    between atoms: C_3  and  C_13 
REMARK    4  A    between atoms: C_5  and  C_10 
REMARK    5  A    between atoms: C_7  and  C_9 
REMARK    6  A    between atoms: C_13  and  O_14 
REMARK    7  A    between atoms: N_19  and  C_27 
REMARK    8  A    between atoms: C_27  and  C_28 
ROOT
HETATM    1  C   UNK N   1      23.337  15.624   4.467  0.00  0.00     0.298 C 
HETATM    2  C   UNK N   1      21.881  16.092   4.263  0.00  0.00     0.311 C 
HETATM    3  O   UNK N   1      24.264  16.599   4.004  0.00  0.00    -0.357 OA
HETATM    4  C   UNK N   1      24.183  17.744   4.833  0.00  0.00     0.201 C 
HETATM    5  C   UNK N   1      22.737  18.218   4.995  0.00  0.00     0.300 C 
HETATM    6  N   UNK N   1      21.912  17.542   3.994  0.00  0.00     0.111 N 
ENDROOT
BRANCH   1   7
HETATM    7  O   UNK N   1      23.565  15.277   5.809  0.00  0.00    -0.349 OA
BRANCH   7   8
HETATM    8  C   UNK N   1      22.843  14.097   5.983  0.00  0.00     0.153 C 
HETATM    9  C   UNK N   1      23.757  12.889   5.820  0.00  0.00     0.045 C 
BRANCH   8  10
HETATM   10  C   UNK N   1      22.026  14.111   7.241  0.00  0.00    -0.028 A 
HETATM   11  C   UNK N   1      22.323  13.219   8.280  0.00  0.00     0.025 A 
HETATM   12  C   UNK N   1      21.609  13.264   9.484  0.00  0.00     0.049 A 
HETATM   13  C   UNK N   1      20.608  14.234   9.650  0.00  0.00     0.032 A 
HETATM   14  C   UNK N   1      20.329  15.148   8.624  0.00  0.00     0.049 A 
HETATM   15  C   UNK N   1      21.037  15.074   7.425  0.00  0.00     0.025 A 
BRANCH  12  16
HETATM   16  C   UNK N   1      21.953  12.308  10.591  0.00  0.00     0.417 C 
HETATM   17  F   UNK N   1      22.466  11.145  10.046  0.00  0.00    -0.166 F 
HETATM   18  F   UNK N   1      20.820  12.006  11.324  0.00  0.00    -0.166 F 
HETATM   19  F   UNK N   1      22.900  12.850  11.443  0.00  0.00    -0.166 F 
ENDBRANCH  12  16
BRANCH  14  20
HETATM   20  C   UNK N   1      19.325  16.239   8.825  0.00  0.00     0.417 C 
HETATM   21  F   UNK N   1      18.686  16.514   7.632  0.00  0.00    -0.166 F 
HETATM   22  F   UNK N   1      19.937  17.393   9.285  0.00  0.00    -0.166 F 
HETATM   23  F   UNK N   1      18.395  15.830   9.763  0.00  0.00    -0.166 F 
ENDBRANCH  14  20
ENDBRANCH   8  10
ENDBRANCH   7   8
ENDBRANCH   1   7
BRANCH   2  24
HETATM   24  C   UNK N   1      21.239  15.270   3.156  0.00  0.00    -0.020 A 
HETATM   25  C   UNK N   1      21.812  15.153   1.878  0.00  0.00     0.012 A 
HETATM   26  C   UNK N   1      21.177  14.403   0.881  0.00  0.00     0.043 A 
HETATM   27  C   UNK N   1      19.972  13.751   1.156  0.00  0.00     0.116 A 
HETATM   28  C   UNK N   1      19.398  13.855   2.421  0.00  0.00     0.043 A 
HETATM   29  F   UNK N   1      19.360  13.018   0.194  0.00  0.00    -0.206 F 
HETATM   30  C   UNK N   1      20.021  14.619   3.411  0.00  0.00     0.012 A 
ENDBRANCH   2  24
BRANCH   6  31
HETATM   31  C   UNK N   1      20.626  18.210   3.891  0.00  0.00     0.351 C 
BRANCH  31  32
HETATM   32  C   UNK N   1      20.850  19.349   2.954  0.00  0.00     0.128 A 
HETATM   33  N   UNK N   1      21.019  19.191   1.625  0.00  0.00    -0.294 N 
HETATM   34  C   UNK N   1      20.956  20.460   1.170  0.00  0.00     0.340 A 
HETATM   35  H   UNK N   1      21.153  18.359   1.115  0.00  0.00     0.172 HD
HETATM   36  N   UNK N   1      20.748  21.348   2.169  0.00  0.00    -0.250 N 
HETATM   37  O   UNK N   1      21.043  20.765  -0.006  0.00  0.00    -0.245 OA
HETATM   38  N   UNK N   1      20.672  20.642   3.288  0.00  0.00    -0.283 N 
HETATM   39  H   UNK N   1      20.669  22.326   2.083  0.00  0.00     0.192 HD
ATOM     40  HN  UNK N   1      20.507  21.008   4.225  1.00  0.00     0.188 HD
ENDBRANCH  31  32
ENDBRANCH   6  31
TORSDOF 8
ENDMDL
MODEL 2
REMARK VINA RESULT:      -8.9      0.134      2.851
REMARK  8 active torsions:
REMARK  status: ('A' for Active; 'I' for Inactive)
REMARK    1  A    between atoms: C_1  and  O_14 
REMARK    2  A    between atoms: C_2  and  C_20 
REMARK    3  A    between atoms: C_3  and  C_13 
REMARK    4  A    between atoms: C_5  and  C_10 
REMARK    5  A    between atoms: C_7  and  C_9 
REMARK    6  A    between atoms: C_13  and  O_14 
REMARK    7  A    between atoms: N_19  and  C_27 
REMARK    8  A    between atoms: C_27  and  C_28 
ROOT
HETATM    1  C   UNK N   1      23.400  15.599   4.354  0.00  0.00     0.298 C 
HETATM    2  C   UNK N   1      21.936  16.049   4.166  0.00  0.00     0.311 C 
HETATM    3  O   UNK N   1      24.310  16.592   3.897  0.00  0.00    -0.357 OA
HETATM    4  C   UNK N   1      24.218  17.726   4.740  0.00  0.00     0.201 C 
HETATM    5  C   UNK N   1      22.767  18.178   4.918  0.00  0.00     0.300 C 
HETATM    6  N   UNK N   1      21.945  17.502   3.914  0.00  0.00     0.111 N 
ENDROOT
BRANCH   1   7
HETATM    7  O   UNK N   1      23.642  15.240   5.691  0.00  0.00    -0.349 OA
BRANCH   7   8
HETATM    8  C   UNK N   1      22.774  14.172   5.920  0.00  0.00     0.153 C 
HETATM    9  C   UNK N   1      23.484  12.849   5.666  0.00  0.00     0.045 C 
BRANCH   8  10
HETATM   10  C   UNK N   1      22.081  14.278   7.245  0.00  0.00    -0.028 A 
HETATM   11  C   UNK N   1      21.072  15.232   7.436  0.00  0.00     0.025 A 
HETATM   12  C   UNK N   1      20.374  15.298   8.648  0.00  0.00     0.049 A 
HETATM   13  C   UNK N   1      20.676  14.378   9.664  0.00  0.00     0.032 A 
HETATM   14  C   UNK N   1      21.663  13.402   9.465  0.00  0.00     0.049 A 
HETATM   15  C   UNK N   1      22.361  13.365   8.260  0.00  0.00     0.025 A 
BRANCH  12  16
HETATM   16  C   UNK N   1      19.286  16.319   8.826  0.00  0.00     0.417 C 
HETATM   17  F   UNK N   1      18.362  15.847   9.741  0.00  0.00    -0.166 F 
HETATM   18  F   UNK N   1      18.653  16.551   7.619  0.00  0.00    -0.166 F 
HETATM   19  F   UNK N   1      19.796  17.517   9.296  0.00  0.00    -0.166 F 
ENDBRANCH  12  16
BRANCH  14  20
HETATM   20  C   UNK N   1      21.931  12.364  10.508  0.00  0.00     0.417 C 
HETATM   21  F   UNK N   1      22.402  11.210   9.913  0.00  0.00    -0.166 F 
HETATM   22  F   UNK N   1      20.778  12.067  11.216  0.00  0.00    -0.166 F 
HETATM   23  F   UNK N   1      22.877  12.846  11.394  0.00  0.00    -0.166 F 
ENDBRANCH  14  20
ENDBRANCH   8  10
ENDBRANCH   7   8
ENDBRANCH   1   7
BRANCH   2  24
HETATM   24  C   UNK N   1      21.297  15.231   3.055  0.00  0.00    -0.020 A 
HETATM   25  C   UNK N   1      21.932  15.018   1.819  0.00  0.00     0.012 A 
HETATM   26  C   UNK N   1      21.299  14.276   0.814  0.00  0.00     0.043 A 
HETATM   27  C   UNK N   1      20.034  13.726   1.040  0.00  0.00     0.116 A 
HETATM   28  C   UNK N   1      19.398  13.927   2.264  0.00  0.00     0.043 A 
HETATM   29  F   UNK N   1      19.425  13.002   0.072  0.00  0.00    -0.206 F 
HETATM   30  C   UNK N   1      20.020  14.683   3.260  0.00  0.00     0.012 A 
ENDBRANCH   2  24
BRANCH   6  31
HETATM   31  C   UNK N   1      20.648  18.153   3.828  0.00  0.00     0.351 C 
BRANCH  31  32
HETATM   32  C   UNK N   1      20.855  19.317   2.920  0.00  0.00     0.128 A 
HETATM   33  N   UNK N   1      21.020  19.195   1.587  0.00  0.00    -0.294 N 
HETATM   34  C   UNK N   1      20.940  20.475   1.165  0.00  0.00     0.340 A 
HETATM   35  H   UNK N   1      21.164  18.379   1.055  0.00  0.00     0.172 HD
HETATM   36  N   UNK N   1      20.724  21.335   2.186  0.00  0.00    -0.250 N 
HETATM   37  O   UNK N   1      21.019  20.811  -0.004  0.00  0.00    -0.245 OA
HETATM   38  N   UNK N   1      20.662  20.600   3.287  0.00  0.00    -0.283 N 
HETATM   39  H   UNK N   1      20.633  22.314   2.126  0.00  0.00     0.192 HD
ATOM     40  HN  UNK N   1      20.496  20.940   4.234  1.00  0.00     0.188 HD
ENDBRANCH  31  32
ENDBRANCH   6  31
TORSDOF 8
ENDMDL
MODEL 3
REMARK VINA RESULT:      -8.8      6.637      9.355
REMARK  8 active torsions:
REMARK  status: ('A' for Active; 'I' for Inactive)
REMARK    1  A    between atoms: C_1  and  O_14 
REMARK    2  A    between atoms: C_2  and  C_20 
REMARK    3  A    between atoms: C_3  and  C_13 
REMARK    4  A    between atoms: C_5  and  C_10 
REMARK    5  A    between atoms: C_7  and  C_9 
REMARK    6  A    between atoms: C_13  and  O_14 
REMARK    7  A    between atoms: N_19  and  C_27 
REMARK    8  A    between atoms: C_27  and  C_28 
ROOT
HETATM    1  C   UNK N   1      29.184  16.495   4.260  0.00  0.00     0.298 C 
HETATM    2  C   UNK N   1      29.073  16.860   5.755  0.00  0.00     0.311 C 
HETATM    3  O   UNK N   1      30.541  16.448   3.837  0.00  0.00    -0.357 OA
HETATM    4  C   UNK N   1      31.187  15.362   4.475  0.00  0.00     0.201 C 
HETATM    5  C   UNK N   1      30.957  15.382   5.988  0.00  0.00     0.300 C 
HETATM    6  N   UNK N   1      30.408  16.687   6.357  0.00  0.00     0.111 N 
ENDROOT
BRANCH   1   7
HETATM    7  O   UNK N   1      28.508  15.293   3.991  0.00  0.00    -0.349 OA
BRANCH   7   8
HETATM    8  C   UNK N   1      27.577  15.637   3.010  0.00  0.00     0.153 C 
HETATM    9  C   UNK N   1      27.338  14.461   2.072  0.00  0.00     0.045 C 
BRANCH   8  10
HETATM   10  C   UNK N   1      26.338  16.249   3.592  0.00  0.00    -0.028 A 
HETATM   11  C   UNK N   1      25.613  15.565   4.576  0.00  0.00     0.025 A 
HETATM   12  C   UNK N   1      24.491  16.153   5.173  0.00  0.00     0.049 A 
HETATM   13  C   UNK N   1      24.115  17.450   4.794  0.00  0.00     0.032 A 
HETATM   14  C   UNK N   1      24.856  18.150   3.831  0.00  0.00     0.049 A 
HETATM   15  C   UNK N   1      25.958  17.541   3.234  0.00  0.00     0.025 A 
BRANCH  12  16
HETATM   16  C   UNK N   1      23.736  15.407   6.237  0.00  0.00     0.417 C 
HETATM   17  F   UNK N   1      22.725  16.213   6.730  0.00  0.00    -0.166 F 
HETATM   18  F   UNK N   1      24.588  15.065   7.270  0.00  0.00    -0.166 F 
HETATM   19  F   UNK N   1      23.168  14.251   5.730  0.00  0.00    -0.166 F 
ENDBRANCH  12  16
BRANCH  14  20
HETATM   20  C   UNK N   1      24.515  19.565   3.485  0.00  0.00     0.417 C 
HETATM   21  F   UNK N   1      23.182  19.654   3.134  0.00  0.00    -0.166 F 
HETATM   22  F   UNK N   1      25.290  20.016   2.428  0.00  0.00    -0.166 F 
HETATM   23  F   UNK N   1      24.758  20.370   4.582  0.00  0.00    -0.166 F 
ENDBRANCH  14  20
ENDBRANCH   8  10
ENDBRANCH   7   8
ENDBRANCH   1   7
BRANCH   2  24
HETATM   24  C   UNK N   1      28.510  18.267   5.889  0.00  0.00    -0.020 A 
HETATM   25  C   UNK N   1      27.989  18.755   7.100  0.00  0.00     0.012 A 
HETATM   26  C   UNK N   1      27.461  20.050   7.175  0.00  0.00     0.043 A 
HETATM   27  C   UNK N   1      27.463  20.874   6.046  0.00  0.00     0.116 A 
HETATM   28  C   UNK N   1      27.984  20.402   4.842  0.00  0.00     0.043 A 
HETATM   29  F   UNK N   1      26.960  22.129   6.119  0.00  0.00    -0.206 F 
HETATM   30  C   UNK N   1      28.493  19.103   4.762  0.00  0.00     0.012 A 
ENDBRANCH   2  24
BRANCH   6  31
HETATM   31  C   UNK N   1      30.500  16.865   7.796  0.00  0.00     0.351 C 
BRANCH  31  32
HETATM   32  C   UNK N   1      31.951  17.057   8.076  0.00  0.00     0.128 A 
HETATM   33  N   UNK N   1      32.741  17.882   7.356  0.00  0.00    -0.294 N 
HETATM   34  C   UNK N   1      33.874  17.912   8.088  0.00  0.00     0.340 A 
HETATM   35  H   UNK N   1      32.540  18.345   6.511  0.00  0.00     0.172 HD
HETATM   36  N   UNK N   1      33.780  17.154   9.204  0.00  0.00    -0.250 N 
HETATM   37  O   UNK N   1      34.855  18.572   7.794  0.00  0.00    -0.245 OA
HETATM   38  N   UNK N   1      32.564  16.626   9.196  0.00  0.00    -0.283 N 
HETATM   39  H   UNK N   1      34.476  17.019   9.887  0.00  0.00     0.192 HD
ATOM     40  HN  UNK N   1      32.166  16.011   9.905  1.00  0.00     0.188 HD
ENDBRANCH  31  32
ENDBRANCH   6  31
TORSDOF 8
ENDMDL
MODEL 4
REMARK VINA RESULT:      -8.7      5.600      7.873
REMARK  8 active torsions:
REMARK  status: ('A' for Active; 'I' for Inactive)
REMARK    1  A    between atoms: C_1  and  O_14 
REMARK    2  A    between atoms: C_2  and  C_20 
REMARK    3  A    between atoms: C_3  and  C_13 
REMARK    4  A    between atoms: C_5  and  C_10 
REMARK    5  A    between atoms: C_7  and  C_9 
REMARK    6  A    between atoms: C_13  and  O_14 
REMARK    7  A    between atoms: N_19  and  C_27 
REMARK    8  A    between atoms: C_27  and  C_28 
ROOT
HETATM    1  C   UNK N   1      25.630  18.975   4.232  0.00  0.00     0.298 C 
HETATM    2  C   UNK N   1      25.043  17.624   4.693  0.00  0.00     0.311 C 
HETATM    3  O   UNK N   1      24.935  19.482   3.100  0.00  0.00    -0.357 OA
HETATM    4  C   UNK N   1      23.616  19.827   3.484  0.00  0.00     0.201 C 
HETATM    5  C   UNK N   1      22.932  18.681   4.233  0.00  0.00     0.300 C 
HETATM    6  N   UNK N   1      23.727  17.467   4.049  0.00  0.00     0.111 N 
ENDROOT
BRANCH   1   7
HETATM    7  O   UNK N   1      25.651  19.897   5.292  0.00  0.00    -0.349 OA
BRANCH   7   8
HETATM    8  C   UNK N   1      26.978  20.324   5.346  0.00  0.00     0.153 C 
HETATM    9  C   UNK N   1      27.080  21.637   6.112  0.00  0.00     0.045 C 
BRANCH   8  10
HETATM   10  C   UNK N   1      27.906  19.242   5.812  0.00  0.00    -0.028 A 
HETATM   11  C   UNK N   1      28.802  18.650   4.912  0.00  0.00     0.025 A 
HETATM   12  C   UNK N   1      29.717  17.684   5.348  0.00  0.00     0.049 A 
HETATM   13  C   UNK N   1      29.747  17.334   6.706  0.00  0.00     0.032 A 
HETATM   14  C   UNK N   1      28.872  17.946   7.616  0.00  0.00     0.049 A 
HETATM   15  C   UNK N   1      27.955  18.891   7.159  0.00  0.00     0.025 A 
BRANCH  12  16
HETATM   16  C   UNK N   1      30.679  17.073   4.369  0.00  0.00     0.417 C 
HETATM   17  F   UNK N   1      31.116  15.855   4.858  0.00  0.00    -0.166 F 
HETATM   18  F   UNK N   1      31.767  17.908   4.191  0.00  0.00    -0.166 F 
HETATM   19  F   UNK N   1      30.076  16.862   3.141  0.00  0.00    -0.166 F 
ENDBRANCH  12  16
BRANCH  14  20
HETATM   20  C   UNK N   1      28.956  17.642   9.078  0.00  0.00     0.417 C 
HETATM   21  F   UNK N   1      27.827  16.957   9.481  0.00  0.00    -0.166 F 
HETATM   22  F   UNK N   1      29.063  18.808   9.819  0.00  0.00    -0.166 F 
HETATM   23  F   UNK N   1      30.076  16.867   9.315  0.00  0.00    -0.166 F 
ENDBRANCH  14  20
ENDBRANCH   8  10
ENDBRANCH   7   8
ENDBRANCH   1   7
BRANCH   2  24
HETATM   24  C   UNK N   1      26.029  16.511   4.371  0.00  0.00    -0.020 A 
HETATM   25  C   UNK N   1      26.574  15.681   5.365  0.00  0.00     0.012 A 
HETATM   26  C   UNK N   1      27.495  14.681   5.029  0.00  0.00     0.043 A 
HETATM   27  C   UNK N   1      27.866  14.491   3.695  0.00  0.00     0.116 A 
HETATM   28  C   UNK N   1      27.326  15.305   2.700  0.00  0.00     0.043 A 
HETATM   29  F   UNK N   1      28.750  13.519   3.367  0.00  0.00    -0.206 F 
HETATM   30  C   UNK N   1      26.423  16.315   3.038  0.00  0.00     0.012 A 
ENDBRANCH   2  24
BRANCH   6  31
HETATM   31  C   UNK N   1      22.944  16.308   4.446  0.00  0.00     0.351 C 
BRANCH  31  32
HETATM   32  C   UNK N   1      22.456  15.709   3.171  0.00  0.00     0.128 A 
HETATM   33  N   UNK N   1      21.322  16.103   2.555  0.00  0.00    -0.294 N 
HETATM   34  C   UNK N   1      21.403  15.473   1.364  0.00  0.00     0.340 A 
HETATM   35  H   UNK N   1      20.613  16.699   2.890  0.00  0.00     0.172 HD
HETATM   36  N   UNK N   1      22.535  14.741   1.252  0.00  0.00    -0.250 N 
HETATM   37  O   UNK N   1      20.569  15.579   0.482  0.00  0.00    -0.245 OA
HETATM   38  N   UNK N   1      23.198  14.902   2.388  0.00  0.00    -0.283 N 
HETATM   39  H   UNK N   1      22.811  14.195   0.481  0.00  0.00     0.192 HD
ATOM     40  HN  UNK N   1      24.102  14.493   2.625  1.00  0.00     0.188 HD
ENDBRANCH  31  32
ENDBRANCH   6  31
TORSDOF 8
ENDMDL
MODEL 5
REMARK VINA RESULT:      -8.7      5.465      7.723
REMARK  8 active torsions:
REMARK  status: ('A' for Active; 'I' for Inactive)
REMARK    1  A    between atoms: C_1  and  O_14 
REMARK    2  A    between atoms: C_2  and  C_20 
REMARK    3  A    between atoms: C_3  and  C_13 
REMARK    4  A    between atoms: C_5  and  C_10 
REMARK    5  A    between atoms: C_7  and  C_9 
REMARK    6  A    between atoms: C_13  and  O_14 
REMARK    7  A    between atoms: N_19  and  C_27 
REMARK    8  A    between atoms: C_27  and  C_28 
ROOT
HETATM    1  C   UNK N   1      25.547  18.914   4.277  0.00  0.00     0.298 C 
HETATM    2  C   UNK N   1      24.903  17.592   4.742  0.00  0.00     0.311 C 
HETATM    3  O   UNK N   1      24.907  19.422   3.113  0.00  0.00    -0.357 OA
HETATM    4  C   UNK N   1      23.588  19.814   3.445  0.00  0.00     0.201 C 
HETATM    5  C   UNK N   1      22.843  18.704   4.190  0.00  0.00     0.300 C 
HETATM    6  N   UNK N   1      23.604  17.463   4.055  0.00  0.00     0.111 N 
ENDROOT
BRANCH   1   7
HETATM    7  O   UNK N   1      25.562  19.855   5.320  0.00  0.00    -0.349 OA
BRANCH   7   8
HETATM    8  C   UNK N   1      26.863  20.356   5.310  0.00  0.00     0.153 C 
HETATM    9  C   UNK N   1      26.920  21.696   6.033  0.00  0.00     0.045 C 
BRANCH   8  10
HETATM   10  C   UNK N   1      27.867  19.342   5.770  0.00  0.00    -0.028 A 
HETATM   11  C   UNK N   1      27.922  18.971   7.121  0.00  0.00     0.025 A 
HETATM   12  C   UNK N   1      28.811  17.979   7.553  0.00  0.00     0.049 A 
HETATM   13  C   UNK N   1      29.630  17.338   6.612  0.00  0.00     0.032 A 
HETATM   14  C   UNK N   1      29.557  17.685   5.255  0.00  0.00     0.049 A 
HETATM   15  C   UNK N   1      28.680  18.688   4.847  0.00  0.00     0.025 A 
BRANCH  12  16
HETATM   16  C   UNK N   1      28.842  17.587   9.003  0.00  0.00     0.417 C 
HETATM   17  F   UNK N   1      27.706  16.857   9.303  0.00  0.00    -0.166 F 
HETATM   18  F   UNK N   1      28.879  18.717   9.798  0.00  0.00    -0.166 F 
HETATM   19  F   UNK N   1      29.951  16.809   9.286  0.00  0.00    -0.166 F 
ENDBRANCH  12  16
BRANCH  14  20
HETATM   20  C   UNK N   1      30.364  16.947   4.233  0.00  0.00     0.417 C 
HETATM   21  F   UNK N   1      31.575  17.582   4.043  0.00  0.00    -0.166 F 
HETATM   22  F   UNK N   1      29.691  16.886   3.023  0.00  0.00    -0.166 F 
HETATM   23  F   UNK N   1      30.584  15.656   4.678  0.00  0.00    -0.166 F 
ENDBRANCH  14  20
ENDBRANCH   8  10
ENDBRANCH   7   8
ENDBRANCH   1   7
BRANCH   2  24
HETATM   24  C   UNK N   1      25.863  16.443   4.474  0.00  0.00    -0.020 A 
HETATM   25  C   UNK N   1      26.423  15.676   5.510  0.00  0.00     0.012 A 
HETATM   26  C   UNK N   1      27.320  14.640   5.220  0.00  0.00     0.043 A 
HETATM   27  C   UNK N   1      27.652  14.350   3.894  0.00  0.00     0.116 A 
HETATM   28  C   UNK N   1      27.096  15.101   2.859  0.00  0.00     0.043 A 
HETATM   29  F   UNK N   1      28.512  13.343   3.613  0.00  0.00    -0.206 F 
HETATM   30  C   UNK N   1      26.217  16.147   3.148  0.00  0.00     0.012 A 
ENDBRANCH   2  24
BRANCH   6  31
HETATM   31  C   UNK N   1      22.773  16.337   4.446  0.00  0.00     0.351 C 
BRANCH  31  32
HETATM   32  C   UNK N   1      22.276  15.754   3.166  0.00  0.00     0.128 A 
HETATM   33  N   UNK N   1      21.197  16.226   2.509  0.00  0.00    -0.294 N 
HETATM   34  C   UNK N   1      21.262  15.568   1.332  0.00  0.00     0.340 A 
HETATM   35  H   UNK N   1      20.529  16.884   2.811  0.00  0.00     0.172 HD
HETATM   36  N   UNK N   1      22.333  14.745   1.268  0.00  0.00    -0.250 N 
HETATM   37  O   UNK N   1      20.467  15.724   0.422  0.00  0.00    -0.245 OA
HETATM   38  N   UNK N   1      22.973  14.874   2.421  0.00  0.00    -0.283 N 
HETATM   39  H   UNK N   1      22.588  14.164   0.515  0.00  0.00     0.192 HD
ATOM     40  HN  UNK N   1      23.833  14.398   2.694  1.00  0.00     0.188 HD
ENDBRANCH  31  32
ENDBRANCH   6  31
TORSDOF 8
ENDMDL
MODEL 6
REMARK VINA RESULT:      -8.5      7.870     10.332
REMARK  8 active torsions:
REMARK  status: ('A' for Active; 'I' for Inactive)
REMARK    1  A    between atoms: C_1  and  O_14 
REMARK    2  A    between atoms: C_2  and  C_20 
REMARK    3  A    between atoms: C_3  and  C_13 
REMARK    4  A    between atoms: C_5  and  C_10 
REMARK    5  A    between atoms: C_7  and  C_9 
REMARK    6  A    between atoms: C_13  and  O_14 
REMARK    7  A    between atoms: N_19  and  C_27 
REMARK    8  A    between atoms: C_27  and  C_28 
ROOT
HETATM    1  C   UNK N   1      30.976  16.672   7.425  0.00  0.00     0.298 C 
HETATM    2  C   UNK N   1      31.330  17.022   5.965  0.00  0.00     0.311 C 
HETATM    3  O   UNK N   1      32.037  15.971   8.062  0.00  0.00    -0.357 OA
HETATM    4  C   UNK N   1      33.144  16.842   8.207  0.00  0.00     0.201 C 
HETATM    5  C   UNK N   1      33.493  17.531   6.885  0.00  0.00     0.300 C 
HETATM    6  N   UNK N   1      32.785  16.846   5.804  0.00  0.00     0.111 N 
ENDROOT
BRANCH   1   7
HETATM    7  O   UNK N   1      30.605  17.824   8.138  0.00  0.00    -0.349 OA
BRANCH   7   8
HETATM    8  C   UNK N   1      29.307  17.556   8.570  0.00  0.00     0.153 C 
HETATM    9  C   UNK N   1      28.993  18.353   9.830  0.00  0.00     0.045 C 
BRANCH   8  10
HETATM   10  C   UNK N   1      28.301  17.689   7.466  0.00  0.00    -0.028 A 
HETATM   11  C   UNK N   1      28.164  18.905   6.783  0.00  0.00     0.025 A 
HETATM   12  C   UNK N   1      27.274  19.024   5.709  0.00  0.00     0.049 A 
HETATM   13  C   UNK N   1      26.537  17.900   5.304  0.00  0.00     0.032 A 
HETATM   14  C   UNK N   1      26.694  16.673   5.965  0.00  0.00     0.049 A 
HETATM   15  C   UNK N   1      27.570  16.580   7.044  0.00  0.00     0.025 A 
BRANCH  12  16
HETATM   16  C   UNK N   1      27.154  20.333   4.982  0.00  0.00     0.417 C 
HETATM   17  F   UNK N   1      27.795  21.319   5.709  0.00  0.00    -0.166 F 
HETATM   18  F   UNK N   1      25.822  20.672   4.835  0.00  0.00    -0.166 F 
HETATM   19  F   UNK N   1      27.735  20.264   3.728  0.00  0.00    -0.166 F 
ENDBRANCH  12  16
BRANCH  14  20
HETATM   20  C   UNK N   1      25.978  15.450   5.484  0.00  0.00     0.417 C 
HETATM   21  F   UNK N   1      24.721  15.387   6.053  0.00  0.00    -0.166 F 
HETATM   22  F   UNK N   1      26.682  14.304   5.817  0.00  0.00    -0.166 F 
HETATM   23  F   UNK N   1      25.860  15.508   4.108  0.00  0.00    -0.166 F 
ENDBRANCH  14  20
ENDBRANCH   8  10
ENDBRANCH   7   8
ENDBRANCH   1   7
BRANCH   2  24
HETATM   24  C   UNK N   1      30.494  16.166   5.026  0.00  0.00    -0.020 A 
HETATM   25  C   UNK N   1      30.376  14.774   5.183  0.00  0.00     0.012 A 
HETATM   26  C   UNK N   1      29.614  14.019   4.283  0.00  0.00     0.043 A 
HETATM   27  C   UNK N   1      28.949  14.650   3.228  0.00  0.00     0.116 A 
HETATM   28  C   UNK N   1      29.054  16.030   3.066  0.00  0.00     0.043 A 
HETATM   29  F   UNK N   1      28.205  13.923   2.361  0.00  0.00    -0.206 F 
HETATM   30  C   UNK N   1      29.831  16.781   3.952  0.00  0.00     0.012 A 
ENDBRANCH   2  24
BRANCH   6  31
HETATM   31  C   UNK N   1      33.349  17.242   4.525  0.00  0.00     0.351 C 
BRANCH  31  32
HETATM   32  C   UNK N   1      33.590  15.967   3.791  0.00  0.00     0.128 A 
HETATM   33  N   UNK N   1      34.092  14.860   4.377  0.00  0.00    -0.294 N 
HETATM   34  C   UNK N   1      33.921  13.922   3.421  0.00  0.00     0.340 A 
HETATM   35  H   UNK N   1      34.483  14.761   5.275  0.00  0.00     0.172 HD
HETATM   36  N   UNK N   1      33.334  14.426   2.312  0.00  0.00    -0.250 N 
HETATM   37  O   UNK N   1      34.230  12.751   3.556  0.00  0.00    -0.245 OA
HETATM   38  N   UNK N   1      33.119  15.711   2.555  0.00  0.00    -0.283 N 
HETATM   39  H   UNK N   1      33.112  13.937   1.487  0.00  0.00     0.192 HD
ATOM     40  HN  UNK N   1      32.678  16.381   1.925  1.00  0.00     0.188 HD
ENDBRANCH  31  32
ENDBRANCH   6  31
TORSDOF 8
ENDMDL
MODEL 7
REMARK VINA RESULT:      -8.5      6.328      9.343
REMARK  8 active torsions:
REMARK  status: ('A' for Active; 'I' for Inactive)
REMARK    1  A    between atoms: C_1  and  O_14 
REMARK    2  A    between atoms: C_2  and  C_20 
REMARK    3  A    between atoms: C_3  and  C_13 
REMARK    4  A    between atoms: C_5  and  C_10 
REMARK    5  A    between atoms: C_7  and  C_9 
REMARK    6  A    between atoms: C_13  and  O_14 
REMARK    7  A    between atoms: N_19  and  C_27 
REMARK    8  A    between atoms: C_27  and  C_28 
ROOT
HETATM    1  C   UNK N   1      28.647  16.225   4.021  0.00  0.00     0.298 C 
HETATM    2  C   UNK N   1      28.677  16.599   5.518  0.00  0.00     0.311 C 
HETATM    3  O   UNK N   1      29.957  15.993   3.519  0.00  0.00    -0.357 OA
HETATM    4  C   UNK N   1      30.484  14.827   4.125  0.00  0.00     0.201 C 
HETATM    5  C   UNK N   1      30.350  14.876   5.649  0.00  0.00     0.300 C 
HETATM    6  N   UNK N   1      30.009  16.243   6.040  0.00  0.00     0.111 N 
ENDROOT
BRANCH   1   7
HETATM    7  O   UNK N   1      27.798  15.128   3.799  0.00  0.00    -0.349 OA
BRANCH   7   8
HETATM    8  C   UNK N   1      26.840  15.612   2.908  0.00  0.00     0.153 C 
HETATM    9  C   UNK N   1      26.283  14.474   2.062  0.00  0.00     0.045 C 
BRANCH   8  10
HETATM   10  C   UNK N   1      25.810  16.464   3.587  0.00  0.00    -0.028 A 
HETATM   11  C   UNK N   1      25.645  17.802   3.207  0.00  0.00     0.025 A 
HETATM   12  C   UNK N   1      24.644  18.590   3.788  0.00  0.00     0.049 A 
HETATM   13  C   UNK N   1      23.787  18.016   4.739  0.00  0.00     0.032 A 
HETATM   14  C   UNK N   1      23.929  16.668   5.100  0.00  0.00     0.049 A 
HETATM   15  C   UNK N   1      24.944  15.905   4.524  0.00  0.00     0.025 A 
BRANCH  12  16
HETATM   16  C   UNK N   1      24.474  20.019   3.355  0.00  0.00     0.417 C 
HETATM   17  F   UNK N   1      25.224  20.242   2.213  0.00  0.00    -0.166 F 
HETATM   18  F   UNK N   1      24.907  20.870   4.355  0.00  0.00    -0.166 F 
HETATM   19  F   UNK N   1      23.150  20.303   3.073  0.00  0.00    -0.166 F 
ENDBRANCH  12  16
BRANCH  14  20
HETATM   20  C   UNK N   1      22.966  16.025   6.047  0.00  0.00     0.417 C 
HETATM   21  F   UNK N   1      22.163  16.988   6.625  0.00  0.00    -0.166 F 
HETATM   22  F   UNK N   1      23.639  15.340   7.045  0.00  0.00    -0.166 F 
HETATM   23  F   UNK N   1      22.180  15.125   5.350  0.00  0.00    -0.166 F 
ENDBRANCH  14  20
ENDBRANCH   8  10
ENDBRANCH   7   8
ENDBRANCH   1   7
BRANCH   2  24
HETATM   24  C   UNK N   1      28.322  18.070   5.675  0.00  0.00    -0.020 A 
HETATM   25  C   UNK N   1      28.425  18.985   4.613  0.00  0.00     0.012 A 
HETATM   26  C   UNK N   1      28.108  20.335   4.807  0.00  0.00     0.043 A 
HETATM   27  C   UNK N   1      27.670  20.780   6.057  0.00  0.00     0.116 A 
HETATM   28  C   UNK N   1      27.558  19.880   7.115  0.00  0.00     0.043 A 
HETATM   29  F   UNK N   1      27.355  22.084   6.243  0.00  0.00    -0.206 F 
HETATM   30  C   UNK N   1      27.892  18.536   6.928  0.00  0.00     0.012 A 
ENDBRANCH   2  24
BRANCH   6  31
HETATM   31  C   UNK N   1      30.209  16.404   7.471  0.00  0.00     0.351 C 
BRANCH  31  32
HETATM   32  C   UNK N   1      31.575  16.983   7.612  0.00  0.00     0.128 A 
HETATM   33  N   UNK N   1      32.506  16.930   6.636  0.00  0.00    -0.294 N 
HETATM   34  C   UNK N   1      33.466  17.755   7.105  0.00  0.00     0.340 A 
HETATM   35  H   UNK N   1      32.489  16.419   5.795  0.00  0.00     0.172 HD
HETATM   36  N   UNK N   1      33.135  18.294   8.300  0.00  0.00    -0.250 N 
HETATM   37  O   UNK N   1      34.496  18.009   6.504  0.00  0.00    -0.245 OA
HETATM   38  N   UNK N   1      31.940  17.812   8.609  0.00  0.00    -0.283 N 
HETATM   39  H   UNK N   1      33.676  18.919   8.836  0.00  0.00     0.192 HD
ATOM     40  HN  UNK N   1      31.397  18.030   9.445  1.00  0.00     0.188 HD
ENDBRANCH  31  32
ENDBRANCH   6  31
TORSDOF 8
ENDMDL
MODEL 8
REMARK VINA RESULT:      -8.5      5.505      7.899
REMARK  8 active torsions:
REMARK  status: ('A' for Active; 'I' for Inactive)
REMARK    1  A    between atoms: C_1  and  O_14 
REMARK    2  A    between atoms: C_2  and  C_20 
REMARK    3  A    between atoms: C_3  and  C_13 
REMARK    4  A    between atoms: C_5  and  C_10 
REMARK    5  A    between atoms: C_7  and  C_9 
REMARK    6  A    between atoms: C_13  and  O_14 
REMARK    7  A    between atoms: N_19  and  C_27 
REMARK    8  A    between atoms: C_27  and  C_28 
ROOT
HETATM    1  C   UNK N   1      25.666  19.157   4.219  0.00  0.00     0.298 C 
HETATM    2  C   UNK N   1      24.861  17.865   4.471  0.00  0.00     0.311 C 
HETATM    3  O   UNK N   1      25.246  19.805   3.024  0.00  0.00    -0.357 OA
HETATM    4  C   UNK N   1      23.926  20.285   3.199  0.00  0.00     0.201 C 
HETATM    5  C   UNK N   1      22.996  19.193   3.731  0.00  0.00     0.300 C 
HETATM    6  N   UNK N   1      23.673  17.903   3.598  0.00  0.00     0.111 N 
ENDROOT
BRANCH   1   7
HETATM    7  O   UNK N   1      25.597  20.012   5.331  0.00  0.00    -0.349 OA
BRANCH   7   8
HETATM    8  C   UNK N   1      26.911  20.443   5.513  0.00  0.00     0.153 C 
HETATM    9  C   UNK N   1      26.944  21.678   6.404  0.00  0.00     0.045 C 
BRANCH   8  10
HETATM   10  C   UNK N   1      27.822  19.329   5.936  0.00  0.00    -0.028 A 
HETATM   11  C   UNK N   1      28.591  18.650   4.981  0.00  0.00     0.025 A 
HETATM   12  C   UNK N   1      29.492  17.651   5.371  0.00  0.00     0.049 A 
HETATM   13  C   UNK N   1      29.638  17.356   6.734  0.00  0.00     0.032 A 
HETATM   14  C   UNK N   1      28.893  18.055   7.695  0.00  0.00     0.049 A 
HETATM   15  C   UNK N   1      27.987  19.031   7.287  0.00  0.00     0.025 A 
BRANCH  12  16
HETATM   16  C   UNK N   1      30.317  16.946   4.332  0.00  0.00     0.417 C 
HETATM   17  F   UNK N   1      30.488  15.625   4.705  0.00  0.00    -0.166 F 
HETATM   18  F   UNK N   1      31.555  17.550   4.221  0.00  0.00    -0.166 F 
HETATM   19  F   UNK N   1      29.696  16.976   3.095  0.00  0.00    -0.166 F 
ENDBRANCH  12  16
BRANCH  14  20
HETATM   20  C   UNK N   1      29.106  17.807   9.156  0.00  0.00     0.417 C 
HETATM   21  F   UNK N   1      29.551  18.962   9.768  0.00  0.00    -0.166 F 
HETATM   22  F   UNK N   1      30.040  16.803   9.354  0.00  0.00    -0.166 F 
HETATM   23  F   UNK N   1      27.910  17.413   9.726  0.00  0.00    -0.166 F 
ENDBRANCH  14  20
ENDBRANCH   8  10
ENDBRANCH   7   8
ENDBRANCH   1   7
BRANCH   2  24
HETATM   24  C   UNK N   1      25.760  16.660   4.243  0.00  0.00    -0.020 A 
HETATM   25  C   UNK N   1      26.187  15.832   5.295  0.00  0.00     0.012 A 
HETATM   26  C   UNK N   1      27.032  14.744   5.045  0.00  0.00     0.043 A 
HETATM   27  C   UNK N   1      27.445  14.463   3.739  0.00  0.00     0.116 A 
HETATM   28  C   UNK N   1      27.022  15.274   2.688  0.00  0.00     0.043 A 
HETATM   29  F   UNK N   1      28.255  13.406   3.494  0.00  0.00    -0.206 F 
HETATM   30  C   UNK N   1      26.195  16.372   2.939  0.00  0.00     0.012 A 
ENDBRANCH   2  24
BRANCH   6  31
HETATM   31  C   UNK N   1      22.709  16.828   3.768  0.00  0.00     0.351 C 
BRANCH  31  32
HETATM   32  C   UNK N   1      22.304  16.888   5.201  0.00  0.00     0.128 A 
HETATM   33  N   UNK N   1      21.460  17.819   5.693  0.00  0.00    -0.294 N 
HETATM   34  C   UNK N   1      21.210  17.358   6.937  0.00  0.00     0.340 A 
HETATM   35  H   UNK N   1      21.113  18.630   5.255  0.00  0.00     0.172 HD
HETATM   36  N   UNK N   1      21.859  16.199   7.189  0.00  0.00    -0.250 N 
HETATM   37  O   UNK N   1      20.461  17.906   7.727  0.00  0.00    -0.245 OA
HETATM   38  N   UNK N   1      22.538  15.903   6.090  0.00  0.00    -0.283 N 
HETATM   39  H   UNK N   1      21.835  15.677   8.025  0.00  0.00     0.192 HD
ATOM     40  HN  UNK N   1      23.126  15.083   5.944  1.00  0.00     0.188 HD
ENDBRANCH  31  32
ENDBRANCH   6  31
TORSDOF 8
ENDMDL
MODEL 9
REMARK VINA RESULT:      -8.3     15.713     18.229
REMARK  8 active torsions:
REMARK  status: ('A' for Active; 'I' for Inactive)
REMARK    1  A    between atoms: C_1  and  O_14 
REMARK    2  A    between atoms: C_2  and  C_20 
REMARK    3  A    between atoms: C_3  and  C_13 
REMARK    4  A    between atoms: C_5  and  C_10 
REMARK    5  A    between atoms: C_7  and  C_9 
REMARK    6  A    between atoms: C_13  and  O_14 
REMARK    7  A    between atoms: N_19  and  C_27 
REMARK    8  A    between atoms: C_27  and  C_28 
ROOT
HETATM    1  C   UNK N   1      35.058  10.071  12.089  0.00  0.00     0.298 C 
HETATM    2  C   UNK N   1      36.074  11.194  12.384  0.00  0.00     0.311 C 
HETATM    3  O   UNK N   1      34.137  10.457  11.076  0.00  0.00    -0.357 OA
HETATM    4  C   UNK N   1      34.830  10.585   9.847  0.00  0.00     0.201 C 
HETATM    5  C   UNK N   1      36.075  11.463   9.993  0.00  0.00     0.300 C 
HETATM    6  N   UNK N   1      36.000  12.164  11.275  0.00  0.00     0.111 N 
ENDROOT
BRANCH   1   7
HETATM    7  O   UNK N   1      35.718   8.873  11.770  0.00  0.00    -0.349 OA
BRANCH   7   8
HETATM    8  C   UNK N   1      35.363   8.003  12.801  0.00  0.00     0.153 C 
HETATM    9  C   UNK N   1      35.329   6.567  12.292  0.00  0.00     0.045 C 
BRANCH   8  10
HETATM   10  C   UNK N   1      36.183   8.220  14.037  0.00  0.00    -0.028 A 
HETATM   11  C   UNK N   1      37.582   8.164  13.970  0.00  0.00     0.025 A 
HETATM   12  C   UNK N   1      38.361   8.428  15.103  0.00  0.00     0.049 A 
HETATM   13  C   UNK N   1      37.726   8.778  16.304  0.00  0.00     0.032 A 
HETATM   14  C   UNK N   1      36.328   8.865  16.367  0.00  0.00     0.049 A 
HETATM   15  C   UNK N   1      35.568   8.580  15.234  0.00  0.00     0.025 A 
BRANCH  12  16
HETATM   16  C   UNK N   1      39.860   8.376  15.006  0.00  0.00     0.417 C 
HETATM   17  F   UNK N   1      40.365   7.693  16.098  0.00  0.00    -0.166 F 
HETATM   18  F   UNK N   1      40.377   9.658  14.994  0.00  0.00    -0.166 F 
HETATM   19  F   UNK N   1      40.264   7.724  13.854  0.00  0.00    -0.166 F 
ENDBRANCH  12  16
BRANCH  14  20
HETATM   20  C   UNK N   1      35.646   9.322  17.619  0.00  0.00     0.417 C 
HETATM   21  F   UNK N   1      36.328  10.394  18.159  0.00  0.00    -0.166 F 
HETATM   22  F   UNK N   1      35.597   8.301  18.555  0.00  0.00    -0.166 F 
HETATM   23  F   UNK N   1      34.352   9.702  17.316  0.00  0.00    -0.166 F 
ENDBRANCH  14  20
ENDBRANCH   8  10
ENDBRANCH   7   8
ENDBRANCH   1   7
BRANCH   2  24
HETATM   24  C   UNK N   1      35.781  11.792  13.751  0.00  0.00    -0.020 A 
HETATM   25  C   UNK N   1      36.799  12.260  14.599  0.00  0.00     0.012 A 
HETATM   26  C   UNK N   1      36.488  12.784  15.860  0.00  0.00     0.043 A 
HETATM   27  C   UNK N   1      35.157  12.861  16.277  0.00  0.00     0.116 A 
HETATM   28  C   UNK N   1      34.139  12.406  15.441  0.00  0.00     0.043 A 
HETATM   29  F   UNK N   1      34.853  13.376  17.493  0.00  0.00    -0.206 F 
HETATM   30  C   UNK N   1      34.450  11.865  14.191  0.00  0.00     0.012 A 
ENDBRANCH   2  24
BRANCH   6  31
HETATM   31  C   UNK N   1      36.970  13.247  11.295  0.00  0.00     0.351 C 
BRANCH  31  32
HETATM   32  C   UNK N   1      36.160  14.497  11.239  0.00  0.00     0.128 A 
HETATM   33  N   UNK N   1      36.657  15.682  10.826  0.00  0.00    -0.294 N 
HETATM   34  C   UNK N   1      35.547  16.443  10.723  0.00  0.00     0.340 A 
HETATM   35  H   UNK N   1      37.592  15.929  10.645  0.00  0.00     0.172 HD
HETATM   36  N   UNK N   1      34.427  15.756  11.046  0.00  0.00    -0.250 N 
HETATM   37  O   UNK N   1      35.551  17.604  10.352  0.00  0.00    -0.245 OA
HETATM   38  N   UNK N   1      34.818  14.530  11.360  0.00  0.00    -0.283 N 
HETATM   39  H   UNK N   1      33.504  16.099  11.049  0.00  0.00     0.192 HD
ATOM     40  HN  UNK N   1      34.217  13.755  11.639  1.00  0.00     0.188 HD
ENDBRANCH  31  32
ENDBRANCH   6  31
TORSDOF 8
ENDMDL
