MODEL 1
REMARK VINA RESULT:      -7.5      0.000      0.000
REMARK  3 active torsions:
REMARK  status: ('A' for Active; 'I' for Inactive)
REMARK    1  A    between atoms: C_12  and  O_22 
REMARK    2  A    between atoms: C_15  and  C_24 
REMARK    3  A    between atoms: C_24  and  C_25 
ROOT
HETATM    1  C   UNK N   1      29.400  17.704   7.610  0.00  0.00     0.011 C 
HETATM    2  C   UNK N   1      29.579  16.435   6.764  0.00  0.00     0.018 C 
HETATM    3  C   UNK N   1      31.825  17.554   8.169  0.00  0.00    -0.062 A 
HETATM    4  C   UNK N   1      30.447  17.758   8.729  0.00  0.00     0.036 C 
HETATM    5  C   UNK N   1      31.005  16.324   6.118  0.00  0.00     0.081 C 
HETATM    6  C   UNK N   1      32.082  16.330   7.280  0.00  0.00     0.022 A 
HETATM    7  C   UNK N   1      34.444  17.167   7.029  0.00  0.00     0.052 A 
HETATM    8  C   UNK N   1      34.145  18.281   7.937  0.00  0.00     0.172 A 
HETATM    9  C   UNK N   1      32.783  18.446   8.461  0.00  0.00     0.058 A 
HETATM   10  C   UNK N   1      33.499  16.271   6.724  0.00  0.00    -0.007 A 
HETATM   11  C   UNK N   1      29.762  14.421   4.687  0.00  0.00     0.046 C 
HETATM   12  C   UNK N   1      31.095  15.054   5.174  0.00  0.00     0.144 C 
HETATM   13  C   UNK N   1      27.226  17.068   5.504  0.00  0.00     0.013 C 
HETATM   14  C   UNK N   1      26.435  16.326   4.383  0.00  0.00     0.025 C 
HETATM   15  C   UNK N   1      27.276  15.035   4.050  0.00  0.00     0.130 C 
HETATM   16  O   UNK N   1      35.025  19.063   8.259  0.00  0.00    -0.289 OA
HETATM   17 Cl   UNK N   1      31.304  17.782   5.097  0.00  0.00    -0.115 Cl
HETATM   18  C   UNK N   1      28.693  15.486   4.475  0.00  0.00     0.001 C 
HETATM   19  C   UNK N   1      29.223  16.489   3.431  0.00  0.00     0.019 C 
HETATM   20  C   UNK N   1      28.366  16.115   5.834  0.00  0.00     0.004 C 
HETATM   21  C   UNK N   1      31.936  15.102   8.181  0.00  0.00     0.027 C 
HETATM   22  C   UNK N   1      26.303  17.324   3.239  0.00  0.00     0.013 C 
HETATM   23  O   UNK N   1      26.843  14.013   4.906  0.00  0.00    -0.381 OA
HETATM   24  H   UNK N   1      26.425  13.409   5.541  0.00  0.00     0.211 HD
ENDROOT
BRANCH  15  25
HETATM   25  C   UNK N   1      27.197  14.444   2.645  0.00  0.00     0.175 C 
HETATM   26  O   UNK N   1      28.129  14.623   1.876  0.00  0.00    -0.293 OA
BRANCH  25  27
HETATM   27  C   UNK N   1      26.069  13.575   2.193  0.00  0.00     0.196 C 
HETATM   28 Cl   UNK N   1      24.864  14.562   1.326  0.00  0.00    -0.122 Cl
ENDBRANCH  25  27
ENDBRANCH  15  25
BRANCH  12  29
HETATM   29  O   UNK N   1      31.951  14.047   5.621  0.00  0.00    -0.394 OA
HETATM   30  H   UNK N   1      32.480  14.014   6.433  0.00  0.00     0.210 HD
ENDBRANCH  12  29
TORSDOF 3
ENDMDL
MODEL 2
REMARK VINA RESULT:      -7.4      2.485      3.841
REMARK  3 active torsions:
REMARK  status: ('A' for Active; 'I' for Inactive)
REMARK    1  A    between atoms: C_12  and  O_22 
REMARK    2  A    between atoms: C_15  and  C_24 
REMARK    3  A    between atoms: C_24  and  C_25 
ROOT
HETATM    1  C   UNK N   1      32.945  16.463   4.740  0.00  0.00     0.011 C 
HETATM    2  C   UNK N   1      31.871  17.137   5.605  0.00  0.00     0.018 C 
HETATM    3  C   UNK N   1      34.259  16.102   6.827  0.00  0.00    -0.062 A 
HETATM    4  C   UNK N   1      34.321  16.577   5.403  0.00  0.00     0.036 C 
HETATM    5  C   UNK N   1      31.778  16.532   7.051  0.00  0.00     0.081 C 
HETATM    6  C   UNK N   1      33.189  16.696   7.752  0.00  0.00     0.022 A 
HETATM    7  C   UNK N   1      34.075  15.166   9.547  0.00  0.00     0.052 A 
HETATM    8  C   UNK N   1      35.112  14.687   8.626  0.00  0.00     0.172 A 
HETATM    9  C   UNK N   1      35.136  15.175   7.241  0.00  0.00     0.058 A 
HETATM   10  C   UNK N   1      33.189  16.087   9.148  0.00  0.00    -0.007 A 
HETATM   11  C   UNK N   1      29.482  17.927   7.048  0.00  0.00     0.046 C 
HETATM   12  C   UNK N   1      30.585  17.193   7.860  0.00  0.00     0.144 C 
HETATM   13  C   UNK N   1      30.114  16.768   3.532  0.00  0.00     0.013 C 
HETATM   14  C   UNK N   1      28.613  17.166   3.381  0.00  0.00     0.025 C 
HETATM   15  C   UNK N   1      28.221  17.877   4.731  0.00  0.00     0.130 C 
HETATM   16  O   UNK N   1      35.953  13.891   9.010  0.00  0.00    -0.289 OA
HETATM   17 Cl   UNK N   1      31.438  14.764   6.928  0.00  0.00    -0.115 Cl
HETATM   18  C   UNK N   1      29.243  17.247   5.706  0.00  0.00     0.001 C 
HETATM   19  C   UNK N   1      28.825  15.789   5.982  0.00  0.00     0.019 C 
HETATM   20  C   UNK N   1      30.517  17.381   4.865  0.00  0.00     0.004 C 
HETATM   21  C   UNK N   1      33.551  18.171   7.941  0.00  0.00     0.027 C 
HETATM   22  C   UNK N   1      27.867  15.868   3.093  0.00  0.00     0.013 C 
HETATM   23  O   UNK N   1      28.503  19.243   4.590  0.00  0.00    -0.381 OA
HETATM   24  H   UNK N   1      28.725  20.153   4.335  0.00  0.00     0.211 HD
ENDROOT
BRANCH  15  25
HETATM   25  C   UNK N   1      26.772  17.813   5.208  0.00  0.00     0.175 C 
HETATM   26  O   UNK N   1      26.410  16.850   5.865  0.00  0.00    -0.293 OA
BRANCH  25  27
HETATM   27  C   UNK N   1      25.795  18.920   4.983  0.00  0.00     0.196 C 
HETATM   28 Cl   UNK N   1      25.402  19.027   3.247  0.00  0.00    -0.122 Cl
ENDBRANCH  25  27
ENDBRANCH  15  25
BRANCH  12  29
HETATM   29  O   UNK N   1      30.975  17.986   8.939  0.00  0.00    -0.394 OA
HETATM   30  H   UNK N   1      31.857  18.101   9.325  0.00  0.00     0.210 HD
ENDBRANCH  12  29
TORSDOF 3
ENDMDL
MODEL 3
REMARK VINA RESULT:      -7.4     12.189     14.940
REMARK  3 active torsions:
REMARK  status: ('A' for Active; 'I' for Inactive)
REMARK    1  A    between atoms: C_12  and  O_22 
REMARK    2  A    between atoms: C_15  and  C_24 
REMARK    3  A    between atoms: C_24  and  C_25 
ROOT
HETATM    1  C   UNK N   1      29.187  26.724  -6.890  0.00  0.00     0.011 C 
HETATM    2  C   UNK N   1      28.758  25.572  -5.970  0.00  0.00     0.018 C 
HETATM    3  C   UNK N   1      27.415  28.110  -5.818  0.00  0.00    -0.062 A 
HETATM    4  C   UNK N   1      28.020  27.690  -7.126  0.00  0.00     0.036 C 
HETATM    5  C   UNK N   1      28.229  26.064  -4.577  0.00  0.00     0.081 C 
HETATM    6  C   UNK N   1      26.991  27.023  -4.822  0.00  0.00     0.022 A 
HETATM    7  C   UNK N   1      26.304  28.887  -3.274  0.00  0.00     0.052 A 
HETATM    8  C   UNK N   1      26.673  29.873  -4.298  0.00  0.00     0.172 A 
HETATM    9  C   UNK N   1      27.265  29.419  -5.563  0.00  0.00     0.058 A 
HETATM   10  C   UNK N   1      26.451  27.578  -3.511  0.00  0.00    -0.007 A 
HETATM   11  C   UNK N   1      28.530  23.458  -3.999  0.00  0.00     0.046 C 
HETATM   12  C   UNK N   1      27.902  24.832  -3.635  0.00  0.00     0.144 C 
HETATM   13  C   UNK N   1      31.168  24.380  -6.508  0.00  0.00     0.013 C 
HETATM   14  C   UNK N   1      31.764  23.019  -6.032  0.00  0.00     0.025 C 
HETATM   15  C   UNK N   1      30.668  22.374  -5.102  0.00  0.00     0.130 C 
HETATM   16  O   UNK N   1      26.483  31.061  -4.101  0.00  0.00    -0.289 OA
HETATM   17 Cl   UNK N   1      29.515  27.039  -3.769  0.00  0.00    -0.115 Cl
HETATM   18  C   UNK N   1      29.912  23.633  -4.616  0.00  0.00     0.001 C 
HETATM   19  C   UNK N   1      30.797  24.374  -3.595  0.00  0.00     0.019 C 
HETATM   20  C   UNK N   1      29.752  24.368  -5.952  0.00  0.00     0.004 C 
HETATM   21  C   UNK N   1      25.825  26.273  -5.469  0.00  0.00     0.027 C 
HETATM   22  C   UNK N   1      33.078  23.362  -5.339  0.00  0.00     0.013 C 
HETATM   23  O   UNK N   1      29.816  21.612  -5.915  0.00  0.00    -0.381 OA
HETATM   24  H   UNK N   1      29.336  21.114  -6.596  0.00  0.00     0.211 HD
ENDROOT
BRANCH  15  25
HETATM   25  C   UNK N   1      31.107  21.431  -3.985  0.00  0.00     0.175 C 
HETATM   26  O   UNK N   1      30.397  21.315  -2.998  0.00  0.00    -0.293 OA
BRANCH  25  27
HETATM   27  C   UNK N   1      32.325  20.571  -4.081  0.00  0.00     0.196 C 
HETATM   28 Cl   UNK N   1      33.423  20.937  -2.725  0.00  0.00    -0.122 Cl
ENDBRANCH  25  27
ENDBRANCH  15  25
BRANCH  12  29
HETATM   29  O   UNK N   1      26.549  24.660  -3.339  0.00  0.00    -0.394 OA
HETATM   30  H   UNK N   1      25.815  24.455  -3.938  0.00  0.00     0.210 HD
ENDBRANCH  12  29
TORSDOF 3
ENDMDL
MODEL 4
REMARK VINA RESULT:      -7.3     13.986     16.319
REMARK  3 active torsions:
REMARK  status: ('A' for Active; 'I' for Inactive)
REMARK    1  A    between atoms: C_12  and  O_22 
REMARK    2  A    between atoms: C_15  and  C_24 
REMARK    3  A    between atoms: C_24  and  C_25 
ROOT
HETATM    1  C   UNK N   1      29.040  21.868  -6.813  0.00  0.00     0.011 C 
HETATM    2  C   UNK N   1      27.682  22.578  -6.716  0.00  0.00     0.018 C 
HETATM    3  C   UNK N   1      28.245  20.852  -8.946  0.00  0.00    -0.062 A 
HETATM    4  C   UNK N   1      28.916  20.578  -7.631  0.00  0.00     0.036 C 
HETATM    5  C   UNK N   1      27.074  22.934  -8.119  0.00  0.00     0.081 C 
HETATM    6  C   UNK N   1      26.901  21.591  -8.943  0.00  0.00     0.022 A 
HETATM    7  C   UNK N   1      26.962  21.446 -11.458  0.00  0.00     0.052 A 
HETATM    8  C   UNK N   1      28.217  20.688 -11.383  0.00  0.00     0.172 A 
HETATM    9  C   UNK N   1      28.841  20.444 -10.076  0.00  0.00     0.058 A 
HETATM   10  C   UNK N   1      26.357  21.864 -10.340  0.00  0.00    -0.007 A 
HETATM   11  C   UNK N   1      25.466  24.444  -6.586  0.00  0.00     0.046 C 
HETATM   12  C   UNK N   1      25.729  23.757  -7.955  0.00  0.00     0.144 C 
HETATM   13  C   UNK N   1      28.825  24.300  -4.915  0.00  0.00     0.013 C 
HETATM   14  C   UNK N   1      28.220  25.499  -4.120  0.00  0.00     0.025 C 
HETATM   15  C   UNK N   1      26.708  25.580  -4.555  0.00  0.00     0.130 C 
HETATM   16  O   UNK N   1      28.734  20.258 -12.400  0.00  0.00    -0.289 OA
HETATM   17 Cl   UNK N   1      28.240  23.974  -9.020  0.00  0.00    -0.115 Cl
HETATM   18  C   UNK N   1      26.766  24.925  -5.955  0.00  0.00     0.001 C 
HETATM   19  C   UNK N   1      27.431  25.914  -6.932  0.00  0.00     0.019 C 
HETATM   20  C   UNK N   1      27.625  23.698  -5.629  0.00  0.00     0.004 C 
HETATM   21  C   UNK N   1      25.891  20.654  -8.277  0.00  0.00     0.027 C 
HETATM   22  C   UNK N   1      29.065  26.712  -4.492  0.00  0.00     0.013 C 
HETATM   23  O   UNK N   1      25.973  24.754  -3.692  0.00  0.00    -0.381 OA
HETATM   24  H   UNK N   1      25.603  24.172  -3.009  0.00  0.00     0.211 HD
ENDROOT
BRANCH  15  25
HETATM   25  C   UNK N   1      26.000  26.931  -4.519  0.00  0.00     0.175 C 
HETATM   26  O   UNK N   1      25.368  27.292  -5.500  0.00  0.00    -0.293 OA
BRANCH  25  27
HETATM   27  C   UNK N   1      25.968  27.799  -3.303  0.00  0.00     0.196 C 
HETATM   28 Cl   UNK N   1      26.284  29.491  -3.767  0.00  0.00    -0.122 Cl
ENDBRANCH  25  27
ENDBRANCH  15  25
BRANCH  12  29
HETATM   29  O   UNK N   1      24.576  23.089  -8.368  0.00  0.00    -0.394 OA
HETATM   30  H   UNK N   1      24.370  22.707  -9.236  0.00  0.00     0.210 HD
ENDBRANCH  12  29
TORSDOF 3
ENDMDL
MODEL 5
REMARK VINA RESULT:      -7.3      4.889      9.162
REMARK  3 active torsions:
REMARK  status: ('A' for Active; 'I' for Inactive)
REMARK    1  A    between atoms: C_12  and  O_22 
REMARK    2  A    between atoms: C_15  and  C_24 
REMARK    3  A    between atoms: C_24  and  C_25 
ROOT
HETATM    1  C   UNK N   1      33.832  12.599   7.377  0.00  0.00     0.011 C 
HETATM    2  C   UNK N   1      33.761  13.587   8.550  0.00  0.00     0.018 C 
HETATM    3  C   UNK N   1      33.003  14.436   5.910  0.00  0.00    -0.062 A 
HETATM    4  C   UNK N   1      32.834  12.991   6.282  0.00  0.00     0.036 C 
HETATM    5  C   UNK N   1      34.048  15.070   8.122  0.00  0.00     0.081 C 
HETATM    6  C   UNK N   1      32.983  15.488   7.026  0.00  0.00     0.022 A 
HETATM    7  C   UNK N   1      33.385  17.212   5.234  0.00  0.00     0.052 A 
HETATM    8  C   UNK N   1      33.331  16.160   4.211  0.00  0.00     0.172 A 
HETATM    9  C   UNK N   1      33.167  14.759   4.618  0.00  0.00     0.058 A 
HETATM   10  C   UNK N   1      33.229  16.906   6.527  0.00  0.00    -0.007 A 
HETATM   11  C   UNK N   1      34.255  15.369  10.784  0.00  0.00     0.046 C 
HETATM   12  C   UNK N   1      34.066  16.025   9.388  0.00  0.00     0.144 C 
HETATM   13  C   UNK N   1      35.426  11.904   9.934  0.00  0.00     0.013 C 
HETATM   14  C   UNK N   1      35.998  11.995  11.383  0.00  0.00     0.025 C 
HETATM   15  C   UNK N   1      35.422  13.331  11.986  0.00  0.00     0.130 C 
HETATM   16  O   UNK N   1      33.416  16.450   3.029  0.00  0.00    -0.289 OA
HETATM   17 Cl   UNK N   1      35.678  15.156   7.353  0.00  0.00    -0.115 Cl
HETATM   18  C   UNK N   1      35.169  14.153  10.701  0.00  0.00     0.001 C 
HETATM   19  C   UNK N   1      36.527  14.618  10.140  0.00  0.00     0.019 C 
HETATM   20  C   UNK N   1      34.473  13.086   9.847  0.00  0.00     0.004 C 
HETATM   21  C   UNK N   1      31.564  15.487   7.598  0.00  0.00     0.027 C 
HETATM   22  C   UNK N   1      37.515  11.954  11.233  0.00  0.00     0.013 C 
HETATM   23  O   UNK N   1      34.192  13.029  12.589  0.00  0.00    -0.381 OA
HETATM   24  H   UNK N   1      33.381  12.665  12.978  0.00  0.00     0.211 HD
ENDROOT
BRANCH  15  25
HETATM   25  C   UNK N   1      36.225  14.066  13.057  0.00  0.00     0.175 C 
HETATM   26  O   UNK N   1      36.387  15.271  12.949  0.00  0.00    -0.293 OA
BRANCH  25  27
HETATM   27  C   UNK N   1      36.748  13.392  14.284  0.00  0.00     0.196 C 
HETATM   28 Cl   UNK N   1      37.120  14.616  15.525  0.00  0.00    -0.122 Cl
ENDBRANCH  25  27
ENDBRANCH  15  25
BRANCH  12  29
HETATM   29  O   UNK N   1      33.021  16.947   9.445  0.00  0.00    -0.394 OA
HETATM   30  H   UNK N   1      32.867  17.728   8.892  0.00  0.00     0.210 HD
ENDBRANCH  12  29
TORSDOF 3
ENDMDL
MODEL 6
REMARK VINA RESULT:      -7.2      4.843      7.644
REMARK  3 active torsions:
REMARK  status: ('A' for Active; 'I' for Inactive)
REMARK    1  A    between atoms: C_12  and  O_22 
REMARK    2  A    between atoms: C_15  and  C_24 
REMARK    3  A    between atoms: C_24  and  C_25 
ROOT
HETATM    1  C   UNK N   1      37.497  13.637   8.929  0.00  0.00     0.011 C 
HETATM    2  C   UNK N   1      36.174  14.405   9.064  0.00  0.00     0.018 C 
HETATM    3  C   UNK N   1      37.175  12.867  11.278  0.00  0.00    -0.062 A 
HETATM    4  C   UNK N   1      38.155  13.451  10.301  0.00  0.00     0.036 C 
HETATM    5  C   UNK N   1      35.148  13.696  10.017  0.00  0.00     0.081 C 
HETATM    6  C   UNK N   1      35.812  13.550  11.447  0.00  0.00     0.022 A 
HETATM    7  C   UNK N   1      35.251  11.734  13.101  0.00  0.00     0.052 A 
HETATM    8  C   UNK N   1      36.596  11.168  12.935  0.00  0.00     0.172 A 
HETATM    9  C   UNK N   1      37.522  11.769  11.966  0.00  0.00     0.058 A 
HETATM   10  C   UNK N   1      34.888  12.825  12.417  0.00  0.00    -0.007 A 
HETATM   11  C   UNK N   1      33.480  15.460   8.866  0.00  0.00     0.046 C 
HETATM   12  C   UNK N   1      33.767  14.476  10.033  0.00  0.00     0.144 C 
HETATM   13  C   UNK N   1      36.088  14.534   6.326  0.00  0.00     0.013 C 
HETATM   14  C   UNK N   1      35.051  15.197   5.366  0.00  0.00     0.025 C 
HETATM   15  C   UNK N   1      33.955  15.839   6.298  0.00  0.00     0.130 C 
HETATM   16  O   UNK N   1      36.944  10.208  13.602  0.00  0.00    -0.289 OA
HETATM   17 Cl   UNK N   1      34.824  12.032   9.399  0.00  0.00    -0.115 Cl
HETATM   18  C   UNK N   1      34.085  14.956   7.561  0.00  0.00     0.001 C 
HETATM   19  C   UNK N   1      33.475  13.573   7.259  0.00  0.00     0.019 C 
HETATM   20  C   UNK N   1      35.610  14.945   7.711  0.00  0.00     0.004 C 
HETATM   21  C   UNK N   1      36.088  14.917  12.077  0.00  0.00     0.027 C 
HETATM   22  C   UNK N   1      34.553  14.078   4.458  0.00  0.00     0.013 C 
HETATM   23  O   UNK N   1      34.369  17.143   6.605  0.00  0.00    -0.381 OA
HETATM   24  H   UNK N   1      34.771  18.021   6.706  0.00  0.00     0.211 HD
ENDROOT
BRANCH  15  25
HETATM   25  C   UNK N   1      32.529  15.982   5.772  0.00  0.00     0.175 C 
HETATM   26  O   UNK N   1      31.707  15.125   6.056  0.00  0.00    -0.293 OA
BRANCH  25  27
HETATM   27  C   UNK N   1      32.066  17.173   4.998  0.00  0.00     0.196 C 
HETATM   28 Cl   UNK N   1      32.781  17.139   3.365  0.00  0.00    -0.122 Cl
ENDBRANCH  25  27
ENDBRANCH  15  25
BRANCH  12  29
HETATM   29  O   UNK N   1      33.453  15.089  11.246  0.00  0.00    -0.394 OA
HETATM   30  H   UNK N   1      33.135  14.686  12.069  0.00  0.00     0.210 HD
ENDBRANCH  12  29
TORSDOF 3
ENDMDL
MODEL 7
REMARK VINA RESULT:      -7.1      4.187      8.511
REMARK  3 active torsions:
REMARK  status: ('A' for Active; 'I' for Inactive)
REMARK    1  A    between atoms: C_12  and  O_22 
REMARK    2  A    between atoms: C_15  and  C_24 
REMARK    3  A    between atoms: C_24  and  C_25 
ROOT
HETATM    1  C   UNK N   1      32.337  16.533   9.077  0.00  0.00     0.011 C 
HETATM    2  C   UNK N   1      33.735  16.117   8.595  0.00  0.00     0.018 C 
HETATM    3  C   UNK N   1      31.640  16.599   6.685  0.00  0.00    -0.062 A 
HETATM    4  C   UNK N   1      31.610  17.336   7.993  0.00  0.00     0.036 C 
HETATM    5  C   UNK N   1      33.700  15.261   7.280  0.00  0.00     0.081 C 
HETATM    6  C   UNK N   1      32.992  16.113   6.148  0.00  0.00     0.022 A 
HETATM    7  C   UNK N   1      31.723  15.128   4.207  0.00  0.00     0.052 A 
HETATM    8  C   UNK N   1      30.473  15.676   4.748  0.00  0.00     0.172 A 
HETATM    9  C   UNK N   1      30.487  16.388   6.032  0.00  0.00     0.058 A 
HETATM   10  C   UNK N   1      32.881  15.325   4.849  0.00  0.00    -0.007 A 
HETATM   11  C   UNK N   1      36.246  14.797   7.999  0.00  0.00     0.046 C 
HETATM   12  C   UNK N   1      35.158  14.772   6.891  0.00  0.00     0.144 C 
HETATM   13  C   UNK N   1      34.238  15.234  11.142  0.00  0.00     0.013 C 
HETATM   14  C   UNK N   1      35.516  14.595  11.769  0.00  0.00     0.025 C 
HETATM   15  C   UNK N   1      36.574  14.524  10.603  0.00  0.00     0.130 C 
HETATM   16  O   UNK N   1      29.429  15.545   4.131  0.00  0.00    -0.289 OA
HETATM   17 Cl   UNK N   1      32.692  13.791   7.560  0.00  0.00    -0.115 Cl
HETATM   18  C   UNK N   1      35.648  14.482   9.364  0.00  0.00     0.001 C 
HETATM   19  C   UNK N   1      34.995  13.089   9.286  0.00  0.00     0.019 C 
HETATM   20  C   UNK N   1      34.675  15.607   9.734  0.00  0.00     0.004 C 
HETATM   21  C   UNK N   1      33.799  17.368   5.807  0.00  0.00     0.027 C 
HETATM   22  C   UNK N   1      35.075  13.246  12.325  0.00  0.00     0.013 C 
HETATM   23  O   UNK N   1      37.288  15.731  10.603  0.00  0.00    -0.381 OA
HETATM   24  H   UNK N   1      37.705  16.596  10.742  0.00  0.00     0.211 HD
ENDROOT
BRANCH  15  25
HETATM   25  C   UNK N   1      37.636  13.428  10.634  0.00  0.00     0.175 C 
HETATM   26  O   UNK N   1      38.519  13.439   9.791  0.00  0.00    -0.293 OA
BRANCH  25  27
HETATM   27  C   UNK N   1      37.699  12.389  11.706  0.00  0.00     0.196 C 
HETATM   28 Cl   UNK N   1      37.434  10.777  10.992  0.00  0.00    -0.122 Cl
ENDBRANCH  25  27
ENDBRANCH  15  25
BRANCH  12  29
HETATM   29  O   UNK N   1      35.672  15.331   5.721  0.00  0.00    -0.394 OA
HETATM   30  H   UNK N   1      36.081  16.200   5.589  0.00  0.00     0.210 HD
ENDBRANCH  12  29
TORSDOF 3
ENDMDL
MODEL 8
REMARK VINA RESULT:      -7.0     14.406     15.856
REMARK  3 active torsions:
REMARK  status: ('A' for Active; 'I' for Inactive)
REMARK    1  A    between atoms: C_12  and  O_22 
REMARK    2  A    between atoms: C_15  and  C_24 
REMARK    3  A    between atoms: C_24  and  C_25 
ROOT
HETATM    1  C   UNK N   1      28.225  27.254  -7.514  0.00  0.00     0.011 C 
HETATM    2  C   UNK N   1      27.346  26.005  -7.355  0.00  0.00     0.018 C 
HETATM    3  C   UNK N   1      27.110  28.175  -5.484  0.00  0.00    -0.062 A 
HETATM    4  C   UNK N   1      27.543  28.476  -6.890  0.00  0.00     0.036 C 
HETATM    5  C   UNK N   1      27.009  25.677  -5.857  0.00  0.00     0.081 C 
HETATM    6  C   UNK N   1      26.259  26.924  -5.230  0.00  0.00     0.022 A 
HETATM    7  C   UNK N   1      26.314  27.539  -2.787  0.00  0.00     0.052 A 
HETATM    8  C   UNK N   1      27.076  28.751  -3.110  0.00  0.00     0.172 A 
HETATM    9  C   UNK N   1      27.481  29.006  -4.499  0.00  0.00     0.058 A 
HETATM   10  C   UNK N   1      25.940  26.696  -3.758  0.00  0.00    -0.007 A 
HETATM   11  C   UNK N   1      26.238  23.354  -6.963  0.00  0.00     0.046 C 
HETATM   12  C   UNK N   1      26.191  24.323  -5.750  0.00  0.00     0.144 C 
HETATM   13  C   UNK N   1      29.105  24.683  -8.992  0.00  0.00     0.013 C 
HETATM   14  C   UNK N   1      29.100  23.218  -9.527  0.00  0.00     0.025 C 
HETATM   15  C   UNK N   1      27.808  22.547  -8.924  0.00  0.00     0.130 C 
HETATM   16  O   UNK N   1      27.364  29.546  -2.231  0.00  0.00    -0.289 OA
HETATM   17 Cl   UNK N   1      28.548  25.456  -4.943  0.00  0.00    -0.115 Cl
HETATM   18  C   UNK N   1      27.595  23.402  -7.653  0.00  0.00     0.001 C 
HETATM   19  C   UNK N   1      28.668  23.014  -6.616  0.00  0.00     0.019 C 
HETATM   20  C   UNK N   1      27.782  24.801  -8.250  0.00  0.00     0.004 C 
HETATM   21  C   UNK N   1      24.913  27.169  -5.915  0.00  0.00     0.027 C 
HETATM   22  C   UNK N   1      30.419  22.605  -9.072  0.00  0.00     0.013 C 
HETATM   23  O   UNK N   1      26.751  22.781  -9.817  0.00  0.00    -0.381 OA
HETATM   24  H   UNK N   1      26.136  23.000 -10.534  0.00  0.00     0.211 HD
ENDROOT
BRANCH  15  25
HETATM   25  C   UNK N   1      27.802  21.041  -8.680  0.00  0.00     0.175 C 
HETATM   26  O   UNK N   1      26.779  20.513  -8.275  0.00  0.00    -0.293 OA
BRANCH  25  27
HETATM   27  C   UNK N   1      28.968  20.162  -9.001  0.00  0.00     0.196 C 
HETATM   28 Cl   UNK N   1      29.427  19.227  -7.554  0.00  0.00    -0.122 Cl
ENDBRANCH  25  27
ENDBRANCH  15  25
BRANCH  12  29
HETATM   29  O   UNK N   1      24.872  24.465  -5.319  0.00  0.00    -0.394 OA
HETATM   30  H   UNK N   1      24.104  23.906  -5.511  0.00  0.00     0.210 HD
ENDBRANCH  12  29
TORSDOF 3
ENDMDL
MODEL 9
REMARK VINA RESULT:      -6.9      6.346      9.537
REMARK  3 active torsions:
REMARK  status: ('A' for Active; 'I' for Inactive)
REMARK    1  A    between atoms: C_12  and  O_22 
REMARK    2  A    between atoms: C_15  and  C_24 
REMARK    3  A    between atoms: C_24  and  C_25 
ROOT
HETATM    1  C   UNK N   1      34.285  10.639  10.486  0.00  0.00     0.011 C 
HETATM    2  C   UNK N   1      35.254  11.819  10.320  0.00  0.00     0.018 C 
HETATM    3  C   UNK N   1      35.856   9.718  12.188  0.00  0.00    -0.062 A 
HETATM    4  C   UNK N   1      35.032   9.393  10.975  0.00  0.00     0.036 C 
HETATM    5  C   UNK N   1      36.012  12.182  11.646  0.00  0.00     0.081 C 
HETATM    6  C   UNK N   1      36.823  10.907  12.122  0.00  0.00     0.022 A 
HETATM    7  C   UNK N   1      37.406  10.402  14.520  0.00  0.00     0.052 A 
HETATM    8  C   UNK N   1      36.508   9.242  14.494  0.00  0.00     0.172 A 
HETATM    9  C   UNK N   1      35.718   8.961  13.288  0.00  0.00     0.058 A 
HETATM   10  C   UNK N   1      37.551  11.170  13.434  0.00  0.00    -0.007 A 
HETATM   11  C   UNK N   1      36.597  14.387  10.228  0.00  0.00     0.046 C 
HETATM   12  C   UNK N   1      36.914  13.469  11.441  0.00  0.00     0.144 C 
HETATM   13  C   UNK N   1      33.200  13.207   9.146  0.00  0.00     0.013 C 
HETATM   14  C   UNK N   1      33.152  14.643   8.539  0.00  0.00     0.025 C 
HETATM   15  C   UNK N   1      34.602  15.233   8.723  0.00  0.00     0.130 C 
HETATM   16  O   UNK N   1      36.422   8.510  15.467  0.00  0.00    -0.289 OA
HETATM   17 Cl   UNK N   1      34.804  12.564  12.930  0.00  0.00    -0.115 Cl
HETATM   18  C   UNK N   1      35.101  14.419   9.940  0.00  0.00     0.001 C 
HETATM   19  C   UNK N   1      34.385  14.934  11.203  0.00  0.00     0.019 C 
HETATM   20  C   UNK N   1      34.666  13.015   9.505  0.00  0.00     0.004 C 
HETATM   21  C   UNK N   1      37.908  10.527  11.112  0.00  0.00     0.027 C 
HETATM   22  C   UNK N   1      32.054  15.378   9.297  0.00  0.00     0.013 C 
HETATM   23  O   UNK N   1      35.352  14.878   7.593  0.00  0.00    -0.381 OA
HETATM   24  H   UNK N   1      35.730  14.581   6.750  0.00  0.00     0.211 HD
ENDROOT
BRANCH  15  25
HETATM   25  C   UNK N   1      34.773  16.743   8.862  0.00  0.00     0.175 C 
HETATM   26  O   UNK N   1      35.298  17.187   9.871  0.00  0.00    -0.293 OA
BRANCH  25  27
HETATM   27  C   UNK N   1      34.408  17.704   7.777  0.00  0.00     0.196 C 
HETATM   28 Cl   UNK N   1      32.863  18.499   8.177  0.00  0.00    -0.122 Cl
ENDBRANCH  25  27
ENDBRANCH  15  25
BRANCH  12  29
HETATM   29  O   UNK N   1      38.289  13.241  11.504  0.00  0.00    -0.394 OA
HETATM   30  H   UNK N   1      38.784  12.669  12.110  0.00  0.00     0.210 HD
ENDBRANCH  12  29
TORSDOF 3
ENDMDL
