REMARK  6 active torsions:
REMARK  status: ('A' for Active; 'I' for Inactive)
REMARK    1  A    between atoms: C_19  and  O_1 
REMARK    2  A    between atoms: C_2  and  O_1 
REMARK    3  A    between atoms: C_3  and  C_2 
REMARK    4  A    between atoms: C_3  and  C_7 
REMARK    5  A    between atoms: C_3  and  C_5 
REMARK    6  A    between atoms: O_6  and  C_5 
ROOT
HETATM    1  C   UNK N   1       0.236   0.328  -0.220  0.00  0.00     0.270 C 
HETATM    2  O   UNK N   1      -0.029  -0.479  -1.104  0.00  0.00    -0.264 OA
ENDROOT
BRANCH   1   3
HETATM    3  O   UNK N   1      -0.625   0.526   0.822  0.00  0.00    -0.315 OA
BRANCH   3   4
HETATM    4  C   UNK N   1      -1.916   0.021   0.890  0.00  0.00     0.136 C 
HETATM    5  C   UNK N   1      -1.961  -1.491   0.560  0.00  0.00     0.068 C 
HETATM    6  C   UNK N   1      -3.340  -1.965   0.050  0.00  0.00     0.225 C 
HETATM    7  C   UNK N   1      -4.371  -1.753   1.147  0.00  0.00     0.038 C 
HETATM    8  N   UNK N   1      -3.825  -1.115  -1.038  0.00  0.00     0.093 N 
HETATM    9  C   UNK N   1      -4.897  -0.338   0.898  0.00  0.00     0.038 C 
HETATM   10  C   UNK N   1      -4.158   0.130  -0.353  0.00  0.00     0.225 C 
HETATM   11  C   UNK N   1      -2.870   0.884   0.044  0.00  0.00     0.068 C 
HETATM   12  C   UNK N   1      -2.875  -0.947  -2.139  0.00  0.00     0.310 C 
ENDBRANCH   3   4
ENDBRANCH   1   3
BRANCH   1  13
HETATM   13  C   UNK N   1       1.540   1.079  -0.307  0.00  0.00     0.142 C 
BRANCH  13  14
HETATM   14  C   UNK N   1       2.762   0.196  -0.134  0.00  0.00    -0.043 A 
HETATM   15  C   UNK N   1       2.646  -1.155   0.245  0.00  0.00     0.008 A 
HETATM   16  C   UNK N   1       3.786  -1.948   0.401  0.00  0.00     0.001 A 
HETATM   17  C   UNK N   1       5.052  -1.403   0.179  0.00  0.00     0.000 A 
HETATM   18  C   UNK N   1       5.179  -0.065  -0.202  0.00  0.00     0.001 A 
HETATM   19  C   UNK N   1       4.039   0.730  -0.358  0.00  0.00     0.008 A 
ENDBRANCH  13  14
BRANCH  13  20
HETATM   20  C   UNK N   1       1.567   2.268   0.647  0.00  0.00     0.183 C 
BRANCH  20  21
HETATM   21  O   UNK N   1       2.481   3.219   0.192  0.00  0.00    -0.400 OA
HETATM   22  H   UNK N   1       3.371   3.000  -0.125  0.00  0.00     0.209 HD
ENDBRANCH  20  21
ENDBRANCH  13  20
ENDBRANCH   1  13
TORSDOF 6
