MODEL 1
REMARK VINA RESULT:      -6.0      0.000      0.000
REMARK  10 active torsions:
REMARK  status: ('A' for Active; 'I' for Inactive)
REMARK    1  A    between atoms: C_1  and  C_2 
REMARK    2  A    between atoms: C_1  and  O_15 
REMARK    3  A    between atoms: C_2  and  C_3 
REMARK    4  A    between atoms: C_3  and  C_4 
REMARK    5  A    between atoms: C_3  and  N_16 
REMARK       I    between atoms: C_4  and  N_5 
REMARK    6  A    between atoms: N_5  and  C_6 
REMARK    7  A    between atoms: C_6  and  C_7 
REMARK    8  A    between atoms: C_6  and  C_18 
REMARK    9  A    between atoms: C_7  and  C_8 
REMARK   10  A    between atoms: C_18  and  O_20 
ROOT
HETATM    1  C   UNK N   1      29.444  23.604  -5.296  0.00  0.00     0.241 C 
HETATM    2  N   UNK N   1      28.319  23.016  -5.776  0.00  0.00    -0.345 N 
HETATM    3  O   UNK N   1      29.507  24.817  -5.153  0.00  0.00    -0.271 OA
HETATM    4  H   UNK N   1      28.323  22.037  -5.876  0.00  0.00     0.163 HD
ENDROOT
BRANCH   2   5
HETATM    5  C   UNK N   1      27.109  23.721  -6.152  0.00  0.00     0.188 C 
BRANCH   5   6
HETATM    6  C   UNK N   1      26.153  23.896  -4.973  0.00  0.00     0.074 C 
BRANCH   6   7
HETATM    7  C   UNK N   1      25.978  25.358  -4.732  0.00  0.00    -0.056 A 
HETATM    8  C   UNK N   1      26.490  25.955  -3.572  0.00  0.00     0.007 A 
HETATM    9  C   UNK N   1      26.250  27.307  -3.315  0.00  0.00     0.001 A 
HETATM   10  C   UNK N   1      25.492  28.064  -4.212  0.00  0.00     0.000 A 
HETATM   11  C   UNK N   1      24.981  27.472  -5.371  0.00  0.00     0.001 A 
HETATM   12  C   UNK N   1      25.221  26.119  -5.628  0.00  0.00     0.007 A 
ENDBRANCH   6   7
ENDBRANCH   5   6
BRANCH   5  13
HETATM   13  C   UNK N   1      26.471  23.140  -7.387  0.00  0.00     0.281 C 
HETATM   14  O   UNK N   1      27.144  23.010  -8.400  0.00  0.00    -0.263 OA
BRANCH  13  15
HETATM   15  O   UNK N   1      25.160  22.787  -7.380  0.00  0.00    -0.325 OA
HETATM   16  C   UNK N   1      24.751  21.475  -7.430  0.00  0.00     0.213 C 
ENDBRANCH  13  15
ENDBRANCH   5  13
ENDBRANCH   2   5
BRANCH   1  17
HETATM   17  C   UNK N   1      30.612  22.733  -4.939  0.00  0.00     0.177 C 
BRANCH  17  18
HETATM   18  C   UNK N   1      30.332  21.794  -3.761  0.00  0.00     0.144 C 
BRANCH  18  19
HETATM   19  C   UNK N   1      31.104  22.119  -2.517  0.00  0.00     0.141 C 
HETATM   20  O   UNK N   1      30.723  23.005  -1.770  0.00  0.00    -0.650 OA
BRANCH  19  21
HETATM   21  O   UNK N   1      32.245  21.459  -2.247  0.00  0.00    -0.776 OA
HETATM   22  H   UNK N   1      32.231  20.679  -1.728  0.00  0.00     0.167 HD
ENDBRANCH  19  21
ENDBRANCH  18  19
ENDBRANCH  17  18
BRANCH  17  23
HETATM   23  N   UNK N   1      31.810  23.527  -4.721  0.00  0.00    -0.418 N 
HETATM   24  H   UNK N   1      32.711  23.342  -4.280  0.00  0.00     0.150 HD
HETATM   25  H   UNK N   1      31.732  24.476  -5.087  0.00  0.00     0.150 HD
ENDBRANCH  17  23
ENDBRANCH   1  17
TORSDOF 10
ENDMDL
MODEL 2
REMARK VINA RESULT:      -5.8      1.715      2.445
REMARK  10 active torsions:
REMARK  status: ('A' for Active; 'I' for Inactive)
REMARK    1  A    between atoms: C_1  and  C_2 
REMARK    2  A    between atoms: C_1  and  O_15 
REMARK    3  A    between atoms: C_2  and  C_3 
REMARK    4  A    between atoms: C_3  and  C_4 
REMARK    5  A    between atoms: C_3  and  N_16 
REMARK       I    between atoms: C_4  and  N_5 
REMARK    6  A    between atoms: N_5  and  C_6 
REMARK    7  A    between atoms: C_6  and  C_7 
REMARK    8  A    between atoms: C_6  and  C_18 
REMARK    9  A    between atoms: C_7  and  C_8 
REMARK   10  A    between atoms: C_18  and  O_20 
ROOT
HETATM    1  C   UNK N   1      28.324  24.522  -4.782  0.00  0.00     0.241 C 
HETATM    2  N   UNK N   1      26.980  24.643  -4.922  0.00  0.00    -0.345 N 
HETATM    3  O   UNK N   1      29.080  24.808  -5.700  0.00  0.00    -0.271 OA
HETATM    4  H   UNK N   1      26.417  24.394  -4.154  0.00  0.00     0.163 HD
ENDROOT
BRANCH   2   5
HETATM    5  C   UNK N   1      26.309  25.113  -6.118  0.00  0.00     0.188 C 
BRANCH   5   6
HETATM    6  C   UNK N   1      25.230  26.149  -5.805  0.00  0.00     0.074 C 
BRANCH   6   7
HETATM    7  C   UNK N   1      25.906  27.437  -5.475  0.00  0.00    -0.056 A 
HETATM    8  C   UNK N   1      26.942  27.925  -6.284  0.00  0.00     0.007 A 
HETATM    9  C   UNK N   1      27.624  29.089  -5.922  0.00  0.00     0.001 A 
HETATM   10  C   UNK N   1      27.278  29.765  -4.748  0.00  0.00     0.000 A 
HETATM   11  C   UNK N   1      26.245  29.281  -3.941  0.00  0.00     0.001 A 
HETATM   12  C   UNK N   1      25.562  28.116  -4.302  0.00  0.00     0.007 A 
ENDBRANCH   6   7
ENDBRANCH   5   6
BRANCH   5  13
HETATM   13  C   UNK N   1      25.844  23.979  -6.994  0.00  0.00     0.281 C 
HETATM   14  O   UNK N   1      25.191  23.073  -6.498  0.00  0.00    -0.263 OA
BRANCH  13  15
HETATM   15  O   UNK N   1      26.166  23.955  -8.313  0.00  0.00    -0.325 OA
HETATM   16  C   UNK N   1      26.557  25.082  -8.996  0.00  0.00     0.213 C 
ENDBRANCH  13  15
ENDBRANCH   5  13
ENDBRANCH   2   5
BRANCH   1  17
HETATM   17  C   UNK N   1      28.867  24.030  -3.473  0.00  0.00     0.177 C 
BRANCH  17  18
HETATM   18  C   UNK N   1      29.921  22.927  -3.628  0.00  0.00     0.144 C 
BRANCH  18  19
HETATM   19  C   UNK N   1      30.709  22.649  -2.383  0.00  0.00     0.141 C 
HETATM   20  O   UNK N   1      30.313  23.052  -1.301  0.00  0.00    -0.650 OA
BRANCH  19  21
HETATM   21  O   UNK N   1      31.878  21.989  -2.465  0.00  0.00    -0.776 OA
HETATM   22  H   UNK N   1      32.228  21.548  -1.716  0.00  0.00     0.167 HD
ENDBRANCH  19  21
ENDBRANCH  18  19
ENDBRANCH  17  18
BRANCH  17  23
HETATM   23  N   UNK N   1      27.794  23.625  -2.580  0.00  0.00    -0.418 N 
HETATM   24  H   UNK N   1      27.335  24.064  -1.782  0.00  0.00     0.150 HD
HETATM   25  H   UNK N   1      27.419  22.702  -2.799  0.00  0.00     0.150 HD
ENDBRANCH  17  23
ENDBRANCH   1  17
TORSDOF 10
ENDMDL
MODEL 3
REMARK VINA RESULT:      -5.7     13.626     16.752
REMARK  10 active torsions:
REMARK  status: ('A' for Active; 'I' for Inactive)
REMARK    1  A    between atoms: C_1  and  C_2 
REMARK    2  A    between atoms: C_1  and  O_15 
REMARK    3  A    between atoms: C_2  and  C_3 
REMARK    4  A    between atoms: C_3  and  C_4 
REMARK    5  A    between atoms: C_3  and  N_16 
REMARK       I    between atoms: C_4  and  N_5 
REMARK    6  A    between atoms: N_5  and  C_6 
REMARK    7  A    between atoms: C_6  and  C_7 
REMARK    8  A    between atoms: C_6  and  C_18 
REMARK    9  A    between atoms: C_7  and  C_8 
REMARK   10  A    between atoms: C_18  and  O_20 
ROOT
HETATM    1  C   UNK N   1      34.607  16.276   9.544  0.00  0.00     0.241 C 
HETATM    2  N   UNK N   1      33.810  15.832   8.540  0.00  0.00    -0.345 N 
HETATM    3  O   UNK N   1      34.667  17.467   9.818  0.00  0.00    -0.271 OA
HETATM    4  H   UNK N   1      33.803  14.865   8.358  0.00  0.00     0.163 HD
ENDROOT
BRANCH   2   5
HETATM    5  C   UNK N   1      32.965  16.674   7.716  0.00  0.00     0.188 C 
BRANCH   5   6
HETATM    6  C   UNK N   1      31.614  16.023   7.421  0.00  0.00     0.074 C 
BRANCH   6   7
HETATM    7  C   UNK N   1      30.542  16.977   7.827  0.00  0.00    -0.056 A 
HETATM    8  C   UNK N   1      30.710  17.803   8.947  0.00  0.00     0.007 A 
HETATM    9  C   UNK N   1      29.668  18.633   9.369  0.00  0.00     0.001 A 
HETATM   10  C   UNK N   1      28.454  18.634   8.676  0.00  0.00     0.000 A 
HETATM   11  C   UNK N   1      28.284  17.813   7.559  0.00  0.00     0.001 A 
HETATM   12  C   UNK N   1      29.326  16.982   7.137  0.00  0.00     0.007 A 
ENDBRANCH   6   7
ENDBRANCH   5   6
BRANCH   5  13
HETATM   13  C   UNK N   1      33.686  17.186   6.496  0.00  0.00     0.281 C 
HETATM   14  O   UNK N   1      34.542  18.048   6.630  0.00  0.00    -0.263 OA
BRANCH  13  15
HETATM   15  O   UNK N   1      33.373  16.710   5.264  0.00  0.00    -0.325 OA
HETATM   16  C   UNK N   1      32.838  17.508   4.281  0.00  0.00     0.213 C 
ENDBRANCH  13  15
ENDBRANCH   5  13
ENDBRANCH   2   5
BRANCH   1  17
HETATM   17  C   UNK N   1      35.415  15.275  10.315  0.00  0.00     0.177 C 
BRANCH  17  18
HETATM   18  C   UNK N   1      34.580  14.447  11.298  0.00  0.00     0.144 C 
BRANCH  18  19
HETATM   19  C   UNK N   1      35.383  13.747  12.353  0.00  0.00     0.141 C 
HETATM   20  O   UNK N   1      34.931  13.603  13.477  0.00  0.00    -0.650 OA
BRANCH  19  21
HETATM   21  O   UNK N   1      36.625  13.314  12.070  0.00  0.00    -0.776 OA
HETATM   22  H   UNK N   1      36.947  12.517  12.443  0.00  0.00     0.167 HD
ENDBRANCH  19  21
ENDBRANCH  18  19
ENDBRANCH  17  18
BRANCH  17  23
HETATM   23  N   UNK N   1      36.546  15.909  10.973  0.00  0.00    -0.418 N 
HETATM   24  H   UNK N   1      36.799  16.068  11.948  0.00  0.00     0.150 HD
HETATM   25  H   UNK N   1      37.235  16.276  10.317  0.00  0.00     0.150 HD
ENDBRANCH  17  23
ENDBRANCH   1  17
TORSDOF 10
ENDMDL
MODEL 4
REMARK VINA RESULT:      -5.7     19.336     23.165
REMARK  10 active torsions:
REMARK  status: ('A' for Active; 'I' for Inactive)
REMARK    1  A    between atoms: C_1  and  C_2 
REMARK    2  A    between atoms: C_1  and  O_15 
REMARK    3  A    between atoms: C_2  and  C_3 
REMARK    4  A    between atoms: C_3  and  C_4 
REMARK    5  A    between atoms: C_3  and  N_16 
REMARK       I    between atoms: C_4  and  N_5 
REMARK    6  A    between atoms: N_5  and  C_6 
REMARK    7  A    between atoms: C_6  and  C_7 
REMARK    8  A    between atoms: C_6  and  C_18 
REMARK    9  A    between atoms: C_7  and  C_8 
REMARK   10  A    between atoms: C_18  and  O_20 
ROOT
HETATM    1  C   UNK N   1      35.336  13.103  11.852  0.00  0.00     0.241 C 
HETATM    2  N   UNK N   1      34.577  13.148  12.976  0.00  0.00    -0.345 N 
HETATM    3  O   UNK N   1      36.332  12.394  11.795  0.00  0.00    -0.271 OA
HETATM    4  H   UNK N   1      33.790  13.739  12.970  0.00  0.00     0.163 HD
ENDROOT
BRANCH   2   5
HETATM    5  C   UNK N   1      34.837  12.392  14.185  0.00  0.00     0.188 C 
BRANCH   5   6
HETATM    6  C   UNK N   1      36.273  12.564  14.675  0.00  0.00     0.074 C 
BRANCH   6   7
HETATM    7  C   UNK N   1      36.278  13.613  15.736  0.00  0.00    -0.056 A 
HETATM    8  C   UNK N   1      37.129  14.722  15.637  0.00  0.00     0.007 A 
HETATM    9  C   UNK N   1      37.187  15.656  16.675  0.00  0.00     0.001 A 
HETATM   10  C   UNK N   1      36.398  15.481  17.816  0.00  0.00     0.000 A 
HETATM   11  C   UNK N   1      35.547  14.377  17.916  0.00  0.00     0.001 A 
HETATM   12  C   UNK N   1      35.490  13.442  16.878  0.00  0.00     0.007 A 
ENDBRANCH   6   7
ENDBRANCH   5   6
BRANCH   5  13
HETATM   13  C   UNK N   1      34.390  10.958  14.067  0.00  0.00     0.281 C 
HETATM   14  O   UNK N   1      33.233  10.671  14.341  0.00  0.00    -0.263 OA
BRANCH  13  15
HETATM   15  O   UNK N   1      35.266   9.995  13.683  0.00  0.00    -0.325 OA
HETATM   16  C   UNK N   1      34.953   9.049  12.736  0.00  0.00     0.213 C 
ENDBRANCH  13  15
ENDBRANCH   5  13
ENDBRANCH   2   5
BRANCH   1  17
HETATM   17  C   UNK N   1      34.927  13.939  10.675  0.00  0.00     0.177 C 
BRANCH  17  18
HETATM   18  C   UNK N   1      34.648  15.402  11.038  0.00  0.00     0.144 C 
BRANCH  18  19
HETATM   19  C   UNK N   1      35.767  16.343  10.707  0.00  0.00     0.141 C 
HETATM   20  O   UNK N   1      35.525  17.461  10.281  0.00  0.00    -0.650 OA
BRANCH  19  21
HETATM   21  O   UNK N   1      37.043  15.938  10.840  0.00  0.00    -0.776 OA
HETATM   22  H   UNK N   1      37.254  15.205  11.382  0.00  0.00     0.167 HD
ENDBRANCH  19  21
ENDBRANCH  18  19
ENDBRANCH  17  18
BRANCH  17  23
HETATM   23  N   UNK N   1      33.808  13.338   9.969  0.00  0.00    -0.418 N 
HETATM   24  H   UNK N   1      33.373  13.503   9.062  0.00  0.00     0.150 HD
HETATM   25  H   UNK N   1      33.361  12.587  10.496  0.00  0.00     0.150 HD
ENDBRANCH  17  23
ENDBRANCH   1  17
TORSDOF 10
ENDMDL
MODEL 5
REMARK VINA RESULT:      -5.6     13.691     15.316
REMARK  10 active torsions:
REMARK  status: ('A' for Active; 'I' for Inactive)
REMARK    1  A    between atoms: C_1  and  C_2 
REMARK    2  A    between atoms: C_1  and  O_15 
REMARK    3  A    between atoms: C_2  and  C_3 
REMARK    4  A    between atoms: C_3  and  C_4 
REMARK    5  A    between atoms: C_3  and  N_16 
REMARK       I    between atoms: C_4  and  N_5 
REMARK    6  A    between atoms: N_5  and  C_6 
REMARK    7  A    between atoms: C_6  and  C_7 
REMARK    8  A    between atoms: C_6  and  C_18 
REMARK    9  A    between atoms: C_7  and  C_8 
REMARK   10  A    between atoms: C_18  and  O_20 
ROOT
HETATM    1  C   UNK N   1      20.646  17.554   2.987  0.00  0.00     0.241 C 
HETATM    2  N   UNK N   1      20.179  17.582   4.261  0.00  0.00    -0.345 N 
HETATM    3  O   UNK N   1      21.602  16.854   2.683  0.00  0.00    -0.271 OA
HETATM    4  H   UNK N   1      19.411  18.166   4.452  0.00  0.00     0.163 HD
ENDROOT
BRANCH   2   5
HETATM    5  C   UNK N   1      20.726  16.813   5.362  0.00  0.00     0.188 C 
BRANCH   5   6
HETATM    6  C   UNK N   1      19.634  16.238   6.262  0.00  0.00     0.074 C 
BRANCH   6   7
HETATM    7  C   UNK N   1      20.263  15.234   7.170  0.00  0.00    -0.056 A 
HETATM    8  C   UNK N   1      20.759  14.027   6.661  0.00  0.00     0.007 A 
HETATM    9  C   UNK N   1      21.271  13.058   7.528  0.00  0.00     0.001 A 
HETATM   10  C   UNK N   1      21.281  13.292   8.907  0.00  0.00     0.000 A 
HETATM   11  C   UNK N   1      20.788  14.496   9.416  0.00  0.00     0.001 A 
HETATM   12  C   UNK N   1      20.275  15.465   8.549  0.00  0.00     0.007 A 
ENDBRANCH   6   7
ENDBRANCH   5   6
BRANCH   5  13
HETATM   13  C   UNK N   1      21.806  17.562   6.098  0.00  0.00     0.281 C 
HETATM   14  O   UNK N   1      21.490  18.459   6.867  0.00  0.00    -0.263 OA
BRANCH  13  15
HETATM   15  O   UNK N   1      23.113  17.259   5.894  0.00  0.00    -0.325 OA
HETATM   16  C   UNK N   1      23.895  17.940   4.990  0.00  0.00     0.213 C 
ENDBRANCH  13  15
ENDBRANCH   5  13
ENDBRANCH   2   5
BRANCH   1  17
HETATM   17  C   UNK N   1      19.962  18.401   1.954  0.00  0.00     0.177 C 
BRANCH  17  18
HETATM   18  C   UNK N   1      20.752  19.660   1.580  0.00  0.00     0.144 C 
BRANCH  18  19
HETATM   19  C   UNK N   1      21.129  20.520   2.749  0.00  0.00     0.141 C 
HETATM   20  O   UNK N   1      22.219  21.068   2.783  0.00  0.00    -0.650 OA
BRANCH  19  21
HETATM   21  O   UNK N   1      20.279  20.653   3.783  0.00  0.00    -0.776 OA
HETATM   22  H   UNK N   1      19.854  21.472   3.945  0.00  0.00     0.167 HD
ENDBRANCH  19  21
ENDBRANCH  18  19
ENDBRANCH  17  18
BRANCH  17  23
HETATM   23  N   UNK N   1      18.602  18.719   2.356  0.00  0.00    -0.418 N 
HETATM   24  H   UNK N   1      18.009  19.543   2.255  0.00  0.00     0.150 HD
HETATM   25  H   UNK N   1      18.140  17.953   2.846  0.00  0.00     0.150 HD
ENDBRANCH  17  23
ENDBRANCH   1  17
TORSDOF 10
ENDMDL
MODEL 6
REMARK VINA RESULT:      -5.6     12.965     15.385
REMARK  10 active torsions:
REMARK  status: ('A' for Active; 'I' for Inactive)
REMARK    1  A    between atoms: C_1  and  C_2 
REMARK    2  A    between atoms: C_1  and  O_15 
REMARK    3  A    between atoms: C_2  and  C_3 
REMARK    4  A    between atoms: C_3  and  C_4 
REMARK    5  A    between atoms: C_3  and  N_16 
REMARK       I    between atoms: C_4  and  N_5 
REMARK    6  A    between atoms: N_5  and  C_6 
REMARK    7  A    between atoms: C_6  and  C_7 
REMARK    8  A    between atoms: C_6  and  C_18 
REMARK    9  A    between atoms: C_7  and  C_8 
REMARK   10  A    between atoms: C_18  and  O_20 
ROOT
HETATM    1  C   UNK N   1      34.279  17.108   7.992  0.00  0.00     0.241 C 
HETATM    2  N   UNK N   1      33.207  16.419   7.525  0.00  0.00    -0.345 N 
HETATM    3  O   UNK N   1      34.592  18.186   7.508  0.00  0.00    -0.271 OA
HETATM    4  H   UNK N   1      33.002  15.554   7.947  0.00  0.00     0.163 HD
ENDROOT
BRANCH   2   5
HETATM    5  C   UNK N   1      32.339  16.861   6.452  0.00  0.00     0.188 C 
BRANCH   5   6
HETATM    6  C   UNK N   1      30.986  16.152   6.475  0.00  0.00     0.074 C 
BRANCH   6   7
HETATM    7  C   UNK N   1      29.946  17.151   6.858  0.00  0.00    -0.056 A 
HETATM    8  C   UNK N   1      29.134  17.744   5.883  0.00  0.00     0.007 A 
HETATM    9  C   UNK N   1      28.220  18.738   6.241  0.00  0.00     0.001 A 
HETATM   10  C   UNK N   1      28.121  19.147   7.574  0.00  0.00     0.000 A 
HETATM   11  C   UNK N   1      28.929  18.556   8.550  0.00  0.00     0.001 A 
HETATM   12  C   UNK N   1      29.844  17.562   8.191  0.00  0.00     0.007 A 
ENDBRANCH   6   7
ENDBRANCH   5   6
BRANCH   5  13
HETATM   13  C   UNK N   1      33.030  16.836   5.113  0.00  0.00     0.281 C 
HETATM   14  O   UNK N   1      33.064  17.857   4.441  0.00  0.00    -0.263 OA
BRANCH  13  15
HETATM   15  O   UNK N   1      33.588  15.688   4.651  0.00  0.00    -0.325 OA
HETATM   16  C   UNK N   1      33.541  15.329   3.324  0.00  0.00     0.213 C 
ENDBRANCH  13  15
ENDBRANCH   5  13
ENDBRANCH   2   5
BRANCH   1  17
HETATM   17  C   UNK N   1      35.073  16.520   9.121  0.00  0.00     0.177 C 
BRANCH  17  18
HETATM   18  C   UNK N   1      34.721  15.058   9.415  0.00  0.00     0.144 C 
BRANCH  18  19
HETATM   19  C   UNK N   1      34.107  14.832  10.765  0.00  0.00     0.141 C 
HETATM   20  O   UNK N   1      34.785  14.407  11.686  0.00  0.00    -0.650 OA
BRANCH  19  21
HETATM   21  O   UNK N   1      32.794  15.060  10.949  0.00  0.00    -0.776 OA
HETATM   22  H   UNK N   1      32.163  14.707  10.354  0.00  0.00     0.167 HD
ENDBRANCH  19  21
ENDBRANCH  18  19
ENDBRANCH  17  18
BRANCH  17  23
HETATM   23  N   UNK N   1      34.979  17.346  10.313  0.00  0.00    -0.418 N 
HETATM   24  H   UNK N   1      35.425  18.214  10.611  0.00  0.00     0.150 HD
HETATM   25  H   UNK N   1      34.324  16.977  11.004  0.00  0.00     0.150 HD
ENDBRANCH  17  23
ENDBRANCH   1  17
TORSDOF 10
ENDMDL
MODEL 7
REMARK VINA RESULT:      -5.5     13.364     16.559
REMARK  10 active torsions:
REMARK  status: ('A' for Active; 'I' for Inactive)
REMARK    1  A    between atoms: C_1  and  C_2 
REMARK    2  A    between atoms: C_1  and  O_15 
REMARK    3  A    between atoms: C_2  and  C_3 
REMARK    4  A    between atoms: C_3  and  C_4 
REMARK    5  A    between atoms: C_3  and  N_16 
REMARK       I    between atoms: C_4  and  N_5 
REMARK    6  A    between atoms: N_5  and  C_6 
REMARK    7  A    between atoms: C_6  and  C_7 
REMARK    8  A    between atoms: C_6  and  C_18 
REMARK    9  A    between atoms: C_7  and  C_8 
REMARK   10  A    between atoms: C_18  and  O_20 
ROOT
HETATM    1  C   UNK N   1      33.331  15.328   9.342  0.00  0.00     0.241 C 
HETATM    2  N   UNK N   1      32.789  16.543   9.072  0.00  0.00    -0.345 N 
HETATM    3  O   UNK N   1      33.358  14.450   8.492  0.00  0.00    -0.271 OA
HETATM    4  H   UNK N   1      32.789  17.213   9.793  0.00  0.00     0.163 HD
ENDROOT
BRANCH   2   5
HETATM    5  C   UNK N   1      32.212  16.930   7.800  0.00  0.00     0.188 C 
BRANCH   5   6
HETATM    6  C   UNK N   1      33.219  17.651   6.904  0.00  0.00     0.074 C 
BRANCH   6   7
HETATM    7  C   UNK N   1      33.180  17.013   5.556  0.00  0.00    -0.056 A 
HETATM    8  C   UNK N   1      33.882  15.825   5.311  0.00  0.00     0.007 A 
HETATM    9  C   UNK N   1      33.907  15.279   4.025  0.00  0.00     0.001 A 
HETATM   10  C   UNK N   1      33.237  15.923   2.980  0.00  0.00     0.000 A 
HETATM   11  C   UNK N   1      32.535  17.107   3.223  0.00  0.00     0.001 A 
HETATM   12  C   UNK N   1      32.510  17.654   4.510  0.00  0.00     0.007 A 
ENDBRANCH   6   7
ENDBRANCH   5   6
BRANCH   5  13
HETATM   13  C   UNK N   1      30.901  17.653   7.965  0.00  0.00     0.281 C 
HETATM   14  O   UNK N   1      29.995  17.433   7.174  0.00  0.00    -0.263 OA
BRANCH  13  15
HETATM   15  O   UNK N   1      30.736  18.554   8.967  0.00  0.00    -0.325 OA
HETATM   16  C   UNK N   1      29.613  18.576   9.761  0.00  0.00     0.213 C 
ENDBRANCH  13  15
ENDBRANCH   5  13
ENDBRANCH   2   5
BRANCH   1  17
HETATM   17  C   UNK N   1      33.901  15.085  10.708  0.00  0.00     0.177 C 
BRANCH  17  18
HETATM   18  C   UNK N   1      35.094  15.990  11.039  0.00  0.00     0.144 C 
BRANCH  18  19
HETATM   19  C   UNK N   1      36.411  15.275  11.098  0.00  0.00     0.141 C 
HETATM   20  O   UNK N   1      37.118  15.205  10.107  0.00  0.00    -0.650 OA
BRANCH  19  21
HETATM   21  O   UNK N   1      36.794  14.674  12.239  0.00  0.00    -0.776 OA
HETATM   22  H   UNK N   1      36.319  14.815  13.034  0.00  0.00     0.167 HD
ENDBRANCH  19  21
ENDBRANCH  18  19
ENDBRANCH  17  18
BRANCH  17  23
HETATM   23  N   UNK N   1      34.224  13.681  10.899  0.00  0.00    -0.418 N 
HETATM   24  H   UNK N   1      33.665  12.842  11.056  0.00  0.00     0.150 HD
HETATM   25  H   UNK N   1      35.226  13.493  10.868  0.00  0.00     0.150 HD
ENDBRANCH  17  23
ENDBRANCH   1  17
TORSDOF 10
ENDMDL
MODEL 8
REMARK VINA RESULT:      -5.5     19.058     23.258
REMARK  10 active torsions:
REMARK  status: ('A' for Active; 'I' for Inactive)
REMARK    1  A    between atoms: C_1  and  C_2 
REMARK    2  A    between atoms: C_1  and  O_15 
REMARK    3  A    between atoms: C_2  and  C_3 
REMARK    4  A    between atoms: C_3  and  C_4 
REMARK    5  A    between atoms: C_3  and  N_16 
REMARK       I    between atoms: C_4  and  N_5 
REMARK    6  A    between atoms: N_5  and  C_6 
REMARK    7  A    between atoms: C_6  and  C_7 
REMARK    8  A    between atoms: C_6  and  C_18 
REMARK    9  A    between atoms: C_7  and  C_8 
REMARK   10  A    between atoms: C_18  and  O_20 
ROOT
HETATM    1  C   UNK N   1      35.753  13.935  12.085  0.00  0.00     0.241 C 
HETATM    2  N   UNK N   1      36.666  12.951  12.282  0.00  0.00    -0.345 N 
HETATM    3  O   UNK N   1      34.654  13.889  12.621  0.00  0.00    -0.271 OA
HETATM    4  H   UNK N   1      37.533  13.034  11.823  0.00  0.00     0.163 HD
ENDROOT
BRANCH   2   5
HETATM    5  C   UNK N   1      36.463  11.785  13.120  0.00  0.00     0.188 C 
BRANCH   5   6
HETATM    6  C   UNK N   1      37.397  11.773  14.329  0.00  0.00     0.074 C 
BRANCH   6   7
HETATM    7  C   UNK N   1      36.566  11.930  15.558  0.00  0.00    -0.056 A 
HETATM    8  C   UNK N   1      36.017  13.175  15.892  0.00  0.00     0.007 A 
HETATM    9  C   UNK N   1      35.310  13.331  17.087  0.00  0.00     0.001 A 
HETATM   10  C   UNK N   1      35.156  12.244  17.954  0.00  0.00     0.000 A 
HETATM   11  C   UNK N   1      35.701  11.001  17.621  0.00  0.00     0.001 A 
HETATM   12  C   UNK N   1      36.409  10.845  16.426  0.00  0.00     0.007 A 
ENDBRANCH   6   7
ENDBRANCH   5   6
BRANCH   5  13
HETATM   13  C   UNK N   1      36.461  10.505  12.325  0.00  0.00     0.281 C 
HETATM   14  O   UNK N   1      37.524  10.053  11.922  0.00  0.00    -0.263 OA
BRANCH  13  15
HETATM   15  O   UNK N   1      35.293   9.875  12.041  0.00  0.00    -0.325 OA
HETATM   16  C   UNK N   1      34.097  10.250  12.608  0.00  0.00     0.213 C 
ENDBRANCH  13  15
ENDBRANCH   5  13
ENDBRANCH   2   5
BRANCH   1  17
HETATM   17  C   UNK N   1      36.120  15.086  11.196  0.00  0.00     0.177 C 
BRANCH  17  18
HETATM   18  C   UNK N   1      35.043  15.419  10.157  0.00  0.00     0.144 C 
BRANCH  18  19
HETATM   19  C   UNK N   1      34.845  16.887   9.925  0.00  0.00     0.141 C 
HETATM   20  O   UNK N   1      35.728  17.680  10.207  0.00  0.00    -0.650 OA
BRANCH  19  21
HETATM   21  O   UNK N   1      33.672  17.335   9.441  0.00  0.00    -0.776 OA
HETATM   22  H   UNK N   1      33.411  17.133   8.564  0.00  0.00     0.167 HD
ENDBRANCH  19  21
ENDBRANCH  18  19
ENDBRANCH  17  18
BRANCH  17  23
HETATM   23  N   UNK N   1      37.417  14.875  10.575  0.00  0.00    -0.418 N 
HETATM   24  H   UNK N   1      37.789  14.175   9.933  0.00  0.00     0.150 HD
HETATM   25  H   UNK N   1      38.106  15.580  10.839  0.00  0.00     0.150 HD
ENDBRANCH  17  23
ENDBRANCH   1  17
TORSDOF 10
ENDMDL
MODEL 9
REMARK VINA RESULT:      -5.5     15.706     17.393
REMARK  10 active torsions:
REMARK  status: ('A' for Active; 'I' for Inactive)
REMARK    1  A    between atoms: C_1  and  C_2 
REMARK    2  A    between atoms: C_1  and  O_15 
REMARK    3  A    between atoms: C_2  and  C_3 
REMARK    4  A    between atoms: C_3  and  C_4 
REMARK    5  A    between atoms: C_3  and  N_16 
REMARK       I    between atoms: C_4  and  N_5 
REMARK    6  A    between atoms: N_5  and  C_6 
REMARK    7  A    between atoms: C_6  and  C_7 
REMARK    8  A    between atoms: C_6  and  C_18 
REMARK    9  A    between atoms: C_7  and  C_8 
REMARK   10  A    between atoms: C_18  and  O_20 
ROOT
HETATM    1  C   UNK N   1      20.179  16.426   5.532  0.00  0.00     0.241 C 
HETATM    2  N   UNK N   1      21.145  16.316   6.479  0.00  0.00    -0.345 N 
HETATM    3  O   UNK N   1      19.028  16.086   5.766  0.00  0.00    -0.271 OA
HETATM    4  H   UNK N   1      22.055  16.599   6.236  0.00  0.00     0.163 HD
ENDROOT
BRANCH   2   5
HETATM    5  C   UNK N   1      20.936  15.814   7.823  0.00  0.00     0.188 C 
BRANCH   5   6
HETATM    6  C   UNK N   1      20.626  14.318   7.838  0.00  0.00     0.074 C 
BRANCH   6   7
HETATM    7  C   UNK N   1      21.406  13.694   8.946  0.00  0.00    -0.056 A 
HETATM    8  C   UNK N   1      22.798  13.568   8.853  0.00  0.00     0.007 A 
HETATM    9  C   UNK N   1      23.511  12.909   9.858  0.00  0.00     0.001 A 
HETATM   10  C   UNK N   1      22.832  12.368  10.955  0.00  0.00     0.000 A 
HETATM   11  C   UNK N   1      21.444  12.495  11.051  0.00  0.00     0.001 A 
HETATM   12  C   UNK N   1      20.731  13.154  10.045  0.00  0.00     0.007 A 
ENDBRANCH   6   7
ENDBRANCH   5   6
BRANCH   5  13
HETATM   13  C   UNK N   1      19.961  16.658   8.601  0.00  0.00     0.281 C 
HETATM   14  O   UNK N   1      20.283  17.791   8.929  0.00  0.00    -0.263 OA
BRANCH  13  15
HETATM   15  O   UNK N   1      18.749  16.157   8.953  0.00  0.00    -0.325 OA
HETATM   16  C   UNK N   1      17.674  16.964   9.240  0.00  0.00     0.213 C 
ENDBRANCH  13  15
ENDBRANCH   5  13
ENDBRANCH   2   5
BRANCH   1  17
HETATM   17  C   UNK N   1      20.552  16.978   4.187  0.00  0.00     0.177 C 
BRANCH  17  18
HETATM   18  C   UNK N   1      21.511  18.171   4.265  0.00  0.00     0.144 C 
BRANCH  18  19
HETATM   19  C   UNK N   1      21.031  19.394   3.542  0.00  0.00     0.141 C 
HETATM   20  O   UNK N   1      20.478  20.294   4.153  0.00  0.00    -0.650 OA
BRANCH  19  21
HETATM   21  O   UNK N   1      21.174  19.481   2.207  0.00  0.00    -0.776 OA
HETATM   22  H   UNK N   1      20.484  19.826   1.677  0.00  0.00     0.167 HD
ENDBRANCH  19  21
ENDBRANCH  18  19
ENDBRANCH  17  18
BRANCH  17  23
HETATM   23  N   UNK N   1      19.369  17.289   3.402  0.00  0.00    -0.418 N 
HETATM   24  H   UNK N   1      18.457  16.847   3.291  0.00  0.00     0.150 HD
HETATM   25  H   UNK N   1      19.474  18.134   2.840  0.00  0.00     0.150 HD
ENDBRANCH  17  23
ENDBRANCH   1  17
TORSDOF 10
ENDMDL
