MODEL 1
REMARK VINA RESULT:      -3.9      0.000      0.000
REMARK  22 active torsions:
REMARK  status: ('A' for Active; 'I' for Inactive)
REMARK    1  A    between atoms: C_2  and  O_3 
REMARK    2  A    between atoms: C_4  and  O_5 
REMARK    3  A    between atoms: C_6  and  C_7 
REMARK    4  A    between atoms: C_7  and  C_8 
REMARK    5  A    between atoms: C_9  and  C_10 
REMARK    6  A    between atoms: C_10  and  C_11 
REMARK    7  A    between atoms: C_11  and  C_12 
REMARK    8  A    between atoms: C_12  and  C_14 
REMARK    9  A    between atoms: C_16  and  C_17 
REMARK   10  A    between atoms: C_18  and  C_24 
REMARK   11  A    between atoms: C_24  and  C_19 
REMARK   12  A    between atoms: C_19  and  C_20 
REMARK   13  A    between atoms: C_20  and  C_21 
REMARK   14  A    between atoms: C_21  and  C_22 
REMARK   15  A    between atoms: C_24  and  O_25 
REMARK   16  A    between atoms: C_28  and  O_27 
REMARK   17  A    between atoms: C_29  and  C_28 
REMARK   18  A    between atoms: C_30  and  C_29 
REMARK   19  A    between atoms: C_29  and  N_32 
REMARK   20  A    between atoms: C_29  and  C_33 
REMARK   21  A    between atoms: O_31  and  C_30 
REMARK   22  A    between atoms: C_33  and  O_34 
ROOT
HETATM    1  C   UNK N   1      43.896  23.102   3.161  0.00  0.00     0.186 C 
ENDROOT
BRANCH   1   2
HETATM    2  C   UNK N   1      42.619  22.701   2.432  0.00  0.00     0.207 C 
BRANCH   2   3
HETATM    3  O   UNK N   1      41.807  23.812   2.185  0.00  0.00    -0.398 OA
HETATM    4  H   UNK N   1      41.171  24.114   1.519  0.00  0.00     0.209 HD
ENDBRANCH   2   3
ENDBRANCH   1   2
BRANCH   1   5
HETATM    5  C   UNK N   1      44.802  23.788   2.137  0.00  0.00     0.207 C 
BRANCH   5   6
HETATM    6  O   UNK N   1      45.934  24.343   2.738  0.00  0.00    -0.398 OA
HETATM    7  H   UNK N   1      46.687  23.817   3.052  0.00  0.00     0.209 HD
ENDBRANCH   5   6
ENDBRANCH   1   5
BRANCH   1   8
HETATM    8  N   UNK N   1      43.568  24.037   4.225  0.00  0.00    -0.064 N 
HETATM    9  H   UNK N   1      42.656  24.256   4.626  0.00  0.00     0.275 HD
HETATM   10  H   UNK N   1      44.357  24.542   4.627  0.00  0.00     0.275 HD
HETATM   11  H   UNK N   1      43.453  24.716   4.978  0.00  0.00     0.275 HD
ENDBRANCH   1   8
BRANCH   1  12
HETATM   12  C   UNK N   1      44.550  21.847   3.748  0.00  0.00     0.207 C 
BRANCH  12  13
HETATM   13  O   UNK N   1      45.810  22.120   4.281  0.00  0.00    -0.398 OA
HETATM   14  H   UNK N   1      46.616  21.590   4.177  0.00  0.00     0.209 HD
ENDBRANCH  12  13
ENDBRANCH   1  12
TORSDOF 22
ENDMDL
MODEL 2
REMARK VINA RESULT:      -3.9      0.068      2.892
REMARK  22 active torsions:
REMARK  status: ('A' for Active; 'I' for Inactive)
REMARK    1  A    between atoms: C_2  and  O_3 
REMARK    2  A    between atoms: C_4  and  O_5 
REMARK    3  A    between atoms: C_6  and  C_7 
REMARK    4  A    between atoms: C_7  and  C_8 
REMARK    5  A    between atoms: C_9  and  C_10 
REMARK    6  A    between atoms: C_10  and  C_11 
REMARK    7  A    between atoms: C_11  and  C_12 
REMARK    8  A    between atoms: C_12  and  C_14 
REMARK    9  A    between atoms: C_16  and  C_17 
REMARK   10  A    between atoms: C_18  and  C_24 
REMARK   11  A    between atoms: C_24  and  C_19 
REMARK   12  A    between atoms: C_19  and  C_20 
REMARK   13  A    between atoms: C_20  and  C_21 
REMARK   14  A    between atoms: C_21  and  C_22 
REMARK   15  A    between atoms: C_24  and  O_25 
REMARK   16  A    between atoms: C_28  and  O_27 
REMARK   17  A    between atoms: C_29  and  C_28 
REMARK   18  A    between atoms: C_30  and  C_29 
REMARK   19  A    between atoms: C_29  and  N_32 
REMARK   20  A    between atoms: C_29  and  C_33 
REMARK   21  A    between atoms: O_31  and  C_30 
REMARK   22  A    between atoms: C_33  and  O_34 
ROOT
HETATM    1  C   UNK N   1      43.868  23.107   3.136  0.00  0.00     0.186 C 
ENDROOT
BRANCH   1   2
HETATM    2  C   UNK N   1      44.486  21.862   3.761  0.00  0.00     0.207 C 
BRANCH   2   3
HETATM    3  O   UNK N   1      45.761  22.130   4.267  0.00  0.00    -0.398 OA
HETATM    4  H   UNK N   1      46.636  22.386   3.935  0.00  0.00     0.209 HD
ENDBRANCH   2   3
ENDBRANCH   1   2
BRANCH   1   5
HETATM    5  C   UNK N   1      42.561  22.675   2.469  0.00  0.00     0.207 C 
BRANCH   5   6
HETATM    6  O   UNK N   1      41.742  23.767   2.178  0.00  0.00    -0.398 OA
HETATM    7  H   UNK N   1      40.917  23.699   1.672  0.00  0.00     0.209 HD
ENDBRANCH   5   6
ENDBRANCH   1   5
BRANCH   1   8
HETATM    8  N   UNK N   1      43.585  24.078   4.181  0.00  0.00    -0.064 N 
HETATM    9  H   UNK N   1      43.034  23.961   5.032  0.00  0.00     0.275 HD
HETATM   10  H   UNK N   1      43.993  25.002   4.046  0.00  0.00     0.275 HD
HETATM   11  H   UNK N   1      43.451  24.835   4.852  0.00  0.00     0.275 HD
ENDBRANCH   1   8
BRANCH   1  12
HETATM   12  C   UNK N   1      44.854  23.699   2.123  0.00  0.00     0.207 C 
BRANCH  12  13
HETATM   13  O   UNK N   1      45.906  24.366   2.754  0.00  0.00    -0.398 OA
HETATM   14  H   UNK N   1      46.508  25.014   2.355  0.00  0.00     0.209 HD
ENDBRANCH  12  13
ENDBRANCH   1  12
TORSDOF 22
ENDMDL
MODEL 3
REMARK VINA RESULT:      -3.9      0.096      2.880
REMARK  22 active torsions:
REMARK  status: ('A' for Active; 'I' for Inactive)
REMARK    1  A    between atoms: C_2  and  O_3 
REMARK    2  A    between atoms: C_4  and  O_5 
REMARK    3  A    between atoms: C_6  and  C_7 
REMARK    4  A    between atoms: C_7  and  C_8 
REMARK    5  A    between atoms: C_9  and  C_10 
REMARK    6  A    between atoms: C_10  and  C_11 
REMARK    7  A    between atoms: C_11  and  C_12 
REMARK    8  A    between atoms: C_12  and  C_14 
REMARK    9  A    between atoms: C_16  and  C_17 
REMARK   10  A    between atoms: C_18  and  C_24 
REMARK   11  A    between atoms: C_24  and  C_19 
REMARK   12  A    between atoms: C_19  and  C_20 
REMARK   13  A    between atoms: C_20  and  C_21 
REMARK   14  A    between atoms: C_21  and  C_22 
REMARK   15  A    between atoms: C_24  and  O_25 
REMARK   16  A    between atoms: C_28  and  O_27 
REMARK   17  A    between atoms: C_29  and  C_28 
REMARK   18  A    between atoms: C_30  and  C_29 
REMARK   19  A    between atoms: C_29  and  N_32 
REMARK   20  A    between atoms: C_29  and  C_33 
REMARK   21  A    between atoms: O_31  and  C_30 
REMARK   22  A    between atoms: C_33  and  O_34 
ROOT
HETATM    1  C   UNK N   1      43.829  23.032   3.157  0.00  0.00     0.186 C 
ENDROOT
BRANCH   1   2
HETATM    2  C   UNK N   1      44.764  23.642   2.120  0.00  0.00     0.207 C 
BRANCH   2   3
HETATM    3  O   UNK N   1      45.816  24.331   2.730  0.00  0.00    -0.398 OA
HETATM    4  H   UNK N   1      46.776  24.425   2.635  0.00  0.00     0.209 HD
ENDBRANCH   2   3
ENDBRANCH   1   2
BRANCH   1   5
HETATM    5  C   UNK N   1      44.534  21.803   3.731  0.00  0.00     0.207 C 
BRANCH   5   6
HETATM    6  O   UNK N   1      45.768  22.131   4.297  0.00  0.00    -0.398 OA
HETATM    7  H   UNK N   1      46.496  22.534   3.797  0.00  0.00     0.209 HD
ENDBRANCH   5   6
ENDBRANCH   1   5
BRANCH   1   8
HETATM    8  N   UNK N   1      43.592  23.999   4.217  0.00  0.00    -0.064 N 
HETATM    9  H   UNK N   1      42.715  24.437   4.499  0.00  0.00     0.275 HD
HETATM   10  H   UNK N   1      44.414  24.276   4.752  0.00  0.00     0.275 HD
HETATM   11  H   UNK N   1      43.541  24.670   4.983  0.00  0.00     0.275 HD
ENDBRANCH   1   8
BRANCH   1  12
HETATM   12  C   UNK N   1      42.506  22.663   2.478  0.00  0.00     0.207 C 
BRANCH  12  13
HETATM   13  O   UNK N   1      41.765  23.795   2.136  0.00  0.00    -0.398 OA
HETATM   14  H   UNK N   1      41.911  24.381   1.377  0.00  0.00     0.209 HD
ENDBRANCH  12  13
ENDBRANCH   1  12
TORSDOF 22
ENDMDL
MODEL 4
REMARK VINA RESULT:      -3.8     22.065     23.709
REMARK  22 active torsions:
REMARK  status: ('A' for Active; 'I' for Inactive)
REMARK    1  A    between atoms: C_2  and  O_3 
REMARK    2  A    between atoms: C_4  and  O_5 
REMARK    3  A    between atoms: C_6  and  C_7 
REMARK    4  A    between atoms: C_7  and  C_8 
REMARK    5  A    between atoms: C_9  and  C_10 
REMARK    6  A    between atoms: C_10  and  C_11 
REMARK    7  A    between atoms: C_11  and  C_12 
REMARK    8  A    between atoms: C_12  and  C_14 
REMARK    9  A    between atoms: C_16  and  C_17 
REMARK   10  A    between atoms: C_18  and  C_24 
REMARK   11  A    between atoms: C_24  and  C_19 
REMARK   12  A    between atoms: C_19  and  C_20 
REMARK   13  A    between atoms: C_20  and  C_21 
REMARK   14  A    between atoms: C_21  and  C_22 
REMARK   15  A    between atoms: C_24  and  O_25 
REMARK   16  A    between atoms: C_28  and  O_27 
REMARK   17  A    between atoms: C_29  and  C_28 
REMARK   18  A    between atoms: C_30  and  C_29 
REMARK   19  A    between atoms: C_29  and  N_32 
REMARK   20  A    between atoms: C_29  and  C_33 
REMARK   21  A    between atoms: O_31  and  C_30 
REMARK   22  A    between atoms: C_33  and  O_34 
ROOT
HETATM    1  C   UNK N   1      20.888  20.107   2.425  0.00  0.00     0.186 C 
ENDROOT
BRANCH   1   2
HETATM    2  C   UNK N   1      22.337  20.016   2.887  0.00  0.00     0.207 C 
BRANCH   2   3
HETATM    3  O   UNK N   1      22.951  21.271   2.878  0.00  0.00    -0.398 OA
HETATM    4  H   UNK N   1      23.432  21.849   3.490  0.00  0.00     0.209 HD
ENDBRANCH   2   3
ENDBRANCH   1   2
BRANCH   1   5
HETATM    5  C   UNK N   1      20.320  18.687   2.441  0.00  0.00     0.207 C 
BRANCH   5   6
HETATM    6  O   UNK N   1      18.931  18.684   2.301  0.00  0.00    -0.398 OA
HETATM    7  H   UNK N   1      18.350  19.351   2.700  0.00  0.00     0.209 HD
ENDBRANCH   5   6
ENDBRANCH   1   5
BRANCH   1   8
HETATM    8  N   UNK N   1      20.141  20.942   3.352  0.00  0.00    -0.064 N 
HETATM    9  H   UNK N   1      19.169  20.856   3.651  0.00  0.00     0.275 HD
HETATM   10  H   UNK N   1      20.659  21.719   3.761  0.00  0.00     0.275 HD
HETATM   11  H   UNK N   1      19.716  21.590   4.016  0.00  0.00     0.275 HD
ENDBRANCH   1   8
BRANCH   1  12
HETATM   12  C   UNK N   1      20.850  20.719   1.021  0.00  0.00     0.207 C 
BRANCH  12  13
HETATM   13  O   UNK N   1      20.577  19.759   0.045  0.00  0.00    -0.398 OA
HETATM   14  H   UNK N   1      19.708  19.399  -0.193  0.00  0.00     0.209 HD
ENDBRANCH  12  13
ENDBRANCH   1  12
TORSDOF 22
ENDMDL
MODEL 5
REMARK VINA RESULT:      -3.8     22.060     23.546
REMARK  22 active torsions:
REMARK  status: ('A' for Active; 'I' for Inactive)
REMARK    1  A    between atoms: C_2  and  O_3 
REMARK    2  A    between atoms: C_4  and  O_5 
REMARK    3  A    between atoms: C_6  and  C_7 
REMARK    4  A    between atoms: C_7  and  C_8 
REMARK    5  A    between atoms: C_9  and  C_10 
REMARK    6  A    between atoms: C_10  and  C_11 
REMARK    7  A    between atoms: C_11  and  C_12 
REMARK    8  A    between atoms: C_12  and  C_14 
REMARK    9  A    between atoms: C_16  and  C_17 
REMARK   10  A    between atoms: C_18  and  C_24 
REMARK   11  A    between atoms: C_24  and  C_19 
REMARK   12  A    between atoms: C_19  and  C_20 
REMARK   13  A    between atoms: C_20  and  C_21 
REMARK   14  A    between atoms: C_21  and  C_22 
REMARK   15  A    between atoms: C_24  and  O_25 
REMARK   16  A    between atoms: C_28  and  O_27 
REMARK   17  A    between atoms: C_29  and  C_28 
REMARK   18  A    between atoms: C_30  and  C_29 
REMARK   19  A    between atoms: C_29  and  N_32 
REMARK   20  A    between atoms: C_29  and  C_33 
REMARK   21  A    between atoms: O_31  and  C_30 
REMARK   22  A    between atoms: C_33  and  O_34 
ROOT
HETATM    1  C   UNK N   1      20.934  19.953   2.439  0.00  0.00     0.186 C 
ENDROOT
BRANCH   1   2
HETATM    2  C   UNK N   1      20.834  20.719   1.126  0.00  0.00     0.207 C 
BRANCH   2   3
HETATM    3  O   UNK N   1      20.602  19.855   0.053  0.00  0.00    -0.398 OA
HETATM    4  H   UNK N   1      21.040  19.581  -0.768  0.00  0.00     0.209 HD
ENDBRANCH   2   3
ENDBRANCH   1   2
BRANCH   1   5
HETATM    5  C   UNK N   1      22.402  19.987   2.869  0.00  0.00     0.207 C 
BRANCH   5   6
HETATM    6  O   UNK N   1      22.904  21.289   2.894  0.00  0.00    -0.398 OA
HETATM    7  H   UNK N   1      22.918  21.873   2.119  0.00  0.00     0.209 HD
ENDBRANCH   5   6
ENDBRANCH   1   5
BRANCH   1   8
HETATM    8  N   UNK N   1      20.116  20.613   3.444  0.00  0.00    -0.064 N 
HETATM    9  H   UNK N   1      19.410  20.211   4.060  0.00  0.00     0.275 HD
HETATM   10  H   UNK N   1      20.270  21.616   3.548  0.00  0.00     0.275 HD
HETATM   11  H   UNK N   1      19.598  21.176   4.119  0.00  0.00     0.275 HD
ENDBRANCH   1   8
BRANCH   1  12
HETATM   12  C   UNK N   1      20.439  18.520   2.219  0.00  0.00     0.207 C 
BRANCH  12  13
HETATM   13  O   UNK N   1      19.046  18.450   2.200  0.00  0.00    -0.398 OA
HETATM   14  H   UNK N   1      18.423  19.149   2.453  0.00  0.00     0.209 HD
ENDBRANCH  12  13
ENDBRANCH   1  12
TORSDOF 22
ENDMDL
MODEL 6
REMARK VINA RESULT:      -3.8     22.545     24.002
REMARK  22 active torsions:
REMARK  status: ('A' for Active; 'I' for Inactive)
REMARK    1  A    between atoms: C_2  and  O_3 
REMARK    2  A    between atoms: C_4  and  O_5 
REMARK    3  A    between atoms: C_6  and  C_7 
REMARK    4  A    between atoms: C_7  and  C_8 
REMARK    5  A    between atoms: C_9  and  C_10 
REMARK    6  A    between atoms: C_10  and  C_11 
REMARK    7  A    between atoms: C_11  and  C_12 
REMARK    8  A    between atoms: C_12  and  C_14 
REMARK    9  A    between atoms: C_16  and  C_17 
REMARK   10  A    between atoms: C_18  and  C_24 
REMARK   11  A    between atoms: C_24  and  C_19 
REMARK   12  A    between atoms: C_19  and  C_20 
REMARK   13  A    between atoms: C_20  and  C_21 
REMARK   14  A    between atoms: C_21  and  C_22 
REMARK   15  A    between atoms: C_24  and  O_25 
REMARK   16  A    between atoms: C_28  and  O_27 
REMARK   17  A    between atoms: C_29  and  C_28 
REMARK   18  A    between atoms: C_30  and  C_29 
REMARK   19  A    between atoms: C_29  and  N_32 
REMARK   20  A    between atoms: C_29  and  C_33 
REMARK   21  A    between atoms: O_31  and  C_30 
REMARK   22  A    between atoms: C_33  and  O_34 
ROOT
HETATM    1  C   UNK N   1      20.542  19.723   1.968  0.00  0.00     0.186 C 
ENDROOT
BRANCH   1   2
HETATM    2  C   UNK N   1      21.853  19.751   2.744  0.00  0.00     0.207 C 
BRANCH   2   3
HETATM    3  O   UNK N   1      22.434  21.022   2.710  0.00  0.00    -0.398 OA
HETATM    4  H   UNK N   1      22.872  21.638   3.318  0.00  0.00     0.209 HD
ENDBRANCH   2   3
ENDBRANCH   1   2
BRANCH   1   5
HETATM    5  C   UNK N   1      20.429  21.056   1.227  0.00  0.00     0.207 C 
BRANCH   5   6
HETATM    6  O   UNK N   1      20.844  20.946  -0.102  0.00  0.00    -0.398 OA
HETATM    7  H   UNK N   1      21.734  21.183  -0.407  0.00  0.00     0.209 HD
ENDBRANCH   5   6
ENDBRANCH   1   5
BRANCH   1   8
HETATM    8  N   UNK N   1      20.577  18.632   1.007  0.00  0.00    -0.064 N 
HETATM    9  H   UNK N   1      21.226  18.478   0.236  0.00  0.00     0.275 HD
HETATM   10  H   UNK N   1      19.853  17.922   1.120  0.00  0.00     0.275 HD
HETATM   11  H   UNK N   1      20.507  17.822   0.390  0.00  0.00     0.275 HD
ENDBRANCH   1   8
BRANCH   1  12
HETATM   12  C   UNK N   1      19.385  19.520   2.952  0.00  0.00     0.207 C 
BRANCH  12  13
HETATM   13  O   UNK N   1      18.366  18.743   2.399  0.00  0.00    -0.398 OA
HETATM   14  H   UNK N   1      17.556  18.443   2.841  0.00  0.00     0.209 HD
ENDBRANCH  12  13
ENDBRANCH   1  12
TORSDOF 22
ENDMDL
MODEL 7
REMARK VINA RESULT:      -3.7     14.108     14.818
REMARK  22 active torsions:
REMARK  status: ('A' for Active; 'I' for Inactive)
REMARK    1  A    between atoms: C_2  and  O_3 
REMARK    2  A    between atoms: C_4  and  O_5 
REMARK    3  A    between atoms: C_6  and  C_7 
REMARK    4  A    between atoms: C_7  and  C_8 
REMARK    5  A    between atoms: C_9  and  C_10 
REMARK    6  A    between atoms: C_10  and  C_11 
REMARK    7  A    between atoms: C_11  and  C_12 
REMARK    8  A    between atoms: C_12  and  C_14 
REMARK    9  A    between atoms: C_16  and  C_17 
REMARK   10  A    between atoms: C_18  and  C_24 
REMARK   11  A    between atoms: C_24  and  C_19 
REMARK   12  A    between atoms: C_19  and  C_20 
REMARK   13  A    between atoms: C_20  and  C_21 
REMARK   14  A    between atoms: C_21  and  C_22 
REMARK   15  A    between atoms: C_24  and  O_25 
REMARK   16  A    between atoms: C_28  and  O_27 
REMARK   17  A    between atoms: C_29  and  C_28 
REMARK   18  A    between atoms: C_30  and  C_29 
REMARK   19  A    between atoms: C_29  and  N_32 
REMARK   20  A    between atoms: C_29  and  C_33 
REMARK   21  A    between atoms: O_31  and  C_30 
REMARK   22  A    between atoms: C_33  and  O_34 
ROOT
HETATM    1  C   UNK N   1      35.636  14.290  11.718  0.00  0.00     0.186 C 
ENDROOT
BRANCH   1   2
HETATM    2  C   UNK N   1      35.752  15.783  11.437  0.00  0.00     0.207 C 
BRANCH   2   3
HETATM    3  O   UNK N   1      36.999  16.099  10.890  0.00  0.00    -0.398 OA
HETATM    4  H   UNK N   1      37.805  15.642  10.605  0.00  0.00     0.209 HD
ENDBRANCH   2   3
ENDBRANCH   1   2
BRANCH   1   5
HETATM    5  C   UNK N   1      35.865  14.095  13.217  0.00  0.00     0.207 C 
BRANCH   5   6
HETATM    6  O   UNK N   1      36.781  15.018  13.726  0.00  0.00    -0.398 OA
HETATM    7  H   UNK N   1      37.696  15.093  13.411  0.00  0.00     0.209 HD
ENDBRANCH   5   6
ENDBRANCH   1   5
BRANCH   1   8
HETATM    8  N   UNK N   1      34.299  13.839  11.366  0.00  0.00    -0.064 N 
HETATM    9  H   UNK N   1      33.984  12.901  11.117  0.00  0.00     0.275 HD
HETATM   10  H   UNK N   1      33.576  14.558  11.370  0.00  0.00     0.275 HD
HETATM   11  H   UNK N   1      33.326  13.634  11.136  0.00  0.00     0.275 HD
ENDBRANCH   1   8
BRANCH   1  12
HETATM   12  C   UNK N   1      36.679  13.543  10.881  0.00  0.00     0.207 C 
BRANCH  12  13
HETATM   13  O   UNK N   1      37.882  13.386  11.572  0.00  0.00    -0.398 OA
HETATM   14  H   UNK N   1      37.996  13.281  12.530  0.00  0.00     0.209 HD
ENDBRANCH  12  13
ENDBRANCH   1  12
TORSDOF 22
ENDMDL
MODEL 8
REMARK VINA RESULT:      -3.7     14.118     14.825
REMARK  22 active torsions:
REMARK  status: ('A' for Active; 'I' for Inactive)
REMARK    1  A    between atoms: C_2  and  O_3 
REMARK    2  A    between atoms: C_4  and  O_5 
REMARK    3  A    between atoms: C_6  and  C_7 
REMARK    4  A    between atoms: C_7  and  C_8 
REMARK    5  A    between atoms: C_9  and  C_10 
REMARK    6  A    between atoms: C_10  and  C_11 
REMARK    7  A    between atoms: C_11  and  C_12 
REMARK    8  A    between atoms: C_12  and  C_14 
REMARK    9  A    between atoms: C_16  and  C_17 
REMARK   10  A    between atoms: C_18  and  C_24 
REMARK   11  A    between atoms: C_24  and  C_19 
REMARK   12  A    between atoms: C_19  and  C_20 
REMARK   13  A    between atoms: C_20  and  C_21 
REMARK   14  A    between atoms: C_21  and  C_22 
REMARK   15  A    between atoms: C_24  and  O_25 
REMARK   16  A    between atoms: C_28  and  O_27 
REMARK   17  A    between atoms: C_29  and  C_28 
REMARK   18  A    between atoms: C_30  and  C_29 
REMARK   19  A    between atoms: C_29  and  N_32 
REMARK   20  A    between atoms: C_29  and  C_33 
REMARK   21  A    between atoms: O_31  and  C_30 
REMARK   22  A    between atoms: C_33  and  O_34 
ROOT
HETATM    1  C   UNK N   1      35.637  14.303  11.744  0.00  0.00     0.186 C 
ENDROOT
BRANCH   1   2
HETATM    2  C   UNK N   1      36.676  13.553  10.921  0.00  0.00     0.207 C 
BRANCH   2   3
HETATM    3  O   UNK N   1      37.853  13.356  11.649  0.00  0.00    -0.398 OA
HETATM    4  H   UNK N   1      38.628  13.867  11.930  0.00  0.00     0.209 HD
ENDBRANCH   2   3
ENDBRANCH   1   2
BRANCH   1   5
HETATM    5  C   UNK N   1      35.748  15.782  11.371  0.00  0.00     0.207 C 
BRANCH   5   6
HETATM    6  O   UNK N   1      37.021  16.101  10.894  0.00  0.00    -0.398 OA
HETATM    7  H   UNK N   1      37.412  15.700  10.101  0.00  0.00     0.209 HD
ENDBRANCH   5   6
ENDBRANCH   1   5
BRANCH   1   8
HETATM    8  N   UNK N   1      34.311  13.813  11.403  0.00  0.00    -0.064 N 
HETATM    9  H   UNK N   1      33.592  13.430  12.018  0.00  0.00     0.275 HD
HETATM   10  H   UNK N   1      34.064  13.858  10.415  0.00  0.00     0.275 HD
HETATM   11  H   UNK N   1      33.406  13.496  11.053  0.00  0.00     0.275 HD
ENDBRANCH   1   8
BRANCH   1  12
HETATM   12  C   UNK N   1      35.916  14.069  13.232  0.00  0.00     0.207 C 
BRANCH  12  13
HETATM   13  O   UNK N   1      36.788  15.028  13.752  0.00  0.00    -0.398 OA
HETATM   14  H   UNK N   1      37.060  15.859  13.332  0.00  0.00     0.209 HD
ENDBRANCH  12  13
ENDBRANCH   1  12
TORSDOF 22
ENDMDL
MODEL 9
REMARK VINA RESULT:      -3.7     12.274     12.876
REMARK  22 active torsions:
REMARK  status: ('A' for Active; 'I' for Inactive)
REMARK    1  A    between atoms: C_2  and  O_3 
REMARK    2  A    between atoms: C_4  and  O_5 
REMARK    3  A    between atoms: C_6  and  C_7 
REMARK    4  A    between atoms: C_7  and  C_8 
REMARK    5  A    between atoms: C_9  and  C_10 
REMARK    6  A    between atoms: C_10  and  C_11 
REMARK    7  A    between atoms: C_11  and  C_12 
REMARK    8  A    between atoms: C_12  and  C_14 
REMARK    9  A    between atoms: C_16  and  C_17 
REMARK   10  A    between atoms: C_18  and  C_24 
REMARK   11  A    between atoms: C_24  and  C_19 
REMARK   12  A    between atoms: C_19  and  C_20 
REMARK   13  A    between atoms: C_20  and  C_21 
REMARK   14  A    between atoms: C_21  and  C_22 
REMARK   15  A    between atoms: C_24  and  O_25 
REMARK   16  A    between atoms: C_28  and  O_27 
REMARK   17  A    between atoms: C_29  and  C_28 
REMARK   18  A    between atoms: C_30  and  C_29 
REMARK   19  A    between atoms: C_29  and  N_32 
REMARK   20  A    between atoms: C_29  and  C_33 
REMARK   21  A    between atoms: O_31  and  C_30 
REMARK   22  A    between atoms: C_33  and  O_34 
ROOT
HETATM    1  C   UNK N   1      33.926  17.106   8.417  0.00  0.00     0.186 C 
ENDROOT
BRANCH   1   2
HETATM    2  C   UNK N   1      35.003  16.628   9.382  0.00  0.00     0.207 C 
BRANCH   2   3
HETATM    3  O   UNK N   1      34.866  17.234  10.634  0.00  0.00    -0.398 OA
HETATM    4  H   UNK N   1      35.347  17.863  11.194  0.00  0.00     0.209 HD
ENDBRANCH   2   3
ENDBRANCH   1   2
BRANCH   1   5
HETATM    5  C   UNK N   1      34.199  16.438   7.069  0.00  0.00     0.207 C 
BRANCH   5   6
HETATM    6  O   UNK N   1      34.473  17.376   6.072  0.00  0.00    -0.398 OA
HETATM    7  H   UNK N   1      34.073  17.352   5.188  0.00  0.00     0.209 HD
ENDBRANCH   5   6
ENDBRANCH   1   5
BRANCH   1   8
HETATM    8  N   UNK N   1      32.622  16.693   8.911  0.00  0.00    -0.064 N 
HETATM    9  H   UNK N   1      31.929  16.092   8.465  0.00  0.00     0.275 HD
HETATM   10  H   UNK N   1      32.364  17.053   9.830  0.00  0.00     0.275 HD
HETATM   11  H   UNK N   1      31.731  16.467   9.354  0.00  0.00     0.275 HD
ENDBRANCH   1   8
BRANCH   1  12
HETATM   12  C   UNK N   1      33.989  18.634   8.317  0.00  0.00     0.207 C 
BRANCH  12  13
HETATM   13  O   UNK N   1      35.293  19.110   8.467  0.00  0.00    -0.398 OA
HETATM   14  H   UNK N   1      36.060  18.891   7.915  0.00  0.00     0.209 HD
ENDBRANCH  12  13
ENDBRANCH   1  12
TORSDOF 22
ENDMDL
