MODEL 1
REMARK VINA RESULT:      -6.7      0.000      0.000
REMARK  3 active torsions:
REMARK  status: ('A' for Active; 'I' for Inactive)
REMARK    1  A    between atoms: N_12  and  C_17 
REMARK    2  A    between atoms: C_16  and  O_19 
REMARK    3  A    between atoms: C_17  and  C_20 
ROOT
HETATM    1  C   UNK N   1      31.945  15.942   6.677  0.00  0.00    -0.005 C 
HETATM    2  C   UNK N   1      33.355  16.563   6.535  0.00  0.00     0.032 C 
HETATM    3  C   UNK N   1      30.978  16.861   7.432  0.00  0.00    -0.040 A 
HETATM    4  C   UNK N   1      32.134  14.669   7.504  0.00  0.00     0.045 C 
HETATM    5  C   UNK N   1      31.354  15.587   5.290  0.00  0.00     0.015 C 
HETATM    6  C   UNK N   1      33.817  17.026   7.917  0.00  0.00     0.232 C 
HETATM    7  C   UNK N   1      33.349  17.705   5.510  0.00  0.00     0.008 C 
HETATM    8  C   UNK N   1      31.461  17.910   8.256  0.00  0.00    -0.049 A 
HETATM    9  C   UNK N   1      29.593  16.622   7.382  0.00  0.00     0.045 A 
HETATM   10  C   UNK N   1      32.690  15.009   8.901  0.00  0.00     0.274 C 
HETATM   11  C   UNK N   1      32.316  15.804   4.120  0.00  0.00     0.001 C 
HETATM   12  N   UNK N   1      33.859  15.912   8.887  0.00  0.00     0.097 N 
HETATM   13  C   UNK N   1      32.931  18.164   8.437  0.00  0.00     0.075 C 
HETATM   14  C   UNK N   1      32.867  17.236   4.126  0.00  0.00     0.001 C 
HETATM   15  C   UNK N   1      30.562  18.714   8.961  0.00  0.00     0.010 A 
HETATM   16  C   UNK N   1      28.705  17.432   8.095  0.00  0.00     0.066 A 
HETATM   17  C   UNK N   1      29.189  18.481   8.878  0.00  0.00     0.037 A 
ENDROOT
BRANCH  12  18
HETATM   18  C   UNK N   1      35.093  15.155   8.735  0.00  0.00     0.299 C 
BRANCH  18  19
HETATM   19  C   UNK N   1      35.910  15.273   9.983  0.00  0.00    -0.007 C 
HETATM   20  C   UNK N   1      35.617  16.194  10.901  0.00  0.00     0.008 C 
ENDBRANCH  18  19
ENDBRANCH  12  18
BRANCH  16  21
HETATM   21  O   UNK N   1      27.385  17.202   8.028  0.00  0.00    -0.361 OA
HETATM   22  H   UNK N   1      26.880  16.667   8.611  0.00  0.00     0.217 HD
ENDBRANCH  16  21
TORSDOF 3
ENDMDL
MODEL 2
REMARK VINA RESULT:      -6.5      3.723      6.662
REMARK  3 active torsions:
REMARK  status: ('A' for Active; 'I' for Inactive)
REMARK    1  A    between atoms: N_12  and  C_17 
REMARK    2  A    between atoms: C_16  and  O_19 
REMARK    3  A    between atoms: C_17  and  C_20 
ROOT
HETATM    1  C   UNK N   1      28.121  18.013   6.543  0.00  0.00    -0.005 C 
HETATM    2  C   UNK N   1      27.624  18.366   5.121  0.00  0.00     0.032 C 
HETATM    3  C   UNK N   1      29.613  17.662   6.567  0.00  0.00    -0.040 A 
HETATM    4  C   UNK N   1      27.334  16.770   6.961  0.00  0.00     0.045 C 
HETATM    5  C   UNK N   1      27.841  19.173   7.532  0.00  0.00     0.015 C 
HETATM    6  C   UNK N   1      28.062  17.252   4.169  0.00  0.00     0.232 C 
HETATM    7  C   UNK N   1      28.143  19.743   4.686  0.00  0.00     0.008 C 
HETATM    8  C   UNK N   1      30.293  17.284   5.381  0.00  0.00    -0.049 A 
HETATM    9  C   UNK N   1      30.312  17.629   7.787  0.00  0.00     0.045 A 
HETATM   10  C   UNK N   1      27.629  15.596   6.007  0.00  0.00     0.274 C 
HETATM   11  C   UNK N   1      27.042  20.332   6.934  0.00  0.00     0.001 C 
HETATM   12  N   UNK N   1      27.523  15.937   4.573  0.00  0.00     0.097 N 
HETATM   13  C   UNK N   1      29.590  17.200   4.055  0.00  0.00     0.075 C 
HETATM   14  C   UNK N   1      27.713  20.856   5.658  0.00  0.00     0.001 C 
HETATM   15  C   UNK N   1      31.645  16.936   5.431  0.00  0.00     0.010 A 
HETATM   16  C   UNK N   1      31.663  17.275   7.824  0.00  0.00     0.066 A 
HETATM   17  C   UNK N   1      32.331  16.936   6.646  0.00  0.00     0.037 A 
ENDROOT
BRANCH  12  18
HETATM   18  C   UNK N   1      26.152  15.787   4.108  0.00  0.00     0.299 C 
BRANCH  18  19
HETATM   19  C   UNK N   1      26.062  16.199   2.672  0.00  0.00    -0.007 C 
HETATM   20  C   UNK N   1      25.943  15.285   1.711  0.00  0.00     0.008 C 
ENDBRANCH  18  19
ENDBRANCH  12  18
BRANCH  16  21
HETATM   21  O   UNK N   1      32.322  17.261   8.994  0.00  0.00    -0.361 OA
HETATM   22  H   UNK N   1      32.548  18.006   9.517  0.00  0.00     0.217 HD
ENDBRANCH  16  21
TORSDOF 3
ENDMDL
MODEL 3
REMARK VINA RESULT:      -6.3     14.716     17.185
REMARK  3 active torsions:
REMARK  status: ('A' for Active; 'I' for Inactive)
REMARK    1  A    between atoms: N_12  and  C_17 
REMARK    2  A    between atoms: C_16  and  O_19 
REMARK    3  A    between atoms: C_17  and  C_20 
ROOT
HETATM    1  C   UNK N   1      27.646  26.982  -5.728  0.00  0.00    -0.005 C 
HETATM    2  C   UNK N   1      27.503  26.575  -4.242  0.00  0.00     0.032 C 
HETATM    3  C   UNK N   1      26.855  26.061  -6.663  0.00  0.00    -0.040 A 
HETATM    4  C   UNK N   1      29.132  26.830  -6.058  0.00  0.00     0.045 C 
HETATM    5  C   UNK N   1      27.205  28.452  -5.945  0.00  0.00     0.015 C 
HETATM    6  C   UNK N   1      27.808  25.081  -4.123  0.00  0.00     0.232 C 
HETATM    7  C   UNK N   1      26.108  26.929  -3.710  0.00  0.00     0.008 C 
HETATM    8  C   UNK N   1      26.438  24.773  -6.238  0.00  0.00    -0.049 A 
HETATM    9  C   UNK N   1      26.600  26.451  -7.990  0.00  0.00     0.045 A 
HETATM   10  C   UNK N   1      29.579  25.366  -5.880  0.00  0.00     0.274 C 
HETATM   11  C   UNK N   1      26.853  29.201  -4.658  0.00  0.00     0.001 C 
HETATM   12  N   UNK N   1      29.168  24.756  -4.598  0.00  0.00     0.097 N 
HETATM   13  C   UNK N   1      26.759  24.247  -4.868  0.00  0.00     0.075 C 
HETATM   14  C   UNK N   1      25.800  28.431  -3.850  0.00  0.00     0.001 C 
HETATM   15  C   UNK N   1      25.747  23.937  -7.118  0.00  0.00     0.010 A 
HETATM   16  C   UNK N   1      25.911  25.604  -8.861  0.00  0.00     0.066 A 
HETATM   17  C   UNK N   1      25.478  24.351  -8.423  0.00  0.00     0.037 A 
ENDROOT
BRANCH  12  18
HETATM   18  C   UNK N   1      30.149  25.033  -3.559  0.00  0.00     0.299 C 
BRANCH  18  19
HETATM   19  C   UNK N   1      30.761  23.750  -3.093  0.00  0.00    -0.007 C 
HETATM   20  C   UNK N   1      30.121  22.969  -2.224  0.00  0.00     0.008 C 
ENDBRANCH  18  19
ENDBRANCH  12  18
BRANCH  16  21
HETATM   21  O   UNK N   1      25.663  25.994 -10.121  0.00  0.00    -0.361 OA
HETATM   22  H   UNK N   1      25.660  26.874 -10.444  0.00  0.00     0.217 HD
ENDBRANCH  16  21
TORSDOF 3
ENDMDL
MODEL 4
REMARK VINA RESULT:      -6.2     13.297     16.125
REMARK  3 active torsions:
REMARK  status: ('A' for Active; 'I' for Inactive)
REMARK    1  A    between atoms: N_12  and  C_17 
REMARK    2  A    between atoms: C_16  and  O_19 
REMARK    3  A    between atoms: C_17  and  C_20 
ROOT
HETATM    1  C   UNK N   1      28.352  23.523  -6.305  0.00  0.00    -0.005 C 
HETATM    2  C   UNK N   1      27.095  24.400  -6.100  0.00  0.00     0.032 C 
HETATM    3  C   UNK N   1      28.945  23.038  -4.978  0.00  0.00    -0.040 A 
HETATM    4  C   UNK N   1      29.383  24.427  -6.983  0.00  0.00     0.045 C 
HETATM    5  C   UNK N   1      28.039  22.307  -7.213  0.00  0.00     0.015 C 
HETATM    6  C   UNK N   1      27.430  25.490  -5.082  0.00  0.00     0.232 C 
HETATM    7  C   UNK N   1      25.896  23.545  -5.667  0.00  0.00     0.008 C 
HETATM    8  C   UNK N   1      28.632  23.688  -3.757  0.00  0.00    -0.049 A 
HETATM    9  C   UNK N   1      29.879  21.985  -4.964  0.00  0.00     0.045 A 
HETATM   10  C   UNK N   1      29.732  25.624  -6.077  0.00  0.00     0.274 C 
HETATM   11  C   UNK N   1      26.625  22.306  -7.799  0.00  0.00     0.001 C 
HETATM   12  N   UNK N   1      28.558  26.334  -5.528  0.00  0.00     0.097 N 
HETATM   13  C   UNK N   1      27.720  24.881  -3.705  0.00  0.00     0.075 C 
HETATM   14  C   UNK N   1      25.575  22.440  -6.688  0.00  0.00     0.001 C 
HETATM   15  C   UNK N   1      29.210  23.250  -2.563  0.00  0.00     0.010 A 
HETATM   16  C   UNK N   1      30.452  21.559  -3.763  0.00  0.00     0.066 A 
HETATM   17  C   UNK N   1      30.112  22.186  -2.563  0.00  0.00     0.037 A 
ENDROOT
BRANCH  12  18
HETATM   18  C   UNK N   1      28.092  27.354  -6.456  0.00  0.00     0.299 C 
BRANCH  18  19
HETATM   19  C   UNK N   1      26.907  28.058  -5.874  0.00  0.00    -0.007 C 
HETATM   20  C   UNK N   1      27.062  29.189  -5.187  0.00  0.00     0.008 C 
ENDBRANCH  18  19
ENDBRANCH  12  18
BRANCH  16  21
HETATM   21  O   UNK N   1      31.332  20.545  -3.762  0.00  0.00    -0.361 OA
HETATM   22  H   UNK N   1      31.142  19.640  -3.603  0.00  0.00     0.217 HD
ENDBRANCH  16  21
TORSDOF 3
ENDMDL
MODEL 5
REMARK VINA RESULT:      -5.9      6.367      9.490
REMARK  3 active torsions:
REMARK  status: ('A' for Active; 'I' for Inactive)
REMARK    1  A    between atoms: N_12  and  C_17 
REMARK    2  A    between atoms: C_16  and  O_19 
REMARK    3  A    between atoms: C_17  and  C_20 
ROOT
HETATM    1  C   UNK N   1      35.621  10.895  13.752  0.00  0.00    -0.005 C 
HETATM    2  C   UNK N   1      36.681  10.746  14.869  0.00  0.00     0.032 C 
HETATM    3  C   UNK N   1      35.637  12.290  13.118  0.00  0.00    -0.040 A 
HETATM    4  C   UNK N   1      34.267  10.700  14.436  0.00  0.00     0.045 C 
HETATM    5  C   UNK N   1      35.817   9.819  12.654  0.00  0.00     0.015 C 
HETATM    6  C   UNK N   1      36.528  11.919  15.836  0.00  0.00     0.232 C 
HETATM    7  C   UNK N   1      38.093  10.660  14.274  0.00  0.00     0.008 C 
HETATM    8  C   UNK N   1      36.233  13.390  13.787  0.00  0.00    -0.049 A 
HETATM    9  C   UNK N   1      34.984  12.517  11.892  0.00  0.00     0.045 A 
HETATM   10  C   UNK N   1      34.042  11.784  15.508  0.00  0.00     0.274 C 
HETATM   11  C   UNK N   1      36.907   8.791  12.966  0.00  0.00     0.001 C 
HETATM   12  N   UNK N   1      35.178  11.969  16.435  0.00  0.00     0.097 N 
HETATM   13  C   UNK N   1      36.863  13.246  15.144  0.00  0.00     0.075 C 
HETATM   14  C   UNK N   1      38.236   9.487  13.289  0.00  0.00     0.001 C 
HETATM   15  C   UNK N   1      36.206  14.660  13.205  0.00  0.00     0.010 A 
HETATM   16  C   UNK N   1      34.962  13.792  11.323  0.00  0.00     0.066 A 
HETATM   17  C   UNK N   1      35.579  14.861  11.975  0.00  0.00     0.037 A 
ENDROOT
BRANCH  12  18
HETATM   18  C   UNK N   1      35.086  11.043  17.554  0.00  0.00     0.299 C 
BRANCH  18  19
HETATM   19  C   UNK N   1      35.374  11.769  18.830  0.00  0.00    -0.007 C 
HETATM   20  C   UNK N   1      35.146  13.078  18.932  0.00  0.00     0.008 C 
ENDBRANCH  18  19
ENDBRANCH  12  18
BRANCH  16  21
HETATM   21  O   UNK N   1      34.347  13.992  10.147  0.00  0.00    -0.361 OA
HETATM   22  H   UNK N   1      33.425  14.085  10.007  0.00  0.00     0.217 HD
ENDBRANCH  16  21
TORSDOF 3
ENDMDL
MODEL 6
REMARK VINA RESULT:      -5.9     11.254     14.332
REMARK  3 active torsions:
REMARK  status: ('A' for Active; 'I' for Inactive)
REMARK    1  A    between atoms: N_12  and  C_17 
REMARK    2  A    between atoms: C_16  and  O_19 
REMARK    3  A    between atoms: C_17  and  C_20 
ROOT
HETATM    1  C   UNK N   1      35.072  10.161  20.263  0.00  0.00    -0.005 C 
HETATM    2  C   UNK N   1      34.752   8.748  19.721  0.00  0.00     0.032 C 
HETATM    3  C   UNK N   1      35.149  11.208  19.146  0.00  0.00    -0.040 A 
HETATM    4  C   UNK N   1      36.455  10.053  20.908  0.00  0.00     0.045 C 
HETATM    5  C   UNK N   1      34.029  10.599  21.321  0.00  0.00     0.015 C 
HETATM    6  C   UNK N   1      35.723   8.438  18.582  0.00  0.00     0.232 C 
HETATM    7  C   UNK N   1      33.286   8.651  19.279  0.00  0.00     0.008 C 
HETATM    8  C   UNK N   1      35.343  10.822  17.795  0.00  0.00    -0.049 A 
HETATM    9  C   UNK N   1      35.109  12.579  19.460  0.00  0.00     0.045 A 
HETATM   10  C   UNK N   1      37.512   9.652  19.861  0.00  0.00     0.274 C 
HETATM   11  C   UNK N   1      33.007   9.519  21.684  0.00  0.00     0.001 C 
HETATM   12  N   UNK N   1      37.131   8.493  19.027  0.00  0.00     0.097 N 
HETATM   13  C   UNK N   1      35.493   9.382  17.395  0.00  0.00     0.075 C 
HETATM   14  C   UNK N   1      32.313   8.980  20.426  0.00  0.00     0.001 C 
HETATM   15  C   UNK N   1      35.443  11.796  16.798  0.00  0.00     0.010 A 
HETATM   16  C   UNK N   1      35.214  13.542  18.454  0.00  0.00     0.066 A 
HETATM   17  C   UNK N   1      35.373  13.151  17.123  0.00  0.00     0.037 A 
ENDROOT
BRANCH  12  18
HETATM   18  C   UNK N   1      37.506   7.245  19.677  0.00  0.00     0.299 C 
BRANCH  18  19
HETATM   19  C   UNK N   1      38.935   7.319  20.116  0.00  0.00    -0.007 C 
HETATM   20  C   UNK N   1      39.904   6.805  19.360  0.00  0.00     0.008 C 
ENDBRANCH  18  19
ENDBRANCH  12  18
BRANCH  16  21
HETATM   21  O   UNK N   1      35.161  14.847  18.764  0.00  0.00    -0.361 OA
HETATM   22  H   UNK N   1      34.958  15.553  18.181  0.00  0.00     0.217 HD
ENDBRANCH  16  21
TORSDOF 3
ENDMDL
MODEL 7
REMARK VINA RESULT:      -5.9      8.878     10.936
REMARK  3 active torsions:
REMARK  status: ('A' for Active; 'I' for Inactive)
REMARK    1  A    between atoms: N_12  and  C_17 
REMARK    2  A    between atoms: C_16  and  O_19 
REMARK    3  A    between atoms: C_17  and  C_20 
ROOT
HETATM    1  C   UNK N   1      21.468  16.887   3.919  0.00  0.00    -0.005 C 
HETATM    2  C   UNK N   1      21.965  15.426   4.031  0.00  0.00     0.032 C 
HETATM    3  C   UNK N   1      22.625  17.888   3.817  0.00  0.00    -0.040 A 
HETATM    4  C   UNK N   1      20.711  17.168   5.218  0.00  0.00     0.045 C 
HETATM    5  C   UNK N   1      20.519  17.059   2.707  0.00  0.00     0.015 C 
HETATM    6  C   UNK N   1      23.007  15.357   5.147  0.00  0.00     0.232 C 
HETATM    7  C   UNK N   1      22.516  14.931   2.687  0.00  0.00     0.008 C 
HETATM    8  C   UNK N   1      23.936  17.532   4.226  0.00  0.00    -0.049 A 
HETATM    9  C   UNK N   1      22.383  19.206   3.391  0.00  0.00     0.045 A 
HETATM   10  C   UNK N   1      21.650  17.035   6.433  0.00  0.00     0.274 C 
HETATM   11  C   UNK N   1      20.186  15.756   1.977  0.00  0.00     0.001 C 
HETATM   12  N   UNK N   1      22.454  15.795   6.446  0.00  0.00     0.097 N 
HETATM   13  C   UNK N   1      24.252  16.174   4.785  0.00  0.00     0.075 C 
HETATM   14  C   UNK N   1      21.467  15.020   1.564  0.00  0.00     0.001 C 
HETATM   15  C   UNK N   1      24.968  18.471   4.155  0.00  0.00     0.010 A 
HETATM   16  C   UNK N   1      23.423  20.136   3.329  0.00  0.00     0.066 A 
HETATM   17  C   UNK N   1      24.716  19.767   3.703  0.00  0.00     0.037 A 
ENDROOT
BRANCH  12  18
HETATM   18  C   UNK N   1      21.717  14.710   7.076  0.00  0.00     0.299 C 
BRANCH  18  19
HETATM   19  C   UNK N   1      21.094  15.198   8.346  0.00  0.00    -0.007 C 
HETATM   20  C   UNK N   1      21.115  14.444   9.444  0.00  0.00     0.008 C 
ENDBRANCH  18  19
ENDBRANCH  12  18
BRANCH  16  21
HETATM   21  O   UNK N   1      23.181  21.387   2.907  0.00  0.00    -0.361 OA
HETATM   22  H   UNK N   1      23.331  22.178   3.389  0.00  0.00     0.217 HD
ENDBRANCH  16  21
TORSDOF 3
ENDMDL
MODEL 8
REMARK VINA RESULT:      -5.8      2.931      5.620
REMARK  3 active torsions:
REMARK  status: ('A' for Active; 'I' for Inactive)
REMARK    1  A    between atoms: N_12  and  C_17 
REMARK    2  A    between atoms: C_16  and  O_19 
REMARK    3  A    between atoms: C_17  and  C_20 
ROOT
HETATM    1  C   UNK N   1      29.813  16.467   5.903  0.00  0.00    -0.005 C 
HETATM    2  C   UNK N   1      29.413  17.007   4.509  0.00  0.00     0.032 C 
HETATM    3  C   UNK N   1      31.242  16.863   6.291  0.00  0.00    -0.040 A 
HETATM    4  C   UNK N   1      29.757  14.943   5.789  0.00  0.00     0.045 C 
HETATM    5  C   UNK N   1      28.822  16.951   6.991  0.00  0.00     0.015 C 
HETATM    6  C   UNK N   1      30.506  16.621   3.513  0.00  0.00     0.232 C 
HETATM    7  C   UNK N   1      29.176  18.522   4.557  0.00  0.00     0.008 C 
HETATM    8  C   UNK N   1      32.179  17.271   5.308  0.00  0.00    -0.049 A 
HETATM    9  C   UNK N   1      31.669  16.747   7.627  0.00  0.00     0.045 A 
HETATM   10  C   UNK N   1      30.763  14.441   4.734  0.00  0.00     0.274 C 
HETATM   11  C   UNK N   1      27.623  17.733   6.449  0.00  0.00     0.001 C 
HETATM   12  N   UNK N   1      30.698  15.157   3.443  0.00  0.00     0.097 N 
HETATM   13  C   UNK N   1      31.826  17.325   3.849  0.00  0.00     0.075 C 
HETATM   14  C   UNK N   1      28.087  18.905   5.574  0.00  0.00     0.001 C 
HETATM   15  C   UNK N   1      33.486  17.596   5.681  0.00  0.00     0.010 A 
HETATM   16  C   UNK N   1      32.979  17.071   7.986  0.00  0.00     0.066 A 
HETATM   17  C   UNK N   1      33.885  17.502   7.015  0.00  0.00     0.037 A 
ENDROOT
BRANCH  12  18
HETATM   18  C   UNK N   1      29.699  14.556   2.571  0.00  0.00     0.299 C 
BRANCH  18  19
HETATM   19  C   UNK N   1      30.010  13.105   2.381  0.00  0.00    -0.007 C 
HETATM   20  C   UNK N   1      29.676  12.483   1.251  0.00  0.00     0.008 C 
ENDBRANCH  18  19
ENDBRANCH  12  18
BRANCH  16  21
HETATM   21  O   UNK N   1      33.370  16.969   9.266  0.00  0.00    -0.361 OA
HETATM   22  H   UNK N   1      32.943  17.344  10.012  0.00  0.00     0.217 HD
ENDBRANCH  16  21
TORSDOF 3
ENDMDL
MODEL 9
REMARK VINA RESULT:      -5.8      8.895     10.687
REMARK  3 active torsions:
REMARK  status: ('A' for Active; 'I' for Inactive)
REMARK    1  A    between atoms: N_12  and  C_17 
REMARK    2  A    between atoms: C_16  and  O_19 
REMARK    3  A    between atoms: C_17  and  C_20 
ROOT
HETATM    1  C   UNK N   1      21.880  13.113   7.280  0.00  0.00    -0.005 C 
HETATM    2  C   UNK N   1      22.917  13.782   6.347  0.00  0.00     0.032 C 
HETATM    3  C   UNK N   1      22.466  12.780   8.657  0.00  0.00    -0.040 A 
HETATM    4  C   UNK N   1      21.496  11.799   6.598  0.00  0.00     0.045 C 
HETATM    5  C   UNK N   1      20.626  14.007   7.448  0.00  0.00     0.015 C 
HETATM    6  C   UNK N   1      24.183  12.926   6.343  0.00  0.00     0.232 C 
HETATM    7  C   UNK N   1      23.192  15.228   6.783  0.00  0.00     0.008 C 
HETATM    8  C   UNK N   1      23.869  12.696   8.852  0.00  0.00    -0.049 A 
HETATM    9  C   UNK N   1      21.613  12.471   9.732  0.00  0.00     0.045 A 
HETATM   10  C   UNK N   1      22.727  10.883   6.454  0.00  0.00     0.274 C 
HETATM   11  C   UNK N   1      20.629  15.266   6.578  0.00  0.00     0.001 C 
HETATM   12  N   UNK N   1      23.916  11.548   5.883  0.00  0.00     0.097 N 
HETATM   13  C   UNK N   1      24.841  12.916   7.728  0.00  0.00     0.075 C 
HETATM   14  C   UNK N   1      21.910  16.079   6.801  0.00  0.00     0.001 C 
HETATM   15  C   UNK N   1      24.380  12.359  10.108  0.00  0.00     0.010 A 
HETATM   16  C   UNK N   1      22.138  12.131  10.981  0.00  0.00     0.066 A 
HETATM   17  C   UNK N   1      23.520  12.083  11.171  0.00  0.00     0.037 A 
ENDROOT
BRANCH  12  18
HETATM   18  C   UNK N   1      23.885  11.496   4.428  0.00  0.00     0.299 C 
BRANCH  18  19
HETATM   19  C   UNK N   1      25.135  12.107   3.878  0.00  0.00    -0.007 C 
HETATM   20  C   UNK N   1      25.102  12.829   2.759  0.00  0.00     0.008 C 
ENDBRANCH  18  19
ENDBRANCH  12  18
BRANCH  16  21
HETATM   21  O   UNK N   1      21.313  11.851  12.002  0.00  0.00    -0.361 OA
HETATM   22  H   UNK N   1      20.753  12.456  12.451  0.00  0.00     0.217 HD
ENDBRANCH  16  21
TORSDOF 3
ENDMDL
