MODEL 1
REMARK VINA RESULT:      -7.2      0.000      0.000
REMARK  5 active torsions:
REMARK  status: ('A' for Active; 'I' for Inactive)
REMARK    1  A    between atoms: C_6  and  O_13 
REMARK    2  A    between atoms: C_16  and  C_17 
REMARK    3  A    between atoms: C_17  and  C_18 
REMARK    4  A    between atoms: C_18  and  C_19 
REMARK    5  A    between atoms: C_19  and  C_20 
ROOT
HETATM    1  C   UNK N   1      35.179  12.459  16.596  0.00  0.00     0.054 C 
HETATM    2  C   UNK N   1      35.073  11.575  17.836  0.00  0.00     0.017 A 
HETATM    3  C   UNK N   1      35.825  11.617  15.486  0.00  0.00     0.032 C 
HETATM    4  C   UNK N   1      35.882  13.783  16.789  0.00  0.00    -0.014 C 
HETATM    5  C   UNK N   1      34.709  10.224  17.624  0.00  0.00     0.080 A 
HETATM    6  C   UNK N   1      35.293  12.027  19.161  0.00  0.00     0.075 A 
HETATM    7  C   UNK N   1      34.927  10.375  15.200  0.00  0.00     0.065 C 
HETATM    8  C   UNK N   1      36.051  12.470  14.236  0.00  0.00     0.013 C 
HETATM    9  C   UNK N   1      36.697  14.321  15.867  0.00  0.00    -0.087 C 
HETATM   10  O   UNK N   1      34.551   9.726  16.373  0.00  0.00    -0.340 OA
HETATM   11  C   UNK N   1      34.518   9.369  18.713  0.00  0.00     0.044 A 
HETATM   12  C   UNK N   1      35.098  11.153  20.235  0.00  0.00     0.044 A 
HETATM   13  C   UNK N   1      36.963  13.661  14.536  0.00  0.00     0.034 C 
HETATM   14  C   UNK N   1      37.359  15.621  16.165  0.00  0.00     0.043 C 
HETATM   15  C   UNK N   1      34.697   9.833  20.012  0.00  0.00    -0.053 A 
HETATM   16  C   UNK N   1      33.650  10.752  14.458  0.00  0.00     0.046 C 
HETATM   17  C   UNK N   1      35.694   9.392  14.331  0.00  0.00     0.046 C 
ENDROOT
BRANCH  15  18
HETATM   18  C   UNK N   1      34.433   8.923  21.157  0.00  0.00     0.039 C 
BRANCH  18  19
HETATM   19  C   UNK N   1      33.422   9.570  22.092  0.00  0.00     0.005 C 
BRANCH  19  20
HETATM   20  C   UNK N   1      32.029   9.460  21.511  0.00  0.00    -0.000 C 
BRANCH  20  21
HETATM   21  C   UNK N   1      31.746   8.013  21.158  0.00  0.00    -0.005 C 
HETATM   22  C   UNK N   1      30.761   7.957  20.012  0.00  0.00     0.005 C 
ENDBRANCH  20  21
ENDBRANCH  19  20
ENDBRANCH  18  19
ENDBRANCH  15  18
BRANCH   6  23
HETATM   23  O   UNK N   1      35.661  13.292  19.425  0.00  0.00    -0.360 OA
HETATM   24  H   UNK N   1      35.597  13.949  18.760  0.00  0.00     0.217 HD
ENDBRANCH   6  23
TORSDOF 5
ENDMDL
MODEL 2
REMARK VINA RESULT:      -6.9     23.976     27.214
REMARK  5 active torsions:
REMARK  status: ('A' for Active; 'I' for Inactive)
REMARK    1  A    between atoms: C_6  and  O_13 
REMARK    2  A    between atoms: C_16  and  C_17 
REMARK    3  A    between atoms: C_17  and  C_18 
REMARK    4  A    between atoms: C_18  and  C_19 
REMARK    5  A    between atoms: C_19  and  C_20 
ROOT
HETATM    1  C   UNK N   1      30.609  22.188  -5.444  0.00  0.00     0.054 C 
HETATM    2  C   UNK N   1      29.254  22.868  -5.261  0.00  0.00     0.017 A 
HETATM    3  C   UNK N   1      30.346  20.781  -5.998  0.00  0.00     0.032 C 
HETATM    4  C   UNK N   1      31.502  22.162  -4.224  0.00  0.00    -0.014 C 
HETATM    5  C   UNK N   1      28.286  22.638  -6.269  0.00  0.00     0.080 A 
HETATM    6  C   UNK N   1      28.925  23.715  -4.174  0.00  0.00     0.075 A 
HETATM    7  C   UNK N   1      29.604  20.902  -7.364  0.00  0.00     0.065 C 
HETATM    8  C   UNK N   1      31.658  20.004  -6.119  0.00  0.00     0.013 C 
HETATM    9  C   UNK N   1      32.277  21.113  -3.907  0.00  0.00    -0.087 C 
HETATM   10  O   UNK N   1      28.529  21.784  -7.294  0.00  0.00    -0.340 OA
HETATM   11  C   UNK N   1      27.048  23.282  -6.213  0.00  0.00     0.044 A 
HETATM   12  C   UNK N   1      27.677  24.348  -4.139  0.00  0.00     0.044 A 
HETATM   13  C   UNK N   1      32.348  19.869  -4.759  0.00  0.00     0.034 C 
HETATM   14  C   UNK N   1      33.104  21.179  -2.670  0.00  0.00     0.043 C 
HETATM   15  C   UNK N   1      26.750  24.143  -5.163  0.00  0.00    -0.053 A 
HETATM   16  C   UNK N   1      30.526  21.394  -8.474  0.00  0.00     0.046 C 
HETATM   17  C   UNK N   1      29.078  19.536  -7.772  0.00  0.00     0.046 C 
ENDROOT
BRANCH  15  18
HETATM   18  C   UNK N   1      25.448  24.863  -5.154  0.00  0.00     0.039 C 
BRANCH  18  19
HETATM   19  C   UNK N   1      25.493  25.997  -6.167  0.00  0.00     0.005 C 
BRANCH  19  20
HETATM   20  C   UNK N   1      24.716  27.189  -5.652  0.00  0.00    -0.000 C 
BRANCH  20  21
HETATM   21  C   UNK N   1      25.512  27.868  -4.554  0.00  0.00    -0.005 C 
HETATM   22  C   UNK N   1      26.719  28.552  -5.155  0.00  0.00     0.005 C 
ENDBRANCH  20  21
ENDBRANCH  19  20
ENDBRANCH  18  19
ENDBRANCH  15  18
BRANCH   6  23
HETATM   23  O   UNK N   1      29.791  23.955  -3.176  0.00  0.00    -0.360 OA
HETATM   24  H   UNK N   1      30.293  23.254  -2.810  0.00  0.00     0.217 HD
ENDBRANCH   6  23
TORSDOF 5
ENDMDL
MODEL 3
REMARK VINA RESULT:      -6.6     11.703     14.532
REMARK  5 active torsions:
REMARK  status: ('A' for Active; 'I' for Inactive)
REMARK    1  A    between atoms: C_6  and  O_13 
REMARK    2  A    between atoms: C_16  and  C_17 
REMARK    3  A    between atoms: C_17  and  C_18 
REMARK    4  A    between atoms: C_18  and  C_19 
REMARK    5  A    between atoms: C_19  and  C_20 
ROOT
HETATM    1  C   UNK N   1      28.211  17.948   6.136  0.00  0.00     0.054 C 
HETATM    2  C   UNK N   1      29.395  17.323   6.871  0.00  0.00     0.017 A 
HETATM    3  C   UNK N   1      28.524  17.894   4.634  0.00  0.00     0.032 C 
HETATM    4  C   UNK N   1      27.815  19.336   6.586  0.00  0.00    -0.014 C 
HETATM    5  C   UNK N   1      29.980  16.180   6.278  0.00  0.00     0.080 A 
HETATM    6  C   UNK N   1      29.915  17.802   8.100  0.00  0.00     0.075 A 
HETATM    7  C   UNK N   1      28.714  16.406   4.206  0.00  0.00     0.065 C 
HETATM    8  C   UNK N   1      27.419  18.590   3.836  0.00  0.00     0.013 C 
HETATM    9  C   UNK N   1      27.406  20.292   5.737  0.00  0.00    -0.087 C 
HETATM   10  O   UNK N   1      29.562  15.722   5.071  0.00  0.00    -0.340 OA
HETATM   11  C   UNK N   1      31.019  15.507   6.925  0.00  0.00     0.044 A 
HETATM   12  C   UNK N   1      30.957  17.112   8.729  0.00  0.00     0.044 A 
HETATM   13  C   UNK N   1      27.279  20.057   4.251  0.00  0.00     0.034 C 
HETATM   14  C   UNK N   1      27.059  21.634   6.279  0.00  0.00     0.043 C 
HETATM   15  C   UNK N   1      31.496  15.960   8.150  0.00  0.00    -0.053 A 
HETATM   16  C   UNK N   1      27.391  15.649   4.170  0.00  0.00     0.046 C 
HETATM   17  C   UNK N   1      29.311  16.359   2.809  0.00  0.00     0.046 C 
ENDROOT
BRANCH  15  18
HETATM   18  C   UNK N   1      32.562  15.196   8.850  0.00  0.00     0.039 C 
BRANCH  18  19
HETATM   19  C   UNK N   1      33.803  16.066   8.978  0.00  0.00     0.005 C 
BRANCH  19  20
HETATM   20  C   UNK N   1      34.481  16.210   7.633  0.00  0.00    -0.000 C 
BRANCH  20  21
HETATM   21  C   UNK N   1      34.220  17.601   7.087  0.00  0.00    -0.005 C 
HETATM   22  C   UNK N   1      33.667  17.496   5.684  0.00  0.00     0.005 C 
ENDBRANCH  20  21
ENDBRANCH  19  20
ENDBRANCH  18  19
ENDBRANCH  15  18
BRANCH   6  23
HETATM   23  O   UNK N   1      29.417  18.894   8.702  0.00  0.00    -0.360 OA
HETATM   24  H   UNK N   1      28.492  18.985   8.820  0.00  0.00     0.217 HD
ENDBRANCH   6  23
TORSDOF 5
ENDMDL
MODEL 4
REMARK VINA RESULT:      -6.4     15.139     18.512
REMARK  5 active torsions:
REMARK  status: ('A' for Active; 'I' for Inactive)
REMARK    1  A    between atoms: C_6  and  O_13 
REMARK    2  A    between atoms: C_16  and  C_17 
REMARK    3  A    between atoms: C_17  and  C_18 
REMARK    4  A    between atoms: C_18  and  C_19 
REMARK    5  A    between atoms: C_19  and  C_20 
ROOT
HETATM    1  C   UNK N   1      21.850  15.023   7.171  0.00  0.00     0.054 C 
HETATM    2  C   UNK N   1      22.656  16.053   6.383  0.00  0.00     0.017 A 
HETATM    3  C   UNK N   1      21.112  15.775   8.288  0.00  0.00     0.032 C 
HETATM    4  C   UNK N   1      22.630  13.840   7.700  0.00  0.00    -0.014 C 
HETATM    5  C   UNK N   1      22.035  17.302   6.149  0.00  0.00     0.080 A 
HETATM    6  C   UNK N   1      23.956  15.824   5.866  0.00  0.00     0.075 A 
HETATM    7  C   UNK N   1      20.168  16.839   7.649  0.00  0.00     0.065 C 
HETATM    8  C   UNK N   1      20.355  14.790   9.181  0.00  0.00     0.013 C 
HETATM    9  C   UNK N   1      22.396  13.286   8.900  0.00  0.00    -0.087 C 
HETATM   10  O   UNK N   1      20.821  17.594   6.678  0.00  0.00    -0.340 OA
HETATM   11  C   UNK N   1      22.677  18.271   5.373  0.00  0.00     0.044 A 
HETATM   12  C   UNK N   1      24.580  16.810   5.093  0.00  0.00     0.044 A 
HETATM   13  C   UNK N   1      21.309  13.780   9.823  0.00  0.00     0.034 C 
HETATM   14  C   UNK N   1      23.237  12.137   9.337  0.00  0.00     0.043 C 
HETATM   15  C   UNK N   1      23.935  18.022   4.835  0.00  0.00    -0.053 A 
HETATM   16  C   UNK N   1      18.952  16.200   6.989  0.00  0.00     0.046 C 
HETATM   17  C   UNK N   1      19.666  17.779   8.732  0.00  0.00     0.046 C 
ENDROOT
BRANCH  15  18
HETATM   18  C   UNK N   1      24.574  19.044   3.965  0.00  0.00     0.039 C 
BRANCH  18  19
HETATM   19  C   UNK N   1      26.059  18.739   3.838  0.00  0.00     0.005 C 
BRANCH  19  20
HETATM   20  C   UNK N   1      26.845  20.024   3.685  0.00  0.00    -0.000 C 
BRANCH  20  21
HETATM   21  C   UNK N   1      27.781  20.182   4.868  0.00  0.00    -0.005 C 
HETATM   22  C   UNK N   1      27.118  21.037   5.924  0.00  0.00     0.005 C 
ENDBRANCH  20  21
ENDBRANCH  19  20
ENDBRANCH  18  19
ENDBRANCH  15  18
BRANCH   6  23
HETATM   23  O   UNK N   1      24.607  14.667   6.072  0.00  0.00    -0.360 OA
HETATM   24  H   UNK N   1      24.301  14.065   6.721  0.00  0.00     0.217 HD
ENDBRANCH   6  23
TORSDOF 5
ENDMDL
MODEL 5
REMARK VINA RESULT:      -6.3      1.835      6.843
REMARK  5 active torsions:
REMARK  status: ('A' for Active; 'I' for Inactive)
REMARK    1  A    between atoms: C_6  and  O_13 
REMARK    2  A    between atoms: C_16  and  C_17 
REMARK    3  A    between atoms: C_17  and  C_18 
REMARK    4  A    between atoms: C_18  and  C_19 
REMARK    5  A    between atoms: C_19  and  C_20 
ROOT
HETATM    1  C   UNK N   1      34.023   8.765  21.786  0.00  0.00     0.054 C 
HETATM    2  C   UNK N   1      34.581   9.413  20.521  0.00  0.00     0.017 A 
HETATM    3  C   UNK N   1      32.497   8.699  21.633  0.00  0.00     0.032 C 
HETATM    4  C   UNK N   1      34.438   9.406  23.092  0.00  0.00    -0.014 C 
HETATM    5  C   UNK N   1      33.975   9.042  19.297  0.00  0.00     0.080 A 
HETATM    6  C   UNK N   1      35.663  10.328  20.503  0.00  0.00     0.075 A 
HETATM    7  C   UNK N   1      32.147   7.843  20.378  0.00  0.00     0.065 C 
HETATM    8  C   UNK N   1      31.859   8.145  22.909  0.00  0.00     0.013 C 
HETATM    9  C   UNK N   1      33.609   9.534  24.140  0.00  0.00    -0.087 C 
HETATM   10  O   UNK N   1      32.895   8.222  19.267  0.00  0.00    -0.340 OA
HETATM   11  C   UNK N   1      34.475   9.534  18.089  0.00  0.00     0.044 A 
HETATM   12  C   UNK N   1      36.145  10.809  19.281  0.00  0.00     0.044 A 
HETATM   13  C   UNK N   1      32.188   9.024  24.119  0.00  0.00     0.034 C 
HETATM   14  C   UNK N   1      34.109  10.201  25.374  0.00  0.00     0.043 C 
HETATM   15  C   UNK N   1      35.563  10.400  18.078  0.00  0.00    -0.053 A 
HETATM   16  C   UNK N   1      32.397   6.358  20.612  0.00  0.00     0.046 C 
HETATM   17  C   UNK N   1      30.674   8.017  20.048  0.00  0.00     0.046 C 
ENDROOT
BRANCH  15  18
HETATM   18  C   UNK N   1      36.116  10.865  16.779  0.00  0.00     0.039 C 
BRANCH  18  19
HETATM   19  C   UNK N   1      35.776  12.334  16.584  0.00  0.00     0.005 C 
BRANCH  19  20
HETATM   20  C   UNK N   1      34.450  12.473  15.868  0.00  0.00    -0.000 C 
BRANCH  20  21
HETATM   21  C   UNK N   1      34.549  11.825  14.500  0.00  0.00    -0.005 C 
HETATM   22  C   UNK N   1      33.526  10.718  14.393  0.00  0.00     0.005 C 
ENDBRANCH  20  21
ENDBRANCH  19  20
ENDBRANCH  18  19
ENDBRANCH  15  18
BRANCH   6  23
HETATM   23  O   UNK N   1      36.266  10.735  21.632  0.00  0.00    -0.360 OA
HETATM   24  H   UNK N   1      35.915  11.453  22.121  0.00  0.00     0.217 HD
ENDBRANCH   6  23
TORSDOF 5
ENDMDL
MODEL 6
REMARK VINA RESULT:      -6.2     13.250     16.393
REMARK  5 active torsions:
REMARK  status: ('A' for Active; 'I' for Inactive)
REMARK    1  A    between atoms: C_6  and  O_13 
REMARK    2  A    between atoms: C_16  and  C_17 
REMARK    3  A    between atoms: C_17  and  C_18 
REMARK    4  A    between atoms: C_18  and  C_19 
REMARK    5  A    between atoms: C_19  and  C_20 
ROOT
HETATM    1  C   UNK N   1      29.684  17.611   5.831  0.00  0.00     0.054 C 
HETATM    2  C   UNK N   1      28.677  17.021   4.848  0.00  0.00     0.017 A 
HETATM    3  C   UNK N   1      30.847  16.615   5.950  0.00  0.00     0.032 C 
HETATM    4  C   UNK N   1      29.133  18.007   7.182  0.00  0.00    -0.014 C 
HETATM    5  C   UNK N   1      29.207  16.362   3.713  0.00  0.00     0.080 A 
HETATM    6  C   UNK N   1      27.270  17.112   4.995  0.00  0.00     0.075 A 
HETATM    7  C   UNK N   1      31.498  16.421   4.547  0.00  0.00     0.065 C 
HETATM    8  C   UNK N   1      31.855  17.099   6.995  0.00  0.00     0.013 C 
HETATM    9  C   UNK N   1      29.808  17.832   8.329  0.00  0.00    -0.087 C 
HETATM   10  O   UNK N   1      30.543  16.191   3.560  0.00  0.00    -0.340 OA
HETATM   11  C   UNK N   1      28.351  15.860   2.730  0.00  0.00     0.044 A 
HETATM   12  C   UNK N   1      26.433  16.600   3.998  0.00  0.00     0.044 A 
HETATM   13  C   UNK N   1      31.199  17.246   8.370  0.00  0.00     0.034 C 
HETATM   14  C   UNK N   1      29.166  18.235   9.610  0.00  0.00     0.043 C 
HETATM   15  C   UNK N   1      26.973  15.991   2.863  0.00  0.00    -0.053 A 
HETATM   16  C   UNK N   1      32.310  17.639   4.121  0.00  0.00     0.046 C 
HETATM   17  C   UNK N   1      32.440  15.230   4.592  0.00  0.00     0.046 C 
ENDROOT
BRANCH  15  18
HETATM   18  C   UNK N   1      26.083  15.501   1.777  0.00  0.00     0.039 C 
BRANCH  18  19
HETATM   19  C   UNK N   1      24.991  14.628   2.376  0.00  0.00     0.005 C 
BRANCH  19  20
HETATM   20  C   UNK N   1      24.775  13.399   1.519  0.00  0.00    -0.000 C 
BRANCH  20  21
HETATM   21  C   UNK N   1      23.833  13.741   0.381  0.00  0.00    -0.005 C 
HETATM   22  C   UNK N   1      23.467  12.478  -0.365  0.00  0.00     0.005 C 
ENDBRANCH  20  21
ENDBRANCH  19  20
ENDBRANCH  18  19
ENDBRANCH  15  18
BRANCH   6  23
HETATM   23  O   UNK N   1      26.706  17.706   6.060  0.00  0.00    -0.360 OA
HETATM   24  H   UNK N   1      26.264  18.525   5.962  0.00  0.00     0.217 HD
ENDBRANCH   6  23
TORSDOF 5
ENDMDL
MODEL 7
REMARK VINA RESULT:      -6.0      5.251      9.346
REMARK  5 active torsions:
REMARK  status: ('A' for Active; 'I' for Inactive)
REMARK    1  A    between atoms: C_6  and  O_13 
REMARK    2  A    between atoms: C_16  and  C_17 
REMARK    3  A    between atoms: C_17  and  C_18 
REMARK    4  A    between atoms: C_18  and  C_19 
REMARK    5  A    between atoms: C_19  and  C_20 
ROOT
HETATM    1  C   UNK N   1      36.071  13.210  12.490  0.00  0.00     0.054 C 
HETATM    2  C   UNK N   1      35.187  13.749  11.368  0.00  0.00     0.017 A 
HETATM    3  C   UNK N   1      35.319  12.044  13.147  0.00  0.00     0.032 C 
HETATM    4  C   UNK N   1      36.542  14.228  13.504  0.00  0.00    -0.014 C 
HETATM    5  C   UNK N   1      34.484  12.793  10.597  0.00  0.00     0.080 A 
HETATM    6  C   UNK N   1      35.049  15.123  11.049  0.00  0.00     0.075 A 
HETATM    7  C   UNK N   1      35.054  10.940  12.078  0.00  0.00     0.065 C 
HETATM    8  C   UNK N   1      36.107  11.513  14.346  0.00  0.00     0.013 C 
HETATM    9  C   UNK N   1      36.643  13.961  14.816  0.00  0.00    -0.087 C 
HETATM   10  O   UNK N   1      34.530  11.472  10.903  0.00  0.00    -0.340 OA
HETATM   11  C   UNK N   1      33.713  13.200   9.506  0.00  0.00     0.044 A 
HETATM   12  C   UNK N   1      34.269  15.507   9.953  0.00  0.00     0.044 A 
HETATM   13  C   UNK N   1      36.321  12.606  15.396  0.00  0.00     0.034 C 
HETATM   14  C   UNK N   1      37.097  15.042  15.735  0.00  0.00     0.043 C 
HETATM   15  C   UNK N   1      33.617  14.548   9.176  0.00  0.00    -0.053 A 
HETATM   16  C   UNK N   1      36.327  10.186  11.710  0.00  0.00     0.046 C 
HETATM   17  C   UNK N   1      34.063   9.931  12.633  0.00  0.00     0.046 C 
ENDROOT
BRANCH  15  18
HETATM   18  C   UNK N   1      32.837  14.954   7.977  0.00  0.00     0.039 C 
BRANCH  18  19
HETATM   19  C   UNK N   1      32.234  16.330   8.212  0.00  0.00     0.005 C 
BRANCH  19  20
HETATM   20  C   UNK N   1      32.361  17.176   6.963  0.00  0.00    -0.000 C 
BRANCH  20  21
HETATM   21  C   UNK N   1      33.811  17.581   6.778  0.00  0.00    -0.005 C 
HETATM   22  C   UNK N   1      34.250  18.429   7.950  0.00  0.00     0.005 C 
ENDBRANCH  20  21
ENDBRANCH  19  20
ENDBRANCH  18  19
ENDBRANCH  15  18
BRANCH   6  23
HETATM   23  O   UNK N   1      35.673  16.080  11.757  0.00  0.00    -0.360 OA
HETATM   24  H   UNK N   1      36.486  16.434  11.454  0.00  0.00     0.217 HD
ENDBRANCH   6  23
TORSDOF 5
ENDMDL
MODEL 8
REMARK VINA RESULT:      -5.8      3.516      7.861
REMARK  5 active torsions:
REMARK  status: ('A' for Active; 'I' for Inactive)
REMARK    1  A    between atoms: C_6  and  O_13 
REMARK    2  A    between atoms: C_16  and  C_17 
REMARK    3  A    between atoms: C_17  and  C_18 
REMARK    4  A    between atoms: C_18  and  C_19 
REMARK    5  A    between atoms: C_19  and  C_20 
ROOT
HETATM    1  C   UNK N   1      36.762  12.366  15.049  0.00  0.00     0.054 C 
HETATM    2  C   UNK N   1      36.664  12.635  13.550  0.00  0.00     0.017 A 
HETATM    3  C   UNK N   1      35.958  11.091  15.340  0.00  0.00     0.032 C 
HETATM    4  C   UNK N   1      36.362  13.511  15.952  0.00  0.00    -0.014 C 
HETATM    5  C   UNK N   1      36.727  11.509  12.696  0.00  0.00     0.080 A 
HETATM    6  C   UNK N   1      36.536  13.925  12.977  0.00  0.00     0.075 A 
HETATM    7  C   UNK N   1      36.566   9.907  14.529  0.00  0.00     0.065 C 
HETATM    8  C   UNK N   1      35.933  10.811  16.845  0.00  0.00     0.013 C 
HETATM    9  C   UNK N   1      35.692  13.337  17.102  0.00  0.00    -0.087 C 
HETATM   10  O   UNK N   1      36.783  10.249  13.196  0.00  0.00    -0.340 OA
HETATM   11  C   UNK N   1      36.718  11.677  11.309  0.00  0.00     0.044 A 
HETATM   12  C   UNK N   1      36.528  14.069  11.585  0.00  0.00     0.044 A 
HETATM   13  C   UNK N   1      35.299  11.972  17.614  0.00  0.00     0.034 C 
HETATM   14  C   UNK N   1      35.325  14.534  17.908  0.00  0.00     0.043 C 
HETATM   15  C   UNK N   1      36.634  12.950  10.756  0.00  0.00    -0.053 A 
HETATM   16  C   UNK N   1      37.900   9.447  15.104  0.00  0.00     0.046 C 
HETATM   17  C   UNK N   1      35.611   8.726  14.573  0.00  0.00     0.046 C 
ENDROOT
BRANCH  15  18
HETATM   18  C   UNK N   1      36.685  13.111   9.278  0.00  0.00     0.039 C 
BRANCH  18  19
HETATM   19  C   UNK N   1      35.283  13.385   8.754  0.00  0.00     0.005 C 
BRANCH  19  20
HETATM   20  C   UNK N   1      35.221  14.760   8.123  0.00  0.00    -0.000 C 
BRANCH  20  21
HETATM   21  C   UNK N   1      33.879  15.393   8.434  0.00  0.00    -0.005 C 
HETATM   22  C   UNK N   1      33.405  14.927   9.792  0.00  0.00     0.005 C 
ENDBRANCH  20  21
ENDBRANCH  19  20
ENDBRANCH  18  19
ENDBRANCH  15  18
BRANCH   6  23
HETATM   23  O   UNK N   1      36.450  15.031  13.734  0.00  0.00    -0.360 OA
HETATM   24  H   UNK N   1      35.775  15.108  14.379  0.00  0.00     0.217 HD
ENDBRANCH   6  23
TORSDOF 5
ENDMDL
MODEL 9
REMARK VINA RESULT:      -5.8     14.593     17.572
REMARK  5 active torsions:
REMARK  status: ('A' for Active; 'I' for Inactive)
REMARK    1  A    between atoms: C_6  and  O_13 
REMARK    2  A    between atoms: C_16  and  C_17 
REMARK    3  A    between atoms: C_17  and  C_18 
REMARK    4  A    between atoms: C_18  and  C_19 
REMARK    5  A    between atoms: C_19  and  C_20 
ROOT
HETATM    1  C   UNK N   1      22.551  14.469   7.229  0.00  0.00     0.054 C 
HETATM    2  C   UNK N   1      23.909  14.930   6.707  0.00  0.00     0.017 A 
HETATM    3  C   UNK N   1      21.726  15.727   7.535  0.00  0.00     0.032 C 
HETATM    4  C   UNK N   1      22.584  13.511   8.398  0.00  0.00    -0.014 C 
HETATM    5  C   UNK N   1      23.912  16.046   5.837  0.00  0.00     0.080 A 
HETATM    6  C   UNK N   1      25.141  14.302   7.022  0.00  0.00     0.075 A 
HETATM    7  C   UNK N   1      21.559  16.559   6.227  0.00  0.00     0.065 C 
HETATM    8  C   UNK N   1      20.380  15.343   8.153  0.00  0.00     0.013 C 
HETATM    9  C   UNK N   1      21.701  13.558   9.409  0.00  0.00    -0.087 C 
HETATM   10  O   UNK N   1      22.769  16.721   5.558  0.00  0.00    -0.340 OA
HETATM   11  C   UNK N   1      25.106  16.483   5.259  0.00  0.00     0.044 A 
HETATM   12  C   UNK N   1      26.324  14.759   6.432  0.00  0.00     0.044 A 
HETATM   13  C   UNK N   1      20.573  14.560   9.454  0.00  0.00     0.034 C 
HETATM   14  C   UNK N   1      21.835  12.582  10.525  0.00  0.00     0.043 C 
HETATM   15  C   UNK N   1      26.303  15.836   5.542  0.00  0.00    -0.053 A 
HETATM   16  C   UNK N   1      20.585  15.903   5.254  0.00  0.00     0.046 C 
HETATM   17  C   UNK N   1      21.012  17.933   6.572  0.00  0.00     0.046 C 
ENDROOT
BRANCH  15  18
HETATM   18  C   UNK N   1      27.553  16.281   4.871  0.00  0.00     0.039 C 
BRANCH  18  19
HETATM   19  C   UNK N   1      27.302  17.607   4.168  0.00  0.00     0.005 C 
BRANCH  19  20
HETATM   20  C   UNK N   1      28.237  18.668   4.707  0.00  0.00    -0.000 C 
BRANCH  20  21
HETATM   21  C   UNK N   1      27.655  20.039   4.421  0.00  0.00    -0.005 C 
HETATM   22  C   UNK N   1      27.240  20.691   5.720  0.00  0.00     0.005 C 
ENDBRANCH  20  21
ENDBRANCH  19  20
ENDBRANCH  18  19
ENDBRANCH  15  18
BRANCH   6  23
HETATM   23  O   UNK N   1      25.207  13.253   7.857  0.00  0.00    -0.360 OA
HETATM   24  H   UNK N   1      25.243  13.390   8.783  0.00  0.00     0.217 HD
ENDBRANCH   6  23
TORSDOF 5
ENDMDL
