MODEL 1
REMARK VINA RESULT:      -6.7      0.000      0.000
REMARK WARNING: 32 MAX_TORS EXCEEDED!!!
REMARK  74 active torsions:
REMARK  status: ('A' for Active; 'I' for Inactive)
REMARK       I    between atoms: C_3  and  N_4 
REMARK       I    between atoms: C_3  and  N_5 
REMARK    1  A    between atoms: N_5  and  C_6 
REMARK    2  A    between atoms: C_6  and  C_7 
REMARK    3  A    between atoms: C_7  and  C_8 
REMARK    4  A    between atoms: C_8  and  C_9 
REMARK    5  A    between atoms: C_9  and  N_10 
REMARK    6  A    between atoms: C_9  and  C_29 
REMARK       I    between atoms: N_10  and  C_11 
REMARK    7  A    between atoms: C_13  and  C_11 
REMARK       I    between atoms: N_17  and  C_18 
REMARK    8  A    between atoms: C_18  and  C_20 
REMARK    9  A    between atoms: C_20  and  N_21 
REMARK   10  A    between atoms: C_20  and  C_22 
REMARK   11  A    between atoms: C_22  and  C_23 
REMARK       I    between atoms: C_29  and  N_31 
REMARK   12  A    between atoms: C_35  and  C_36 
REMARK       I    between atoms: C_36  and  N_38 
REMARK   13  A    between atoms: N_38  and  C_39 
REMARK   14  A    between atoms: C_39  and  C_40 
REMARK       I    between atoms: C_40  and  N_42 
REMARK   15  A    between atoms: N_42  and  C_43 
REMARK   16  A    between atoms: C_43  and  C_44 
REMARK       I    between atoms: C_44  and  N_46 
REMARK   17  A    between atoms: N_46  and  C_47 
REMARK   18  A    between atoms: C_47  and  C_48 
REMARK       I    between atoms: C_48  and  N_50 
REMARK   19  A    between atoms: N_50  and  C_51 
REMARK   20  A    between atoms: C_51  and  C_52 
REMARK       I    between atoms: C_52  and  N_54 
REMARK   21  A    between atoms: C_55  and  N_54 
REMARK   22  A    between atoms: C_55  and  C_56 
REMARK   23  A    between atoms: C_55  and  C_60 
REMARK   24  A    between atoms: C_56  and  C_57 
REMARK       I    between atoms: C_57  and  N_58 
REMARK       I    between atoms: C_60  and  N_62 
REMARK   25  A    between atoms: N_62  and  C_63 
REMARK   26  A    between atoms: C_63  and  C_64 
REMARK       I    between atoms: C_64  and  N_66 
REMARK   27  A    between atoms: C_67  and  N_66 
REMARK   28  A    between atoms: C_67  and  C_68 
REMARK   29  A    between atoms: C_67  and  C_72 
REMARK   30  A    between atoms: C_68  and  C_69 
REMARK   31  A    between atoms: C_69  and  O_70 
REMARK       I    between atoms: C_72  and  N_74 
REMARK   32  A    between atoms: C_75  and  N_74 
REMARK   33  A    between atoms: C_75  and  C_76 
REMARK   34  A    between atoms: C_75  and  C_83 
REMARK   35  A    between atoms: C_76  and  C_77 
REMARK       I    between atoms: C_83  and  N_85 
REMARK   36  A    between atoms: C_86  and  N_85 
REMARK   37  A    between atoms: C_86  and  C_87 
REMARK   38  A    between atoms: C_86  and  C_92 
REMARK   39  A    between atoms: C_87  and  C_88 
REMARK   40  A    between atoms: C_88  and  C_89 
REMARK   41  A    between atoms: C_89  and  O_90 
REMARK       I    between atoms: C_92  and  N_94 
REMARK   42  A    between atoms: C_95  and  N_94 
REMARK   43  A    between atoms: C_95  and  C_96 
REMARK   44  A    between atoms: C_95  and  C_101 
REMARK   45  A    between atoms: C_96  and  C_97 
REMARK   46  A    between atoms: C_97  and  C_98 
REMARK   47  A    between atoms: C_98  and  O_99 
REMARK       I    between atoms: C_101  and  N_103 
REMARK   48  A    between atoms: C_104  and  N_103 
REMARK   49  A    between atoms: C_104  and  C_105 
REMARK   50  A    between atoms: C_104  and  C_109 
REMARK   51  A    between atoms: C_105  and  C_107 
REMARK       I    between atoms: C_109  and  N_111 
REMARK   52  A    between atoms: C_115  and  C_116 
REMARK       I    between atoms: C_116  and  N_118 
REMARK   53  A    between atoms: C_119  and  N_118 
REMARK   54  A    between atoms: C_119  and  C_120 
REMARK   55  A    between atoms: C_119  and  C_125 
REMARK   56  A    between atoms: C_120  and  C_121 
REMARK   57  A    between atoms: C_121  and  C_122 
REMARK   58  A    between atoms: C_122  and  O_123 
REMARK       I    between atoms: C_125  and  N_127 
REMARK   59  A    between atoms: C_128  and  N_127 
REMARK   60  A    between atoms: C_128  and  C_129 
REMARK   61  A    between atoms: C_128  and  C_134 
REMARK   62  A    between atoms: C_129  and  C_130 
REMARK   63  A    between atoms: C_130  and  C_131 
REMARK   64  A    between atoms: C_131  and  O_132 
REMARK       I    between atoms: C_134  and  N_136 
REMARK   65  A    between atoms: C_137  and  N_136 
REMARK   66  A    between atoms: C_137  and  C_138 
REMARK   67  A    between atoms: C_137  and  C_146 
REMARK   68  A    between atoms: C_138  and  C_139 
REMARK   69  A    between atoms: C_142  and  O_143 
REMARK       I    between atoms: C_146  and  N_148 
REMARK   70  A    between atoms: C_149  and  N_148 
REMARK   71  A    between atoms: C_149  and  C_150 
REMARK   72  A    between atoms: C_149  and  C_154 
REMARK   73  A    between atoms: C_150  and  C_151 
REMARK   74  A    between atoms: C_154  and  O_155 
ROOT
HETATM    1  C   UNK N   1      29.678  16.570   5.406  0.00  0.00     0.180 C 
ENDROOT
BRANCH   1   2
HETATM    2  N   UNK N   1      28.609  17.467   5.627  0.00  0.00    -0.346 N 
HETATM    3  C   UNK N   1      27.908  18.093   4.665  0.00  0.00     0.241 C 
HETATM    4  O   UNK N   1      28.171  17.963   3.475  0.00  0.00    -0.271 OA
HETATM    5  H   UNK N   1      28.357  17.650   6.561  0.00  0.00     0.163 HD
BRANCH   3   6
HETATM    6  C   UNK N   1      26.937  19.089   5.127  0.00  0.00     0.186 C 
BRANCH   6   7
HETATM    7  N   UNK N   1      26.723  19.990   4.004  0.00  0.00    -0.346 N 
HETATM    8  C   UNK N   1      25.527  20.221   3.393  0.00  0.00     0.236 C 
HETATM    9  O   UNK N   1      25.512  20.890   2.374  0.00  0.00    -0.272 OA
HETATM   10  H   UNK N   1      27.507  20.472   3.657  0.00  0.00     0.163 HD
BRANCH   8  11
HETATM   11  C   UNK N   1      24.211  19.684   3.910  0.00  0.00     0.225 C 
BRANCH  11  12
HETATM   12  N   UNK N   1      24.015  18.261   3.696  0.00  0.00    -0.351 N 
HETATM   13  C   UNK N   1      22.809  17.628   3.625  0.00  0.00     0.241 C 
HETATM   14  O   UNK N   1      22.782  16.441   3.352  0.00  0.00    -0.271 OA
HETATM   15  H   UNK N   1      24.822  17.705   3.593  0.00  0.00     0.163 HD
BRANCH  13  16
HETATM   16  C   UNK N   1      21.506  18.362   3.751  0.00  0.00     0.185 C 
BRANCH  16  17
HETATM   17  N   UNK N   1      20.762  17.655   4.741  0.00  0.00    -0.346 N 
HETATM   18  C   UNK N   1      20.785  17.954   6.040  0.00  0.00     0.236 C 
HETATM   19  O   UNK N   1      21.123  19.064   6.423  0.00  0.00    -0.272 OA
HETATM   20  H   UNK N   1      20.197  16.902   4.447  0.00  0.00     0.163 HD
BRANCH  18  21
HETATM   21  C   UNK N   1      20.765  16.797   6.979  0.00  0.00     0.225 C 
BRANCH  21  22
HETATM   22  N   UNK N   1      19.540  16.818   7.789  0.00  0.00    -0.351 N 
HETATM   23  C   UNK N   1      19.161  16.046   8.869  0.00  0.00     0.235 C 
HETATM   24  O   UNK N   1      18.053  16.233   9.340  0.00  0.00    -0.272 OA
HETATM   25  H   UNK N   1      18.879  17.494   7.515  0.00  0.00     0.163 HD
BRANCH  23  26
HETATM   26  C   UNK N   1      19.993  14.969   9.546  0.00  0.00     0.225 C 
BRANCH  26  27
HETATM   27  N   UNK N   1      20.369  13.875   8.705  0.00  0.00    -0.351 N 
HETATM   28  C   UNK N   1      21.074  12.820   9.158  0.00  0.00     0.235 C 
HETATM   29  O   UNK N   1      21.469  11.995   8.353  0.00  0.00    -0.272 OA
HETATM   30  H   UNK N   1      20.102  13.894   7.758  0.00  0.00     0.163 HD
BRANCH  28  31
HETATM   31  C   UNK N   1      21.489  12.703  10.609  0.00  0.00     0.225 C 
BRANCH  31  32
HETATM   32  N   UNK N   1      22.848  13.140  10.665  0.00  0.00    -0.351 N 
HETATM   33  C   UNK N   1      23.838  12.273  10.926  0.00  0.00     0.235 C 
HETATM   34  O   UNK N   1      23.612  11.224  11.512  0.00  0.00    -0.272 OA
HETATM   35  H   UNK N   1      23.061  14.089  10.511  0.00  0.00     0.163 HD
BRANCH  33  36
HETATM   36  C   UNK N   1      25.001  12.356  10.029  0.00  0.00     0.225 C 
BRANCH  36  37
HETATM   37  N   UNK N   1      24.427  12.738   8.756  0.00  0.00    -0.351 N 
HETATM   38  C   UNK N   1      24.891  13.764   8.006  0.00  0.00     0.241 C 
HETATM   39  O   UNK N   1      25.918  14.352   8.321  0.00  0.00    -0.271 OA
HETATM   40  H   UNK N   1      23.658  12.225   8.419  0.00  0.00     0.163 HD
BRANCH  38  41
HETATM   41  C   UNK N   1      24.110  14.191   6.784  0.00  0.00     0.179 C 
HETATM   42  C   UNK N   1      24.367  15.645   6.415  0.00  0.00     0.037 C 
HETATM   43  C   UNK N   1      25.495  15.611   5.391  0.00  0.00     0.022 C 
HETATM   44  C   UNK N   1      25.448  14.216   4.786  0.00  0.00     0.127 C 
HETATM   45  N   UNK N   1      24.590  13.463   5.656  0.00  0.00    -0.337 N 
HETATM   46  C   UNK N   1      24.220  12.166   5.442  0.00  0.00     0.243 C 
HETATM   47  O   UNK N   1      23.421  11.627   6.191  0.00  0.00    -0.271 OA
BRANCH  46  48
HETATM   48  C   UNK N   1      24.788  11.364   4.314  0.00  0.00     0.176 C 
BRANCH  48  49
HETATM   49  C   UNK N   1      25.928  10.458   4.795  0.00  0.00     0.036 C 
BRANCH  49  50
HETATM   50  C   UNK N   1      25.812   9.036   4.250  0.00  0.00     0.023 C 
BRANCH  50  51
HETATM   51  C   UNK N   1      25.814   8.003   5.368  0.00  0.00     0.138 C 
BRANCH  51  52
HETATM   52  N   UNK N   1      24.534   7.336   5.470  0.00  0.00    -0.227 N 
HETATM   53  C   UNK N   1      23.542   7.783   6.383  0.00  0.00     0.665 C 
HETATM   54  N   UNK N   1      23.783   8.754   7.184  0.00  0.00    -0.235 N 
HETATM   55  N   UNK N   1      22.286   7.139   6.425  0.00  0.00    -0.235 N 
HETATM   56  H   UNK N   1      24.312   9.558   7.388  0.00  0.00     0.174 HD
ATOM     57  HN  UNK N   1      23.132   8.643   7.962  1.00  0.00     0.174 HD
HETATM   58  H   UNK N   1      21.929   6.593   7.161  0.00  0.00     0.174 HD
HETATM   59  H   UNK N   1      21.708   7.248   5.635  0.00  0.00     0.174 HD
HETATM   60  H   UNK N   1      24.349   6.558   4.896  0.00  0.00     0.177 HD
ENDBRANCH  51  52
ENDBRANCH  50  51
ENDBRANCH  49  50
ENDBRANCH  48  49
BRANCH  48  61
HETATM   61  N   UNK N   1      23.731  10.603   3.699  0.00  0.00    -0.346 N 
HETATM   62  C   UNK N   1      22.931  11.124   2.740  0.00  0.00     0.241 C 
HETATM   63  O   UNK N   1      22.148  10.387   2.164  0.00  0.00    -0.271 OA
HETATM   64  H   UNK N   1      23.586   9.673   3.986  0.00  0.00     0.163 HD
BRANCH  62  65
HETATM   65  C   UNK N   1      22.975  12.602   2.385  0.00  0.00     0.179 C 
HETATM   66  C   UNK N   1      24.191  12.876   1.512  0.00  0.00     0.037 C 
HETATM   67  C   UNK N   1      23.688  12.983   0.066  0.00  0.00     0.022 C 
HETATM   68  C   UNK N   1      22.193  12.733   0.115  0.00  0.00     0.127 C 
HETATM   69  N   UNK N   1      21.871  12.872   1.498  0.00  0.00    -0.337 N 
HETATM   70  C   UNK N   1      20.687  13.395   1.901  0.00  0.00     0.243 C 
HETATM   71  O   UNK N   1      19.788  13.537   1.071  0.00  0.00    -0.271 OA
BRANCH  70  72
HETATM   72  C   UNK N   1      20.451  13.832   3.319  0.00  0.00     0.171 C 
BRANCH  72  73
HETATM   73  N   UNK N   1      21.597  13.492   4.132  0.00  0.00    -0.418 N 
HETATM   74  H   UNK N   1      22.587  13.590   3.906  0.00  0.00     0.150 HD
HETATM   75  H   UNK N   1      21.389  13.105   5.052  0.00  0.00     0.150 HD
ENDBRANCH  72  73
BRANCH  72  76
HETATM   76  C   UNK N   1      19.168  13.203   3.901  0.00  0.00     0.072 C 
BRANCH  76  77
HETATM   77  C   UNK N   1      19.316  11.730   4.150  0.00  0.00    -0.056 A 
HETATM   78  C   UNK N   1      18.806  10.823   3.213  0.00  0.00     0.007 A 
HETATM   79  C   UNK N   1      19.054   9.455   3.352  0.00  0.00     0.001 A 
HETATM   80  C   UNK N   1      19.810   8.990   4.432  0.00  0.00     0.000 A 
HETATM   81  C   UNK N   1      20.308   9.891   5.379  0.00  0.00     0.001 A 
HETATM   82  C   UNK N   1      20.071  11.261   5.233  0.00  0.00     0.007 A 
ENDBRANCH  76  77
ENDBRANCH  72  76
ENDBRANCH  70  72
ENDBRANCH  62  65
ENDBRANCH  48  61
ENDBRANCH  46  48
ENDBRANCH  38  41
ENDBRANCH  36  37
ENDBRANCH  33  36
ENDBRANCH  31  32
ENDBRANCH  28  31
ENDBRANCH  26  27
ENDBRANCH  23  26
ENDBRANCH  21  22
ENDBRANCH  18  21
ENDBRANCH  16  17
BRANCH  16  83
HETATM   83  C   UNK N   1      20.741  18.667   2.467  0.00  0.00     0.137 C 
BRANCH  83  84
HETATM   84  C   UNK N   1      20.586  20.147   2.266  0.00  0.00     0.217 C 
HETATM   85  N   UNK N   1      20.420  20.636   1.024  0.00  0.00    -0.370 N 
HETATM   86  H   UNK N   1      19.623  20.398   0.497  0.00  0.00     0.159 HD
HETATM   87  H   UNK N   1      21.099  21.237   0.641  0.00  0.00     0.159 HD
HETATM   88  O   UNK N   1      20.619  20.913   3.216  0.00  0.00    -0.274 OA
ENDBRANCH  83  84
ENDBRANCH  16  83
ENDBRANCH  13  16
ENDBRANCH  11  12
ENDBRANCH   8  11
ENDBRANCH   6   7
BRANCH   6  89
HETATM   89  C   UNK N   1      27.551  19.837   6.321  0.00  0.00     0.144 C 
BRANCH  89  90
HETATM   90  C   UNK N   1      26.754  21.010   6.824  0.00  0.00     0.141 C 
HETATM   91  O   UNK N   1      26.742  22.067   6.216  0.00  0.00    -0.650 OA
BRANCH  90  92
HETATM   92  O   UNK N   1      26.035  20.887   7.950  0.00  0.00    -0.776 OA
HETATM   93  H   UNK N   1      25.314  21.462   8.115  0.00  0.00     0.167 HD
ENDBRANCH  90  92
ENDBRANCH  89  90
ENDBRANCH   6  89
ENDBRANCH   3   6
ENDBRANCH   1   2
BRANCH   1  94
HETATM   94  C   UNK N   1      29.336  15.095   5.633  0.00  0.00     0.073 C 
BRANCH  94  95
HETATM   95  C   UNK N   1      29.110  14.367   4.324  0.00  0.00    -0.056 A 
HETATM   96  C   UNK N   1      29.145  15.078   3.121  0.00  0.00     0.007 A 
HETATM   97  C   UNK N   1      28.946  14.413   1.904  0.00  0.00     0.001 A 
HETATM   98  C   UNK N   1      28.715  13.033   1.884  0.00  0.00     0.000 A 
HETATM   99  C   UNK N   1      28.686  12.314   3.081  0.00  0.00     0.001 A 
HETATM  100  C   UNK N   1      28.885  12.978   4.294  0.00  0.00     0.007 A 
ENDBRANCH  94  95
ENDBRANCH   1  94
BRANCH   1 101
HETATM  101  C   UNK N   1      31.036  17.209   5.322  0.00  0.00     0.241 C 
HETATM  102  O   UNK N   1      31.387  17.762   4.292  0.00  0.00    -0.271 OA
HETATM  103  N   UNK N   1      31.924  17.046   6.326  0.00  0.00    -0.346 N 
HETATM  104  H   UNK N   1      32.875  17.232   6.151  0.00  0.00     0.163 HD
BRANCH 103 105
HETATM  105  C   UNK N   1      31.533  16.609   7.648  0.00  0.00     0.177 C 
BRANCH 105 106
HETATM  106  C   UNK N   1      31.402  17.759   8.680  0.00  0.00     0.045 C 
BRANCH 106 107
HETATM  107  C   UNK N   1      30.003  18.382   8.741  0.00  0.00     0.112 C 
BRANCH 107 108
HETATM  108  C   UNK N   1      29.059  17.611   9.628  0.00  0.00     0.139 C 
HETATM  109  O   UNK N   1      27.852  17.717   9.492  0.00  0.00    -0.650 OA
BRANCH 108 110
HETATM  110  O   UNK N   1      29.544  16.821  10.601  0.00  0.00    -0.776 OA
HETATM  111  H   UNK N   1      30.390  16.509  10.856  0.00  0.00     0.167 HD
ENDBRANCH 108 110
ENDBRANCH 107 108
ENDBRANCH 106 107
ENDBRANCH 105 106
BRANCH 105 112
HETATM  112  C   UNK N   1      32.476  15.508   8.039  0.00  0.00     0.241 C 
HETATM  113  O   UNK N   1      32.091  14.634   8.806  0.00  0.00    -0.271 OA
HETATM  114  N   UNK N   1      33.760  15.532   7.623  0.00  0.00    -0.346 N 
HETATM  115  H   UNK N   1      34.021  16.197   6.947  0.00  0.00     0.163 HD
BRANCH 114 116
HETATM  116  C   UNK N   1      34.763  14.631   8.122  0.00  0.00     0.177 C 
BRANCH 116 117
HETATM  117  C   UNK N   1      35.466  15.310   9.307  0.00  0.00     0.045 C 
BRANCH 117 118
HETATM  118  C   UNK N   1      35.653  14.315  10.467  0.00  0.00     0.112 C 
BRANCH 118 119
HETATM  119  C   UNK N   1      34.594  14.330  11.519  0.00  0.00     0.139 C 
HETATM  120  O   UNK N   1      34.836  13.845  12.607  0.00  0.00    -0.650 OA
BRANCH 119 121
HETATM  121  O   UNK N   1      33.423  14.965  11.325  0.00  0.00    -0.776 OA
HETATM  122  H   UNK N   1      32.936  15.284  12.058  0.00  0.00     0.167 HD
ENDBRANCH 119 121
ENDBRANCH 118 119
ENDBRANCH 117 118
ENDBRANCH 116 117
BRANCH 116 123
HETATM  123  C   UNK N   1      35.769  14.384   7.032  0.00  0.00     0.241 C 
HETATM  124  O   UNK N   1      36.044  15.288   6.257  0.00  0.00    -0.271 OA
HETATM  125  N   UNK N   1      36.383  13.182   6.915  0.00  0.00    -0.346 N 
HETATM  126  H   UNK N   1      36.095  12.446   7.501  0.00  0.00     0.163 HD
BRANCH 125 127
HETATM  127  C   UNK N   1      37.455  12.938   5.957  0.00  0.00     0.180 C 
BRANCH 127 128
HETATM  128  C   UNK N   1      38.770  12.409   6.594  0.00  0.00     0.013 C 
HETATM  129  C   UNK N   1      39.626  11.521   5.705  0.00  0.00     0.012 C 
BRANCH 128 130
HETATM  130  C   UNK N   1      38.509  11.667   7.892  0.00  0.00     0.002 C 
HETATM  131  C   UNK N   1      39.183  12.375   9.050  0.00  0.00     0.005 C 
ENDBRANCH 128 130
ENDBRANCH 127 128
BRANCH 127 132
HETATM  132  C   UNK N   1      36.878  12.330   4.673  0.00  0.00     0.243 C 
HETATM  133  O   UNK N   1      36.826  13.066   3.702  0.00  0.00    -0.271 OA
HETATM  134  N   UNK N   1      36.440  11.032   4.546  0.00  0.00    -0.337 N 
HETATM  135  C   UNK N   1      36.489  10.046   5.580  0.00  0.00     0.127 C 
HETATM  136  C   UNK N   1      35.948  10.529   3.281  0.00  0.00     0.179 C 
HETATM  137  C   UNK N   1      35.855   8.800   4.987  0.00  0.00     0.022 C 
HETATM  138  C   UNK N   1      35.758   9.038   3.485  0.00  0.00     0.037 C 
BRANCH 136 139
HETATM  139  C   UNK N   1      34.654  11.164   2.856  0.00  0.00     0.241 C 
HETATM  140  O   UNK N   1      33.618  10.822   3.406  0.00  0.00    -0.271 OA
HETATM  141  N   UNK N   1      34.641  12.095   1.870  0.00  0.00    -0.346 N 
HETATM  142  H   UNK N   1      35.509  12.390   1.511  0.00  0.00     0.163 HD
BRANCH 141 143
HETATM  143  C   UNK N   1      33.448  12.683   1.310  0.00  0.00     0.177 C 
BRANCH 143 144
HETATM  144  C   UNK N   1      32.479  13.318   2.342  0.00  0.00     0.045 C 
BRANCH 144 145
HETATM  145  C   UNK N   1      32.889  14.746   2.721  0.00  0.00     0.112 C 
BRANCH 145 146
HETATM  146  C   UNK N   1      33.246  14.914   4.152  0.00  0.00     0.139 C 
HETATM  147  O   UNK N   1      32.765  14.161   4.981  0.00  0.00    -0.650 OA
BRANCH 146 148
HETATM  148  O   UNK N   1      34.018  15.943   4.545  0.00  0.00    -0.776 OA
HETATM  149  H   UNK N   1      33.944  16.554   5.252  0.00  0.00     0.167 HD
ENDBRANCH 146 148
ENDBRANCH 145 146
ENDBRANCH 144 145
ENDBRANCH 143 144
BRANCH 143 150
HETATM  150  C   UNK N   1      32.766  11.781   0.325  0.00  0.00     0.241 C 
HETATM  151  O   UNK N   1      33.318  11.454  -0.717  0.00  0.00    -0.271 OA
HETATM  152  N   UNK N   1      31.661  11.151   0.742  0.00  0.00    -0.346 N 
HETATM  153  H   UNK N   1      31.029  11.627   1.330  0.00  0.00     0.163 HD
BRANCH 152 154
HETATM  154  C   UNK N   1      31.372   9.800   0.355  0.00  0.00     0.177 C 
BRANCH 154 155
HETATM  155  C   UNK N   1      29.913   9.667  -0.123  0.00  0.00     0.045 C 
BRANCH 155 156
HETATM  156  C   UNK N   1      29.812   9.551  -1.649  0.00  0.00     0.112 C 
BRANCH 156 157
HETATM  157  C   UNK N   1      30.209  10.795  -2.365  0.00  0.00     0.139 C 
HETATM  158  O   UNK N   1      30.693  10.723  -3.482  0.00  0.00    -0.650 OA
BRANCH 157 159
HETATM  159  O   UNK N   1      29.978  11.999  -1.811  0.00  0.00    -0.776 OA
HETATM  160  H   UNK N   1      30.452  12.614  -1.287  0.00  0.00     0.167 HD
ENDBRANCH 157 159
ENDBRANCH 156 157
ENDBRANCH 155 156
ENDBRANCH 154 155
BRANCH 154 161
HETATM  161  C   UNK N   1      31.542   9.010   1.623  0.00  0.00     0.241 C 
HETATM  162  O   UNK N   1      32.068   7.912   1.602  0.00  0.00    -0.271 OA
HETATM  163  N   UNK N   1      30.953   9.498   2.750  0.00  0.00    -0.346 N 
HETATM  164  H   UNK N   1      30.732  10.457   2.752  0.00  0.00     0.163 HD
BRANCH 163 165
HETATM  165  C   UNK N   1      30.621   8.760   3.938  0.00  0.00     0.180 C 
BRANCH 165 166
HETATM  166  C   UNK N   1      29.337   7.929   3.880  0.00  0.00     0.073 C 
BRANCH 166 167
HETATM  167  C   UNK N   1      29.379   6.670   4.667  0.00  0.00    -0.056 A 
HETATM  168  C   UNK N   1      29.301   6.718   6.061  0.00  0.00     0.010 A 
HETATM  169  C   UNK N   1      29.338   5.541   6.805  0.00  0.00     0.037 A 
HETATM  170  C   UNK N   1      29.460   4.310   6.157  0.00  0.00     0.065 A 
HETATM  171  C   UNK N   1      29.565   4.259   4.763  0.00  0.00     0.037 A 
HETATM  172  C   UNK N   1      29.533   5.440   4.017  0.00  0.00     0.010 A 
BRANCH 170 173
HETATM  173  O   UNK N   1      29.478   3.177   6.876  0.00  0.00    -0.361 OA
HETATM  174  H   UNK N   1      30.153   2.846   7.436  0.00  0.00     0.217 HD
ENDBRANCH 170 173
ENDBRANCH 166 167
ENDBRANCH 165 166
BRANCH 165 175
HETATM  175  C   UNK N   1      31.060   9.543   5.139  0.00  0.00     0.241 C 
HETATM  176  O   UNK N   1      30.224  10.194   5.746  0.00  0.00    -0.271 OA
HETATM  177  N   UNK N   1      32.294   9.336   5.666  0.00  0.00    -0.345 N 
HETATM  178  H   UNK N   1      32.970   8.913   5.089  0.00  0.00     0.163 HD
BRANCH 177 179
HETATM  179  C   UNK N   1      32.690   9.692   7.017  0.00  0.00     0.182 C 
BRANCH 179 180
HETATM  180  C   UNK N   1      33.386   8.499   7.676  0.00  0.00     0.040 C 
BRANCH 180 181
HETATM  181  C   UNK N   1      32.609   7.942   8.868  0.00  0.00    -0.020 C 
HETATM  182  C   UNK N   1      33.274   8.338  10.173  0.00  0.00     0.009 C 
HETATM  183  C   UNK N   1      31.201   8.495   8.860  0.00  0.00     0.009 C 
ENDBRANCH 180 181
ENDBRANCH 179 180
BRANCH 179 184
HETATM  184  C   UNK N   1      33.489  10.963   7.176  0.00  0.00     0.163 C 
HETATM  185  O   UNK N   1      34.107  11.200   8.202  0.00  0.00    -0.648 OA
BRANCH 184 186
HETATM  186  O   UNK N   1      33.510  11.853   6.166  0.00  0.00    -0.775 OA
HETATM  187  H   UNK N   1      33.697  11.661   5.268  0.00  0.00     0.167 HD
ENDBRANCH 184 186
ENDBRANCH 179 184
ENDBRANCH 177 179
ENDBRANCH 165 175
ENDBRANCH 163 165
ENDBRANCH 154 161
ENDBRANCH 152 154
ENDBRANCH 143 150
ENDBRANCH 141 143
ENDBRANCH 136 139
ENDBRANCH 127 132
ENDBRANCH 125 127
ENDBRANCH 116 123
ENDBRANCH 114 116
ENDBRANCH 105 112
ENDBRANCH 103 105
ENDBRANCH   1 101
TORSDOF 74
ENDMDL
MODEL 2
REMARK VINA RESULT:      -6.5      2.974      6.356
REMARK WARNING: 32 MAX_TORS EXCEEDED!!!
REMARK  74 active torsions:
REMARK  status: ('A' for Active; 'I' for Inactive)
REMARK       I    between atoms: C_3  and  N_4 
REMARK       I    between atoms: C_3  and  N_5 
REMARK    1  A    between atoms: N_5  and  C_6 
REMARK    2  A    between atoms: C_6  and  C_7 
REMARK    3  A    between atoms: C_7  and  C_8 
REMARK    4  A    between atoms: C_8  and  C_9 
REMARK    5  A    between atoms: C_9  and  N_10 
REMARK    6  A    between atoms: C_9  and  C_29 
REMARK       I    between atoms: N_10  and  C_11 
REMARK    7  A    between atoms: C_13  and  C_11 
REMARK       I    between atoms: N_17  and  C_18 
REMARK    8  A    between atoms: C_18  and  C_20 
REMARK    9  A    between atoms: C_20  and  N_21 
REMARK   10  A    between atoms: C_20  and  C_22 
REMARK   11  A    between atoms: C_22  and  C_23 
REMARK       I    between atoms: C_29  and  N_31 
REMARK   12  A    between atoms: C_35  and  C_36 
REMARK       I    between atoms: C_36  and  N_38 
REMARK   13  A    between atoms: N_38  and  C_39 
REMARK   14  A    between atoms: C_39  and  C_40 
REMARK       I    between atoms: C_40  and  N_42 
REMARK   15  A    between atoms: N_42  and  C_43 
REMARK   16  A    between atoms: C_43  and  C_44 
REMARK       I    between atoms: C_44  and  N_46 
REMARK   17  A    between atoms: N_46  and  C_47 
REMARK   18  A    between atoms: C_47  and  C_48 
REMARK       I    between atoms: C_48  and  N_50 
REMARK   19  A    between atoms: N_50  and  C_51 
REMARK   20  A    between atoms: C_51  and  C_52 
REMARK       I    between atoms: C_52  and  N_54 
REMARK   21  A    between atoms: C_55  and  N_54 
REMARK   22  A    between atoms: C_55  and  C_56 
REMARK   23  A    between atoms: C_55  and  C_60 
REMARK   24  A    between atoms: C_56  and  C_57 
REMARK       I    between atoms: C_57  and  N_58 
REMARK       I    between atoms: C_60  and  N_62 
REMARK   25  A    between atoms: N_62  and  C_63 
REMARK   26  A    between atoms: C_63  and  C_64 
REMARK       I    between atoms: C_64  and  N_66 
REMARK   27  A    between atoms: C_67  and  N_66 
REMARK   28  A    between atoms: C_67  and  C_68 
REMARK   29  A    between atoms: C_67  and  C_72 
REMARK   30  A    between atoms: C_68  and  C_69 
REMARK   31  A    between atoms: C_69  and  O_70 
REMARK       I    between atoms: C_72  and  N_74 
REMARK   32  A    between atoms: C_75  and  N_74 
REMARK   33  A    between atoms: C_75  and  C_76 
REMARK   34  A    between atoms: C_75  and  C_83 
REMARK   35  A    between atoms: C_76  and  C_77 
REMARK       I    between atoms: C_83  and  N_85 
REMARK   36  A    between atoms: C_86  and  N_85 
REMARK   37  A    between atoms: C_86  and  C_87 
REMARK   38  A    between atoms: C_86  and  C_92 
REMARK   39  A    between atoms: C_87  and  C_88 
REMARK   40  A    between atoms: C_88  and  C_89 
REMARK   41  A    between atoms: C_89  and  O_90 
REMARK       I    between atoms: C_92  and  N_94 
REMARK   42  A    between atoms: C_95  and  N_94 
REMARK   43  A    between atoms: C_95  and  C_96 
REMARK   44  A    between atoms: C_95  and  C_101 
REMARK   45  A    between atoms: C_96  and  C_97 
REMARK   46  A    between atoms: C_97  and  C_98 
REMARK   47  A    between atoms: C_98  and  O_99 
REMARK       I    between atoms: C_101  and  N_103 
REMARK   48  A    between atoms: C_104  and  N_103 
REMARK   49  A    between atoms: C_104  and  C_105 
REMARK   50  A    between atoms: C_104  and  C_109 
REMARK   51  A    between atoms: C_105  and  C_107 
REMARK       I    between atoms: C_109  and  N_111 
REMARK   52  A    between atoms: C_115  and  C_116 
REMARK       I    between atoms: C_116  and  N_118 
REMARK   53  A    between atoms: C_119  and  N_118 
REMARK   54  A    between atoms: C_119  and  C_120 
REMARK   55  A    between atoms: C_119  and  C_125 
REMARK   56  A    between atoms: C_120  and  C_121 
REMARK   57  A    between atoms: C_121  and  C_122 
REMARK   58  A    between atoms: C_122  and  O_123 
REMARK       I    between atoms: C_125  and  N_127 
REMARK   59  A    between atoms: C_128  and  N_127 
REMARK   60  A    between atoms: C_128  and  C_129 
REMARK   61  A    between atoms: C_128  and  C_134 
REMARK   62  A    between atoms: C_129  and  C_130 
REMARK   63  A    between atoms: C_130  and  C_131 
REMARK   64  A    between atoms: C_131  and  O_132 
REMARK       I    between atoms: C_134  and  N_136 
REMARK   65  A    between atoms: C_137  and  N_136 
REMARK   66  A    between atoms: C_137  and  C_138 
REMARK   67  A    between atoms: C_137  and  C_146 
REMARK   68  A    between atoms: C_138  and  C_139 
REMARK   69  A    between atoms: C_142  and  O_143 
REMARK       I    between atoms: C_146  and  N_148 
REMARK   70  A    between atoms: C_149  and  N_148 
REMARK   71  A    between atoms: C_149  and  C_150 
REMARK   72  A    between atoms: C_149  and  C_154 
REMARK   73  A    between atoms: C_150  and  C_151 
REMARK   74  A    between atoms: C_154  and  O_155 
ROOT
HETATM    1  C   UNK N   1      29.530  16.723   5.305  0.00  0.00     0.180 C 
ENDROOT
BRANCH   1   2
HETATM    2  N   UNK N   1      28.492  17.661   5.503  0.00  0.00    -0.346 N 
HETATM    3  C   UNK N   1      27.735  18.199   4.530  0.00  0.00     0.241 C 
HETATM    4  O   UNK N   1      27.911  17.939   3.346  0.00  0.00    -0.271 OA
HETATM    5  H   UNK N   1      28.309  17.946   6.427  0.00  0.00     0.163 HD
BRANCH   3   6
HETATM    6  C   UNK N   1      26.814  19.259   4.950  0.00  0.00     0.186 C 
BRANCH   6   7
HETATM    7  N   UNK N   1      26.544  20.049   3.757  0.00  0.00    -0.346 N 
HETATM    8  C   UNK N   1      25.327  20.187   3.158  0.00  0.00     0.236 C 
HETATM    9  O   UNK N   1      25.267  20.763   2.085  0.00  0.00    -0.272 OA
HETATM   10  H   UNK N   1      27.304  20.524   3.350  0.00  0.00     0.163 HD
BRANCH   8  11
HETATM   11  C   UNK N   1      24.042  19.656   3.754  0.00  0.00     0.225 C 
BRANCH  11  12
HETATM   12  N   UNK N   1      23.828  18.233   3.554  0.00  0.00    -0.351 N 
HETATM   13  C   UNK N   1      22.661  17.567   3.783  0.00  0.00     0.241 C 
HETATM   14  O   UNK N   1      22.589  16.387   3.489  0.00  0.00    -0.271 OA
HETATM   15  H   UNK N   1      24.592  17.705   3.225  0.00  0.00     0.163 HD
BRANCH  13  16
HETATM   16  C   UNK N   1      21.422  18.258   4.271  0.00  0.00     0.185 C 
BRANCH  16  17
HETATM   17  N   UNK N   1      21.567  18.352   5.687  0.00  0.00    -0.346 N 
HETATM   18  C   UNK N   1      20.953  17.541   6.549  0.00  0.00     0.236 C 
HETATM   19  O   UNK N   1      20.544  16.444   6.199  0.00  0.00    -0.272 OA
HETATM   20  H   UNK N   1      22.155  19.055   6.048  0.00  0.00     0.163 HD
BRANCH  18  21
HETATM   21  C   UNK N   1      20.456  18.174   7.804  0.00  0.00     0.225 C 
BRANCH  21  22
HETATM   22  N   UNK N   1      19.209  17.535   8.239  0.00  0.00    -0.351 N 
HETATM   23  C   UNK N   1      18.989  16.339   8.895  0.00  0.00     0.235 C 
HETATM   24  O   UNK N   1      17.836  16.006   9.100  0.00  0.00    -0.272 OA
HETATM   25  H   UNK N   1      18.391  18.042   8.027  0.00  0.00     0.163 HD
BRANCH  23  26
HETATM   26  C   UNK N   1      20.054  15.377   9.397  0.00  0.00     0.225 C 
BRANCH  26  27
HETATM   27  N   UNK N   1      20.344  14.283   8.523  0.00  0.00    -0.351 N 
HETATM   28  C   UNK N   1      20.893  13.132   8.959  0.00  0.00     0.235 C 
HETATM   29  O   UNK N   1      21.232  12.301   8.134  0.00  0.00    -0.272 OA
HETATM   30  H   UNK N   1      20.133  14.373   7.566  0.00  0.00     0.163 HD
BRANCH  28  31
HETATM   31  C   UNK N   1      21.213  12.905  10.420  0.00  0.00     0.225 C 
BRANCH  31  32
HETATM   32  N   UNK N   1      22.598  13.221  10.574  0.00  0.00    -0.351 N 
HETATM   33  C   UNK N   1      23.489  12.267  10.883  0.00  0.00     0.235 C 
HETATM   34  O   UNK N   1      23.134  11.235  11.434  0.00  0.00    -0.272 OA
HETATM   35  H   UNK N   1      22.902  14.148  10.450  0.00  0.00     0.163 HD
BRANCH  33  36
HETATM   36  C   UNK N   1      24.713  12.259  10.067  0.00  0.00     0.225 C 
BRANCH  36  37
HETATM   37  N   UNK N   1      24.236  12.548   8.731  0.00  0.00    -0.351 N 
HETATM   38  C   UNK N   1      24.689  13.582   7.984  0.00  0.00     0.241 C 
HETATM   39  O   UNK N   1      25.633  14.261   8.369  0.00  0.00    -0.271 OA
HETATM   40  H   UNK N   1      23.545  11.963   8.346  0.00  0.00     0.163 HD
BRANCH  38  41
HETATM   41  C   UNK N   1      23.999  13.902   6.678  0.00  0.00     0.179 C 
HETATM   42  C   UNK N   1      24.171  15.359   6.277  0.00  0.00     0.037 C 
HETATM   43  C   UNK N   1      25.393  15.389   5.366  0.00  0.00     0.022 C 
HETATM   44  C   UNK N   1      25.519  13.976   4.816  0.00  0.00     0.127 C 
HETATM   45  N   UNK N   1      24.645  13.181   5.631  0.00  0.00    -0.337 N 
HETATM   46  C   UNK N   1      24.405  11.852   5.435  0.00  0.00     0.243 C 
HETATM   47  O   UNK N   1      23.583  11.270   6.126  0.00  0.00    -0.271 OA
BRANCH  46  48
HETATM   48  C   UNK N   1      25.143  11.065   4.398  0.00  0.00     0.176 C 
BRANCH  48  49
HETATM   49  C   UNK N   1      26.420  10.444   4.978  0.00  0.00     0.036 C 
BRANCH  49  50
HETATM   50  C   UNK N   1      27.686  11.114   4.447  0.00  0.00     0.023 C 
BRANCH  50  51
HETATM   51  C   UNK N   1      28.782  10.098   4.158  0.00  0.00     0.138 C 
BRANCH  51  52
HETATM   52  N   UNK N   1      29.974  10.376   4.928  0.00  0.00    -0.227 N 
HETATM   53  C   UNK N   1      30.503   9.423   5.838  0.00  0.00     0.665 C 
HETATM   54  N   UNK N   1      29.896   8.312   6.044  0.00  0.00    -0.235 N 
HETATM   55  N   UNK N   1      31.695   9.707   6.539  0.00  0.00    -0.235 N 
HETATM   56  H   UNK N   1      29.266   7.630   5.718  0.00  0.00     0.174 HD
ATOM     57  HN  UNK N   1      30.207   7.990   6.961  1.00  0.00     0.174 HD
HETATM   58  H   UNK N   1      31.787   9.860   7.507  0.00  0.00     0.174 HD
HETATM   59  H   UNK N   1      32.520   9.757   6.004  0.00  0.00     0.174 HD
HETATM   60  H   UNK N   1      30.427  11.243   4.818  0.00  0.00     0.177 HD
ENDBRANCH  51  52
ENDBRANCH  50  51
ENDBRANCH  49  50
ENDBRANCH  48  49
BRANCH  48  61
HETATM   61  N   UNK N   1      24.266  10.060   3.857  0.00  0.00    -0.346 N 
HETATM   62  C   UNK N   1      24.352   9.645   2.571  0.00  0.00     0.241 C 
HETATM   63  O   UNK N   1      23.674   8.695   2.214  0.00  0.00    -0.271 OA
HETATM   64  H   UNK N   1      23.581   9.661   4.440  0.00  0.00     0.163 HD
BRANCH  62  65
HETATM   65  C   UNK N   1      25.254  10.346   1.568  0.00  0.00     0.179 C 
HETATM   66  C   UNK N   1      26.465   9.469   1.279  0.00  0.00     0.037 C 
HETATM   67  C   UNK N   1      26.211   8.790  -0.074  0.00  0.00     0.022 C 
HETATM   68  C   UNK N   1      24.840   9.251  -0.532  0.00  0.00     0.127 C 
HETATM   69  N   UNK N   1      24.564  10.375   0.303  0.00  0.00    -0.337 N 
HETATM   70  C   UNK N   1      23.866  11.443  -0.153  0.00  0.00     0.243 C 
HETATM   71  O   UNK N   1      23.267  11.345  -1.225  0.00  0.00    -0.271 OA
BRANCH  70  72
HETATM   72  C   UNK N   1      23.827  12.746   0.592  0.00  0.00     0.171 C 
BRANCH  72  73
HETATM   73  N   UNK N   1      25.113  12.998   1.202  0.00  0.00    -0.418 N 
HETATM   74  H   UNK N   1      25.315  13.291   2.159  0.00  0.00     0.150 HD
HETATM   75  H   UNK N   1      25.925  12.865   0.599  0.00  0.00     0.150 HD
ENDBRANCH  72  73
BRANCH  72  76
HETATM   76  C   UNK N   1      22.710  12.760   1.657  0.00  0.00     0.072 C 
BRANCH  76  77
HETATM   77  C   UNK N   1      21.407  13.266   1.111  0.00  0.00    -0.056 A 
HETATM   78  C   UNK N   1      20.414  12.346   0.748  0.00  0.00     0.007 A 
HETATM   79  C   UNK N   1      19.145  12.795   0.372  0.00  0.00     0.001 A 
HETATM   80  C   UNK N   1      18.867  14.165   0.353  0.00  0.00     0.000 A 
HETATM   81  C   UNK N   1      19.860  15.086   0.699  0.00  0.00     0.001 A 
HETATM   82  C   UNK N   1      21.127  14.638   1.088  0.00  0.00     0.007 A 
ENDBRANCH  76  77
ENDBRANCH  72  76
ENDBRANCH  70  72
ENDBRANCH  62  65
ENDBRANCH  48  61
ENDBRANCH  46  48
ENDBRANCH  38  41
ENDBRANCH  36  37
ENDBRANCH  33  36
ENDBRANCH  31  32
ENDBRANCH  28  31
ENDBRANCH  26  27
ENDBRANCH  23  26
ENDBRANCH  21  22
ENDBRANCH  18  21
ENDBRANCH  16  17
BRANCH  16  83
HETATM   83  C   UNK N   1      20.078  17.715   3.797  0.00  0.00     0.137 C 
BRANCH  83  84
HETATM   84  C   UNK N   1      19.556  18.499   2.628  0.00  0.00     0.217 C 
HETATM   85  N   UNK N   1      20.316  18.638   1.527  0.00  0.00    -0.370 N 
HETATM   86  H   UNK N   1      20.568  17.851   0.992  0.00  0.00     0.159 HD
HETATM   87  H   UNK N   1      20.622  19.534   1.254  0.00  0.00     0.159 HD
HETATM   88  O   UNK N   1      18.453  19.021   2.669  0.00  0.00    -0.274 OA
ENDBRANCH  83  84
ENDBRANCH  16  83
ENDBRANCH  13  16
ENDBRANCH  11  12
ENDBRANCH   8  11
ENDBRANCH   6   7
BRANCH   6  89
HETATM   89  C   UNK N   1      27.516  20.106   6.023  0.00  0.00     0.144 C 
BRANCH  89  90
HETATM   90  C   UNK N   1      26.607  20.959   6.865  0.00  0.00     0.141 C 
HETATM   91  O   UNK N   1      26.126  21.989   6.424  0.00  0.00    -0.650 OA
BRANCH  90  92
HETATM   92  O   UNK N   1      26.310  20.573   8.116  0.00  0.00    -0.776 OA
HETATM   93  H   UNK N   1      26.451  21.154   8.836  0.00  0.00     0.167 HD
ENDBRANCH  90  92
ENDBRANCH  89  90
ENDBRANCH   6  89
ENDBRANCH   3   6
ENDBRANCH   1   2
BRANCH   1  94
HETATM   94  C   UNK N   1      29.099  15.257   5.415  0.00  0.00     0.073 C 
BRANCH  94  95
HETATM   95  C   UNK N   1      29.433  14.483   4.156  0.00  0.00    -0.056 A 
HETATM   96  C   UNK N   1      28.542  14.492   3.079  0.00  0.00     0.007 A 
HETATM   97  C   UNK N   1      28.846  13.786   1.908  0.00  0.00     0.001 A 
HETATM   98  C   UNK N   1      30.044  13.071   1.806  0.00  0.00     0.000 A 
HETATM   99  C   UNK N   1      30.944  13.063   2.874  0.00  0.00     0.001 A 
HETATM  100  C   UNK N   1      30.640  13.767   4.043  0.00  0.00     0.007 A 
ENDBRANCH  94  95
ENDBRANCH   1  94
BRANCH   1 101
HETATM  101  C   UNK N   1      30.919  17.291   5.362  0.00  0.00     0.241 C 
HETATM  102  O   UNK N   1      31.443  17.722   4.346  0.00  0.00    -0.271 OA
HETATM  103  N   UNK N   1      31.646  17.193   6.495  0.00  0.00    -0.346 N 
HETATM  104  H   UNK N   1      32.622  17.319   6.444  0.00  0.00     0.163 HD
BRANCH 103 105
HETATM  105  C   UNK N   1      31.048  16.908   7.780  0.00  0.00     0.177 C 
BRANCH 105 106
HETATM  106  C   UNK N   1      30.959  18.138   8.722  0.00  0.00     0.045 C 
BRANCH 106 107
HETATM  107  C   UNK N   1      29.559  18.757   8.803  0.00  0.00     0.112 C 
BRANCH 107 108
HETATM  108  C   UNK N   1      28.496  17.748   9.157  0.00  0.00     0.139 C 
HETATM  109  O   UNK N   1      28.599  17.061  10.159  0.00  0.00    -0.650 OA
BRANCH 108 110
HETATM  110  O   UNK N   1      27.435  17.577   8.349  0.00  0.00    -0.776 OA
HETATM  111  H   UNK N   1      27.289  17.214   7.498  0.00  0.00     0.167 HD
ENDBRANCH 108 110
ENDBRANCH 107 108
ENDBRANCH 106 107
ENDBRANCH 105 106
BRANCH 105 112
HETATM  112  C   UNK N   1      31.779  15.725   8.349  0.00  0.00     0.241 C 
HETATM  113  O   UNK N   1      31.497  15.332   9.473  0.00  0.00    -0.271 OA
HETATM  114  N   UNK N   1      32.795  15.160   7.663  0.00  0.00    -0.346 N 
HETATM  115  H   UNK N   1      32.947  15.442   6.733  0.00  0.00     0.163 HD
BRANCH 114 116
HETATM  116  C   UNK N   1      33.665  14.165   8.229  0.00  0.00     0.177 C 
BRANCH 116 117
HETATM  117  C   UNK N   1      35.036  14.815   8.474  0.00  0.00     0.045 C 
BRANCH 117 118
HETATM  118  C   UNK N   1      34.909  15.986   9.465  0.00  0.00     0.112 C 
BRANCH 118 119
HETATM  119  C   UNK N   1      34.708  15.613  10.897  0.00  0.00     0.139 C 
HETATM  120  O   UNK N   1      35.487  16.035  11.731  0.00  0.00    -0.650 OA
BRANCH 119 121
HETATM  121  O   UNK N   1      33.628  14.917  11.294  0.00  0.00    -0.776 OA
HETATM  122  H   UNK N   1      33.532  14.018  11.049  0.00  0.00     0.167 HD
ENDBRANCH 119 121
ENDBRANCH 118 119
ENDBRANCH 117 118
ENDBRANCH 116 117
BRANCH 116 123
HETATM  123  C   UNK N   1      33.824  13.047   7.236  0.00  0.00     0.241 C 
HETATM  124  O   UNK N   1      33.023  12.123   7.245  0.00  0.00    -0.271 OA
HETATM  125  N   UNK N   1      34.826  13.066   6.326  0.00  0.00    -0.346 N 
HETATM  126  H   UNK N   1      35.503  13.779   6.383  0.00  0.00     0.163 HD
BRANCH 125 127
HETATM  127  C   UNK N   1      34.942  12.072   5.265  0.00  0.00     0.180 C 
BRANCH 127 128
HETATM  128  C   UNK N   1      34.570  12.602   3.852  0.00  0.00     0.013 C 
HETATM  129  C   UNK N   1      35.422  12.083   2.705  0.00  0.00     0.012 C 
BRANCH 128 130
HETATM  130  C   UNK N   1      34.579  14.119   3.799  0.00  0.00     0.002 C 
HETATM  131  C   UNK N   1      34.158  14.601   2.426  0.00  0.00     0.005 C 
ENDBRANCH 128 130
ENDBRANCH 127 128
BRANCH 127 132
HETATM  132  C   UNK N   1      36.183  11.201   5.500  0.00  0.00     0.243 C 
HETATM  133  O   UNK N   1      36.008   9.994   5.476  0.00  0.00    -0.271 OA
HETATM  134  N   UNK N   1      37.453  11.684   5.716  0.00  0.00    -0.337 N 
HETATM  135  C   UNK N   1      37.813  13.067   5.718  0.00  0.00     0.127 C 
HETATM  136  C   UNK N   1      38.575  10.786   5.886  0.00  0.00     0.179 C 
HETATM  137  C   UNK N   1      39.296  13.103   6.044  0.00  0.00     0.022 C 
HETATM  138  C   UNK N   1      39.806  11.674   5.895  0.00  0.00     0.037 C 
BRANCH 136 139
HETATM  139  C   UNK N   1      38.504   9.987   7.156  0.00  0.00     0.241 C 
HETATM  140  O   UNK N   1      38.999  10.446   8.175  0.00  0.00    -0.271 OA
HETATM  141  N   UNK N   1      37.906   8.770   7.165  0.00  0.00    -0.346 N 
HETATM  142  H   UNK N   1      37.457   8.476   6.339  0.00  0.00     0.163 HD
BRANCH 141 143
HETATM  143  C   UNK N   1      37.881   7.874   8.296  0.00  0.00     0.177 C 
BRANCH 143 144
HETATM  144  C   UNK N   1      38.869   6.680   8.213  0.00  0.00     0.045 C 
BRANCH 144 145
HETATM  145  C   UNK N   1      39.727   6.547   9.477  0.00  0.00     0.112 C 
BRANCH 145 146
HETATM  146  C   UNK N   1      41.101   7.093   9.337  0.00  0.00     0.139 C 
HETATM  147  O   UNK N   1      41.268   8.300   9.343  0.00  0.00    -0.650 OA
BRANCH 146 148
HETATM  148  O   UNK N   1      42.141   6.270   9.112  0.00  0.00    -0.776 OA
HETATM  149  H   UNK N   1      43.057   6.347   9.292  0.00  0.00     0.167 HD
ENDBRANCH 146 148
ENDBRANCH 145 146
ENDBRANCH 144 145
ENDBRANCH 143 144
BRANCH 143 150
HETATM  150  C   UNK N   1      36.490   7.473   8.687  0.00  0.00     0.241 C 
HETATM  151  O   UNK N   1      36.004   6.422   8.292  0.00  0.00    -0.271 OA
HETATM  152  N   UNK N   1      35.912   8.167   9.674  0.00  0.00    -0.346 N 
HETATM  153  H   UNK N   1      36.063   9.140   9.730  0.00  0.00     0.163 HD
BRANCH 152 154
HETATM  154  C   UNK N   1      35.079   7.532  10.655  0.00  0.00     0.177 C 
BRANCH 154 155
HETATM  155  C   UNK N   1      33.795   8.350  10.895  0.00  0.00     0.045 C 
BRANCH 155 156
HETATM  156  C   UNK N   1      32.576   7.732  10.200  0.00  0.00     0.112 C 
BRANCH 156 157
HETATM  157  C   UNK N   1      31.638   8.743   9.640  0.00  0.00     0.139 C 
HETATM  158  O   UNK N   1      31.984   9.910   9.559  0.00  0.00    -0.650 OA
BRANCH 157 159
HETATM  159  O   UNK N   1      30.437   8.366   9.167  0.00  0.00    -0.776 OA
HETATM  160  H   UNK N   1      29.544   8.627   9.278  0.00  0.00     0.167 HD
ENDBRANCH 157 159
ENDBRANCH 156 157
ENDBRANCH 155 156
ENDBRANCH 154 155
BRANCH 154 161
HETATM  161  C   UNK N   1      35.908   7.550  11.909  0.00  0.00     0.241 C 
HETATM  162  O   UNK N   1      35.444   7.156  12.964  0.00  0.00    -0.271 OA
HETATM  163  N   UNK N   1      37.125   8.158  11.848  0.00  0.00    -0.346 N 
HETATM  164  H   UNK N   1      37.521   8.264  10.953  0.00  0.00     0.163 HD
BRANCH 163 165
HETATM  165  C   UNK N   1      37.895   8.661  12.953  0.00  0.00     0.180 C 
BRANCH 165 166
HETATM  166  C   UNK N   1      38.600   7.614  13.818  0.00  0.00     0.073 C 
BRANCH 166 167
HETATM  167  C   UNK N   1      40.065   7.814  13.959  0.00  0.00    -0.056 A 
HETATM  168  C   UNK N   1      40.931   7.341  12.969  0.00  0.00     0.010 A 
HETATM  169  C   UNK N   1      42.306   7.527  13.095  0.00  0.00     0.037 A 
HETATM  170  C   UNK N   1      42.821   8.181  14.216  0.00  0.00     0.065 A 
HETATM  171  C   UNK N   1      41.961   8.631  15.223  0.00  0.00     0.037 A 
HETATM  172  C   UNK N   1      40.582   8.441  15.099  0.00  0.00     0.010 A 
BRANCH 170 173
HETATM  173  O   UNK N   1      44.145   8.374  14.326  0.00  0.00    -0.361 OA
HETATM  174  H   UNK N   1      44.799   8.360  13.655  0.00  0.00     0.217 HD
ENDBRANCH 170 173
ENDBRANCH 166 167
ENDBRANCH 165 166
BRANCH 165 175
HETATM  175  C   UNK N   1      37.223   9.886  13.498  0.00  0.00     0.241 C 
HETATM  176  O   UNK N   1      37.219  10.056  14.708  0.00  0.00    -0.271 OA
HETATM  177  N   UNK N   1      36.851  10.884  12.657  0.00  0.00    -0.345 N 
HETATM  178  H   UNK N   1      36.753  10.662  11.703  0.00  0.00     0.163 HD
BRANCH 177 179
HETATM  179  C   UNK N   1      36.586  12.254  13.060  0.00  0.00     0.182 C 
BRANCH 179 180
HETATM  180  C   UNK N   1      37.191  13.214  12.032  0.00  0.00     0.040 C 
BRANCH 180 181
HETATM  181  C   UNK N   1      37.685  12.503  10.773  0.00  0.00    -0.020 C 
HETATM  182  C   UNK N   1      36.532  12.238   9.822  0.00  0.00     0.009 C 
HETATM  183  C   UNK N   1      38.702  13.370  10.064  0.00  0.00     0.009 C 
ENDBRANCH 180 181
ENDBRANCH 179 180
BRANCH 179 184
HETATM  184  C   UNK N   1      35.151  12.603  13.372  0.00  0.00     0.163 C 
HETATM  185  O   UNK N   1      34.844  13.145  14.422  0.00  0.00    -0.648 OA
BRANCH 184 186
HETATM  186  O   UNK N   1      34.194  12.300  12.475  0.00  0.00    -0.775 OA
HETATM  187  H   UNK N   1      34.292  12.305  11.543  0.00  0.00     0.167 HD
ENDBRANCH 184 186
ENDBRANCH 179 184
ENDBRANCH 177 179
ENDBRANCH 165 175
ENDBRANCH 163 165
ENDBRANCH 154 161
ENDBRANCH 152 154
ENDBRANCH 143 150
ENDBRANCH 141 143
ENDBRANCH 136 139
ENDBRANCH 127 132
ENDBRANCH 125 127
ENDBRANCH 116 123
ENDBRANCH 114 116
ENDBRANCH 105 112
ENDBRANCH 103 105
ENDBRANCH   1 101
TORSDOF 74
ENDMDL
MODEL 3
REMARK VINA RESULT:      -6.4      2.865     11.546
REMARK WARNING: 32 MAX_TORS EXCEEDED!!!
REMARK  74 active torsions:
REMARK  status: ('A' for Active; 'I' for Inactive)
REMARK       I    between atoms: C_3  and  N_4 
REMARK       I    between atoms: C_3  and  N_5 
REMARK    1  A    between atoms: N_5  and  C_6 
REMARK    2  A    between atoms: C_6  and  C_7 
REMARK    3  A    between atoms: C_7  and  C_8 
REMARK    4  A    between atoms: C_8  and  C_9 
REMARK    5  A    between atoms: C_9  and  N_10 
REMARK    6  A    between atoms: C_9  and  C_29 
REMARK       I    between atoms: N_10  and  C_11 
REMARK    7  A    between atoms: C_13  and  C_11 
REMARK       I    between atoms: N_17  and  C_18 
REMARK    8  A    between atoms: C_18  and  C_20 
REMARK    9  A    between atoms: C_20  and  N_21 
REMARK   10  A    between atoms: C_20  and  C_22 
REMARK   11  A    between atoms: C_22  and  C_23 
REMARK       I    between atoms: C_29  and  N_31 
REMARK   12  A    between atoms: C_35  and  C_36 
REMARK       I    between atoms: C_36  and  N_38 
REMARK   13  A    between atoms: N_38  and  C_39 
REMARK   14  A    between atoms: C_39  and  C_40 
REMARK       I    between atoms: C_40  and  N_42 
REMARK   15  A    between atoms: N_42  and  C_43 
REMARK   16  A    between atoms: C_43  and  C_44 
REMARK       I    between atoms: C_44  and  N_46 
REMARK   17  A    between atoms: N_46  and  C_47 
REMARK   18  A    between atoms: C_47  and  C_48 
REMARK       I    between atoms: C_48  and  N_50 
REMARK   19  A    between atoms: N_50  and  C_51 
REMARK   20  A    between atoms: C_51  and  C_52 
REMARK       I    between atoms: C_52  and  N_54 
REMARK   21  A    between atoms: C_55  and  N_54 
REMARK   22  A    between atoms: C_55  and  C_56 
REMARK   23  A    between atoms: C_55  and  C_60 
REMARK   24  A    between atoms: C_56  and  C_57 
REMARK       I    between atoms: C_57  and  N_58 
REMARK       I    between atoms: C_60  and  N_62 
REMARK   25  A    between atoms: N_62  and  C_63 
REMARK   26  A    between atoms: C_63  and  C_64 
REMARK       I    between atoms: C_64  and  N_66 
REMARK   27  A    between atoms: C_67  and  N_66 
REMARK   28  A    between atoms: C_67  and  C_68 
REMARK   29  A    between atoms: C_67  and  C_72 
REMARK   30  A    between atoms: C_68  and  C_69 
REMARK   31  A    between atoms: C_69  and  O_70 
REMARK       I    between atoms: C_72  and  N_74 
REMARK   32  A    between atoms: C_75  and  N_74 
REMARK   33  A    between atoms: C_75  and  C_76 
REMARK   34  A    between atoms: C_75  and  C_83 
REMARK   35  A    between atoms: C_76  and  C_77 
REMARK       I    between atoms: C_83  and  N_85 
REMARK   36  A    between atoms: C_86  and  N_85 
REMARK   37  A    between atoms: C_86  and  C_87 
REMARK   38  A    between atoms: C_86  and  C_92 
REMARK   39  A    between atoms: C_87  and  C_88 
REMARK   40  A    between atoms: C_88  and  C_89 
REMARK   41  A    between atoms: C_89  and  O_90 
REMARK       I    between atoms: C_92  and  N_94 
REMARK   42  A    between atoms: C_95  and  N_94 
REMARK   43  A    between atoms: C_95  and  C_96 
REMARK   44  A    between atoms: C_95  and  C_101 
REMARK   45  A    between atoms: C_96  and  C_97 
REMARK   46  A    between atoms: C_97  and  C_98 
REMARK   47  A    between atoms: C_98  and  O_99 
REMARK       I    between atoms: C_101  and  N_103 
REMARK   48  A    between atoms: C_104  and  N_103 
REMARK   49  A    between atoms: C_104  and  C_105 
REMARK   50  A    between atoms: C_104  and  C_109 
REMARK   51  A    between atoms: C_105  and  C_107 
REMARK       I    between atoms: C_109  and  N_111 
REMARK   52  A    between atoms: C_115  and  C_116 
REMARK       I    between atoms: C_116  and  N_118 
REMARK   53  A    between atoms: C_119  and  N_118 
REMARK   54  A    between atoms: C_119  and  C_120 
REMARK   55  A    between atoms: C_119  and  C_125 
REMARK   56  A    between atoms: C_120  and  C_121 
REMARK   57  A    between atoms: C_121  and  C_122 
REMARK   58  A    between atoms: C_122  and  O_123 
REMARK       I    between atoms: C_125  and  N_127 
REMARK   59  A    between atoms: C_128  and  N_127 
REMARK   60  A    between atoms: C_128  and  C_129 
REMARK   61  A    between atoms: C_128  and  C_134 
REMARK   62  A    between atoms: C_129  and  C_130 
REMARK   63  A    between atoms: C_130  and  C_131 
REMARK   64  A    between atoms: C_131  and  O_132 
REMARK       I    between atoms: C_134  and  N_136 
REMARK   65  A    between atoms: C_137  and  N_136 
REMARK   66  A    between atoms: C_137  and  C_138 
REMARK   67  A    between atoms: C_137  and  C_146 
REMARK   68  A    between atoms: C_138  and  C_139 
REMARK   69  A    between atoms: C_142  and  O_143 
REMARK       I    between atoms: C_146  and  N_148 
REMARK   70  A    between atoms: C_149  and  N_148 
REMARK   71  A    between atoms: C_149  and  C_150 
REMARK   72  A    between atoms: C_149  and  C_154 
REMARK   73  A    between atoms: C_150  and  C_151 
REMARK   74  A    between atoms: C_154  and  O_155 
ROOT
HETATM    1  C   UNK N   1      34.635  12.432   6.210  0.00  0.00     0.180 C 
ENDROOT
BRANCH   1   2
HETATM    2  N   UNK N   1      35.274  12.999   7.335  0.00  0.00    -0.346 N 
HETATM    3  C   UNK N   1      34.768  13.036   8.580  0.00  0.00     0.241 C 
HETATM    4  O   UNK N   1      33.655  12.598   8.847  0.00  0.00    -0.271 OA
HETATM    5  H   UNK N   1      36.162  13.402   7.196  0.00  0.00     0.163 HD
BRANCH   3   6
HETATM    6  C   UNK N   1      35.541  13.802   9.562  0.00  0.00     0.186 C 
BRANCH   6   7
HETATM    7  N   UNK N   1      34.804  13.707  10.813  0.00  0.00    -0.346 N 
HETATM    8  C   UNK N   1      35.340  13.385  12.025  0.00  0.00     0.236 C 
HETATM    9  O   UNK N   1      34.587  13.202  12.966  0.00  0.00    -0.272 OA
HETATM   10  H   UNK N   1      33.838  13.891  10.782  0.00  0.00     0.163 HD
BRANCH   8  11
HETATM   11  C   UNK N   1      36.826  13.235  12.263  0.00  0.00     0.225 C 
BRANCH  11  12
HETATM   12  N   UNK N   1      37.173  12.527  13.483  0.00  0.00    -0.351 N 
HETATM   13  C   UNK N   1      37.398  11.186  13.585  0.00  0.00     0.241 C 
HETATM   14  O   UNK N   1      37.769  10.731  14.653  0.00  0.00    -0.271 OA
HETATM   15  H   UNK N   1      37.252  13.061  14.306  0.00  0.00     0.163 HD
BRANCH  13  16
HETATM   16  C   UNK N   1      37.322  10.265  12.403  0.00  0.00     0.185 C 
BRANCH  16  17
HETATM   17  N   UNK N   1      36.007   9.714  12.429  0.00  0.00    -0.346 N 
HETATM   18  C   UNK N   1      35.141   9.818  11.421  0.00  0.00     0.236 C 
HETATM   19  O   UNK N   1      35.525  10.042  10.283  0.00  0.00    -0.272 OA
HETATM   20  H   UNK N   1      35.723   9.229  13.238  0.00  0.00     0.163 HD
BRANCH  18  21
HETATM   21  C   UNK N   1      33.716  10.037  11.801  0.00  0.00     0.225 C 
BRANCH  21  22
HETATM   22  N   UNK N   1      32.899  10.272  10.605  0.00  0.00    -0.351 N 
HETATM   23  C   UNK N   1      32.213   9.388   9.794  0.00  0.00     0.235 C 
HETATM   24  O   UNK N   1      31.642   9.839   8.817  0.00  0.00    -0.272 OA
HETATM   25  H   UNK N   1      32.828  11.216  10.334  0.00  0.00     0.163 HD
BRANCH  23  26
HETATM   26  C   UNK N   1      32.093   7.886   9.995  0.00  0.00     0.225 C 
BRANCH  26  27
HETATM   27  N   UNK N   1      30.778   7.353   9.818  0.00  0.00    -0.351 N 
HETATM   28  C   UNK N   1      30.430   6.625   8.738  0.00  0.00     0.235 C 
HETATM   29  O   UNK N   1      29.258   6.321   8.595  0.00  0.00    -0.272 OA
HETATM   30  H   UNK N   1      30.101   7.524  10.511  0.00  0.00     0.163 HD
BRANCH  28  31
HETATM   31  C   UNK N   1      31.425   6.291   7.648  0.00  0.00     0.225 C 
BRANCH  31  32
HETATM   32  N   UNK N   1      31.515   7.456   6.826  0.00  0.00    -0.351 N 
HETATM   33  C   UNK N   1      30.714   7.608   5.761  0.00  0.00     0.235 C 
HETATM   34  O   UNK N   1      30.200   6.639   5.222  0.00  0.00    -0.272 OA
HETATM   35  H   UNK N   1      32.172   8.156   7.044  0.00  0.00     0.163 HD
BRANCH  33  36
HETATM   36  C   UNK N   1      30.061   8.922   5.645  0.00  0.00     0.225 C 
BRANCH  36  37
HETATM   37  N   UNK N   1      28.945   8.672   4.758  0.00  0.00    -0.351 N 
HETATM   38  C   UNK N   1      28.002   9.599   4.465  0.00  0.00     0.241 C 
HETATM   39  O   UNK N   1      28.124  10.754   4.853  0.00  0.00    -0.271 OA
HETATM   40  H   UNK N   1      28.866   7.782   4.346  0.00  0.00     0.163 HD
BRANCH  38  41
HETATM   41  C   UNK N   1      26.785   9.182   3.673  0.00  0.00     0.179 C 
HETATM   42  C   UNK N   1      27.137   8.767   2.252  0.00  0.00     0.037 C 
HETATM   43  C   UNK N   1      27.328   7.257   2.304  0.00  0.00     0.022 C 
HETATM   44  C   UNK N   1      26.545   6.794   3.524  0.00  0.00     0.127 C 
HETATM   45  N   UNK N   1      26.247   7.996   4.251  0.00  0.00    -0.337 N 
HETATM   46  C   UNK N   1      25.493   8.042   5.388  0.00  0.00     0.243 C 
HETATM   47  O   UNK N   1      25.221   9.117   5.898  0.00  0.00    -0.271 OA
BRANCH  46  48
HETATM   48  C   UNK N   1      24.999   6.797   6.054  0.00  0.00     0.176 C 
BRANCH  48  49
HETATM   49  C   UNK N   1      25.976   6.321   7.136  0.00  0.00     0.036 C 
BRANCH  49  50
HETATM   50  C   UNK N   1      25.296   5.457   8.196  0.00  0.00     0.023 C 
BRANCH  50  51
HETATM   51  C   UNK N   1      26.060   4.164   8.444  0.00  0.00     0.138 C 
BRANCH  51  52
HETATM   52  N   UNK N   1      25.871   3.693   9.798  0.00  0.00    -0.227 N 
HETATM   53  C   UNK N   1      26.917   3.764  10.756  0.00  0.00     0.665 C 
HETATM   54  N   UNK N   1      28.078   4.194  10.423  0.00  0.00    -0.235 N 
HETATM   55  N   UNK N   1      26.686   3.339  12.082  0.00  0.00    -0.235 N 
HETATM   56  H   UNK N   1      28.626   4.729   9.805  0.00  0.00     0.174 HD
ATOM     57  HN  UNK N   1      28.728   3.804  11.106  1.00  0.00     0.174 HD
HETATM   58  H   UNK N   1      27.081   2.555  12.527  0.00  0.00     0.174 HD
HETATM   59  H   UNK N   1      26.065   3.884  12.618  0.00  0.00     0.174 HD
HETATM   60  H   UNK N   1      25.000   3.316  10.060  0.00  0.00     0.177 HD
ENDBRANCH  51  52
ENDBRANCH  50  51
ENDBRANCH  49  50
ENDBRANCH  48  49
BRANCH  48  61
HETATM   61  N   UNK N   1      23.688   7.041   6.597  0.00  0.00    -0.346 N 
HETATM   62  C   UNK N   1      22.558   6.765   5.904  0.00  0.00     0.241 C 
HETATM   63  O   UNK N   1      21.482   6.865   6.472  0.00  0.00    -0.271 OA
HETATM   64  H   UNK N   1      23.610   7.422   7.501  0.00  0.00     0.163 HD
BRANCH  62  65
HETATM   65  C   UNK N   1      22.602   6.355   4.441  0.00  0.00     0.179 C 
HETATM   66  C   UNK N   1      22.267   4.875   4.320  0.00  0.00     0.037 C 
HETATM   67  C   UNK N   1      20.807   4.785   3.856  0.00  0.00     0.022 C 
HETATM   68  C   UNK N   1      20.304   6.212   3.751  0.00  0.00     0.127 C 
HETATM   69  N   UNK N   1      21.497   6.994   3.772  0.00  0.00    -0.337 N 
HETATM   70  C   UNK N   1      21.605   8.142   3.060  0.00  0.00     0.243 C 
HETATM   71  O   UNK N   1      20.588   8.635   2.572  0.00  0.00    -0.271 OA
BRANCH  70  72
HETATM   72  C   UNK N   1      22.930   8.810   2.823  0.00  0.00     0.171 C 
BRANCH  72  73
HETATM   73  N   UNK N   1      23.109   9.889   3.770  0.00  0.00    -0.418 N 
HETATM   74  H   UNK N   1      22.574  10.753   3.856  0.00  0.00     0.150 HD
HETATM   75  H   UNK N   1      23.870   9.770   4.438  0.00  0.00     0.150 HD
ENDBRANCH  72  73
BRANCH  72  76
HETATM   76  C   UNK N   1      23.051   9.334   1.377  0.00  0.00     0.072 C 
BRANCH  76  77
HETATM   77  C   UNK N   1      23.857   8.417   0.503  0.00  0.00    -0.056 A 
HETATM   78  C   UNK N   1      24.674   8.966  -0.494  0.00  0.00     0.007 A 
HETATM   79  C   UNK N   1      25.538   8.145  -1.224  0.00  0.00     0.001 A 
HETATM   80  C   UNK N   1      25.582   6.772  -0.963  0.00  0.00     0.000 A 
HETATM   81  C   UNK N   1      24.756   6.219   0.020  0.00  0.00     0.001 A 
HETATM   82  C   UNK N   1      23.901   7.041   0.761  0.00  0.00     0.007 A 
ENDBRANCH  76  77
ENDBRANCH  72  76
ENDBRANCH  70  72
ENDBRANCH  62  65
ENDBRANCH  48  61
ENDBRANCH  46  48
ENDBRANCH  38  41
ENDBRANCH  36  37
ENDBRANCH  33  36
ENDBRANCH  31  32
ENDBRANCH  28  31
ENDBRANCH  26  27
ENDBRANCH  23  26
ENDBRANCH  21  22
ENDBRANCH  18  21
ENDBRANCH  16  17
BRANCH  16  83
HETATM   83  C   UNK N   1      38.443   9.244  12.232  0.00  0.00     0.137 C 
BRANCH  83  84
HETATM   84  C   UNK N   1      38.200   8.025  13.074  0.00  0.00     0.217 C 
HETATM   85  N   UNK N   1      38.937   7.822  14.181  0.00  0.00    -0.370 N 
HETATM   86  H   UNK N   1      38.888   8.453  14.935  0.00  0.00     0.159 HD
HETATM   87  H   UNK N   1      39.529   7.037  14.237  0.00  0.00     0.159 HD
HETATM   88  O   UNK N   1      37.348   7.208  12.760  0.00  0.00    -0.274 OA
ENDBRANCH  83  84
ENDBRANCH  16  83
ENDBRANCH  13  16
ENDBRANCH  11  12
ENDBRANCH   8  11
ENDBRANCH   6   7
BRANCH   6  89
HETATM   89  C   UNK N   1      35.619  15.259   9.079  0.00  0.00     0.144 C 
BRANCH  89  90
HETATM   90  C   UNK N   1      35.531  16.301  10.161  0.00  0.00     0.141 C 
HETATM   91  O   UNK N   1      36.453  16.476  10.939  0.00  0.00    -0.650 OA
BRANCH  90  92
HETATM   92  O   UNK N   1      34.428  17.059  10.261  0.00  0.00    -0.776 OA
HETATM   93  H   UNK N   1      34.495  17.992  10.254  0.00  0.00     0.167 HD
ENDBRANCH  90  92
ENDBRANCH  89  90
ENDBRANCH   6  89
ENDBRANCH   3   6
ENDBRANCH   1   2
BRANCH   1  94
HETATM   94  C   UNK N   1      33.608  11.344   6.537  0.00  0.00     0.073 C 
BRANCH  94  95
HETATM   95  C   UNK N   1      34.119   9.967   6.166  0.00  0.00    -0.056 A 
HETATM   96  C   UNK N   1      34.833   9.216   7.104  0.00  0.00     0.007 A 
HETATM   97  C   UNK N   1      35.303   7.939   6.774  0.00  0.00     0.001 A 
HETATM   98  C   UNK N   1      35.057   7.403   5.505  0.00  0.00     0.000 A 
HETATM   99  C   UNK N   1      34.337   8.142   4.564  0.00  0.00     0.001 A 
HETATM  100  C   UNK N   1      33.869   9.417   4.894  0.00  0.00     0.007 A 
ENDBRANCH  94  95
ENDBRANCH   1  94
BRANCH   1 101
HETATM  101  C   UNK N   1      35.290  12.727   4.891  0.00  0.00     0.241 C 
HETATM  102  O   UNK N   1      36.496  12.581   4.763  0.00  0.00    -0.271 OA
HETATM  103  N   UNK N   1      34.579  13.294   3.893  0.00  0.00    -0.346 N 
HETATM  104  H   UNK N   1      35.064  13.721   3.149  0.00  0.00     0.163 HD
BRANCH 103 105
HETATM  105  C   UNK N   1      33.133  13.298   3.873  0.00  0.00     0.177 C 
BRANCH 105 106
HETATM  106  C   UNK N   1      32.509  12.123   3.075  0.00  0.00     0.045 C 
BRANCH 106 107
HETATM  107  C   UNK N   1      30.992  11.993   3.247  0.00  0.00     0.112 C 
BRANCH 107 108
HETATM  108  C   UNK N   1      30.249  12.048   1.937  0.00  0.00     0.139 C 
HETATM  109  O   UNK N   1      29.057  11.798   1.886  0.00  0.00    -0.650 OA
BRANCH 108 110
HETATM  110  O   UNK N   1      30.907  12.346   0.803  0.00  0.00    -0.776 OA
HETATM  111  H   UNK N   1      30.797  12.958   0.102  0.00  0.00     0.167 HD
ENDBRANCH 108 110
ENDBRANCH 107 108
ENDBRANCH 106 107
ENDBRANCH 105 106
BRANCH 105 112
HETATM  112  C   UNK N   1      32.708  14.667   3.424  0.00  0.00     0.241 C 
HETATM  113  O   UNK N   1      33.052  15.068   2.320  0.00  0.00    -0.271 OA
HETATM  114  N   UNK N   1      32.031  15.478   4.264  0.00  0.00    -0.346 N 
HETATM  115  H   UNK N   1      31.699  15.104   5.111  0.00  0.00     0.163 HD
BRANCH 114 116
HETATM  116  C   UNK N   1      31.774  16.864   3.979  0.00  0.00     0.177 C 
BRANCH 116 117
HETATM  117  C   UNK N   1      32.916  17.695   4.583  0.00  0.00     0.045 C 
BRANCH 117 118
HETATM  118  C   UNK N   1      33.616  16.914   5.709  0.00  0.00     0.112 C 
BRANCH 118 119
HETATM  119  C   UNK N   1      33.666  17.589   7.040  0.00  0.00     0.139 C 
HETATM  120  O   UNK N   1      34.623  18.289   7.311  0.00  0.00    -0.650 OA
BRANCH 119 121
HETATM  121  O   UNK N   1      32.629  17.527   7.896  0.00  0.00    -0.776 OA
HETATM  122  H   UNK N   1      31.796  17.219   7.602  0.00  0.00     0.167 HD
ENDBRANCH 119 121
ENDBRANCH 118 119
ENDBRANCH 117 118
ENDBRANCH 116 117
BRANCH 116 123
HETATM  123  C   UNK N   1      30.481  17.256   4.639  0.00  0.00     0.241 C 
HETATM  124  O   UNK N   1      30.404  17.238   5.859  0.00  0.00    -0.271 OA
HETATM  125  N   UNK N   1      29.415  17.645   3.899  0.00  0.00    -0.346 N 
HETATM  126  H   UNK N   1      29.473  17.581   2.918  0.00  0.00     0.163 HD
BRANCH 125 127
HETATM  127  C   UNK N   1      28.188  18.155   4.497  0.00  0.00     0.180 C 
BRANCH 127 128
HETATM  128  C   UNK N   1      27.905  19.652   4.194  0.00  0.00     0.013 C 
HETATM  129  C   UNK N   1      28.215  20.627   5.319  0.00  0.00     0.012 C 
BRANCH 128 130
HETATM  130  C   UNK N   1      26.467  19.877   3.757  0.00  0.00     0.002 C 
HETATM  131  C   UNK N   1      25.698  20.615   4.834  0.00  0.00     0.005 C 
ENDBRANCH 128 130
ENDBRANCH 127 128
BRANCH 127 132
HETATM  132  C   UNK N   1      27.086  17.091   4.414  0.00  0.00     0.243 C 
HETATM  133  O   UNK N   1      26.583  16.919   3.316  0.00  0.00    -0.271 OA
HETATM  134  N   UNK N   1      26.651  16.325   5.471  0.00  0.00    -0.337 N 
HETATM  135  C   UNK N   1      27.184  16.381   6.796  0.00  0.00     0.127 C 
HETATM  136  C   UNK N   1      25.634  15.312   5.292  0.00  0.00     0.179 C 
HETATM  137  C   UNK N   1      26.360  15.399   7.611  0.00  0.00     0.022 C 
HETATM  138  C   UNK N   1      25.574  14.561   6.609  0.00  0.00     0.037 C 
BRANCH 136 139
HETATM  139  C   UNK N   1      24.284  15.883   4.959  0.00  0.00     0.241 C 
HETATM  140  O   UNK N   1      23.416  15.139   4.527  0.00  0.00    -0.271 OA
HETATM  141  N   UNK N   1      24.042  17.206   5.128  0.00  0.00    -0.346 N 
HETATM  142  H   UNK N   1      24.748  17.749   5.549  0.00  0.00     0.163 HD
BRANCH 141 143
HETATM  143  C   UNK N   1      22.825  17.876   4.737  0.00  0.00     0.177 C 
BRANCH 143 144
HETATM  144  C   UNK N   1      23.024  19.197   3.947  0.00  0.00     0.045 C 
BRANCH 144 145
HETATM  145  C   UNK N   1      22.070  19.308   2.751  0.00  0.00     0.112 C 
BRANCH 145 146
HETATM  146  C   UNK N   1      21.183  20.498   2.792  0.00  0.00     0.139 C 
HETATM  147  O   UNK N   1      21.285  21.351   1.927  0.00  0.00    -0.650 OA
BRANCH 146 148
HETATM  148  O   UNK N   1      20.339  20.683   3.823  0.00  0.00    -0.776 OA
HETATM  149  H   UNK N   1      19.434  20.926   3.863  0.00  0.00     0.167 HD
ENDBRANCH 146 148
ENDBRANCH 145 146
ENDBRANCH 144 145
ENDBRANCH 143 144
BRANCH 143 150
HETATM  150  C   UNK N   1      21.842  17.996   5.863  0.00  0.00     0.241 C 
HETATM  151  O   UNK N   1      21.084  18.954   5.937  0.00  0.00    -0.271 OA
HETATM  152  N   UNK N   1      21.649  16.909   6.620  0.00  0.00    -0.346 N 
HETATM  153  H   UNK N   1      22.419  16.334   6.840  0.00  0.00     0.163 HD
BRANCH 152 154
HETATM  154  C   UNK N   1      20.350  16.558   7.118  0.00  0.00     0.177 C 
BRANCH 154 155
HETATM  155  C   UNK N   1      20.431  16.111   8.590  0.00  0.00     0.045 C 
BRANCH 155 156
HETATM  156  C   UNK N   1      19.044  15.903   9.210  0.00  0.00     0.112 C 
BRANCH 156 157
HETATM  157  C   UNK N   1      18.104  17.027   8.948  0.00  0.00     0.139 C 
HETATM  158  O   UNK N   1      17.065  16.819   8.345  0.00  0.00    -0.650 OA
BRANCH 157 159
HETATM  159  O   UNK N   1      18.367  18.257   9.427  0.00  0.00    -0.776 OA
HETATM  160  H   UNK N   1      18.781  19.038   9.117  0.00  0.00     0.167 HD
ENDBRANCH 157 159
ENDBRANCH 156 157
ENDBRANCH 155 156
ENDBRANCH 154 155
BRANCH 154 161
HETATM  161  C   UNK N   1      19.937  15.384   6.275  0.00  0.00     0.241 C 
HETATM  162  O   UNK N   1      18.794  15.288   5.864  0.00  0.00    -0.271 OA
HETATM  163  N   UNK N   1      20.837  14.373   6.123  0.00  0.00    -0.346 N 
HETATM  164  H   UNK N   1      21.781  14.594   6.293  0.00  0.00     0.163 HD
BRANCH 163 165
HETATM  165  C   UNK N   1      20.555  13.017   5.739  0.00  0.00     0.180 C 
BRANCH 165 166
HETATM  166  C   UNK N   1      20.752  11.954   6.822  0.00  0.00     0.073 C 
BRANCH 166 167
HETATM  167  C   UNK N   1      21.834  12.254   7.794  0.00  0.00    -0.056 A 
HETATM  168  C   UNK N   1      21.528  12.895   8.998  0.00  0.00     0.010 A 
HETATM  169  C   UNK N   1      22.537  13.178   9.916  0.00  0.00     0.037 A 
HETATM  170  C   UNK N   1      23.858  12.828   9.629  0.00  0.00     0.065 A 
HETATM  171  C   UNK N   1      24.173  12.212   8.414  0.00  0.00     0.037 A 
HETATM  172  C   UNK N   1      23.161  11.931   7.491  0.00  0.00     0.010 A 
BRANCH 170 173
HETATM  173  O   UNK N   1      24.826  13.086  10.523  0.00  0.00    -0.361 OA
HETATM  174  H   UNK N   1      24.859  12.868  11.434  0.00  0.00     0.217 HD
ENDBRANCH 170 173
ENDBRANCH 166 167
ENDBRANCH 165 166
BRANCH 165 175
HETATM  175  C   UNK N   1      20.928  12.829   4.299  0.00  0.00     0.241 C 
HETATM  176  O   UNK N   1      20.831  11.711   3.815  0.00  0.00    -0.271 OA
HETATM  177  N   UNK N   1      21.131  13.911   3.506  0.00  0.00    -0.345 N 
HETATM  178  H   UNK N   1      21.324  14.770   3.949  0.00  0.00     0.163 HD
BRANCH 177 179
HETATM  179  C   UNK N   1      21.084  13.898   2.055  0.00  0.00     0.182 C 
BRANCH 179 180
HETATM  180  C   UNK N   1      22.016  12.807   1.523  0.00  0.00     0.040 C 
BRANCH 180 181
HETATM  181  C   UNK N   1      23.332  13.362   0.979  0.00  0.00    -0.020 C 
HETATM  182  C   UNK N   1      24.482  13.015   1.905  0.00  0.00     0.009 C 
HETATM  183  C   UNK N   1      23.613  12.762  -0.381  0.00  0.00     0.009 C 
ENDBRANCH 180 181
ENDBRANCH 179 180
BRANCH 179 184
HETATM  184  C   UNK N   1      19.716  13.821   1.422  0.00  0.00     0.163 C 
HETATM  185  O   UNK N   1      19.506  13.117   0.447  0.00  0.00    -0.648 OA
BRANCH 184 186
HETATM  186  O   UNK N   1      18.712  14.552   1.943  0.00  0.00    -0.775 OA
HETATM  187  H   UNK N   1      17.909  14.217   2.289  0.00  0.00     0.167 HD
ENDBRANCH 184 186
ENDBRANCH 179 184
ENDBRANCH 177 179
ENDBRANCH 165 175
ENDBRANCH 163 165
ENDBRANCH 154 161
ENDBRANCH 152 154
ENDBRANCH 143 150
ENDBRANCH 141 143
ENDBRANCH 136 139
ENDBRANCH 127 132
ENDBRANCH 125 127
ENDBRANCH 116 123
ENDBRANCH 114 116
ENDBRANCH 105 112
ENDBRANCH 103 105
ENDBRANCH   1 101
TORSDOF 74
ENDMDL
MODEL 4
REMARK VINA RESULT:      -6.4      2.551     12.822
REMARK WARNING: 32 MAX_TORS EXCEEDED!!!
REMARK  74 active torsions:
REMARK  status: ('A' for Active; 'I' for Inactive)
REMARK       I    between atoms: C_3  and  N_4 
REMARK       I    between atoms: C_3  and  N_5 
REMARK    1  A    between atoms: N_5  and  C_6 
REMARK    2  A    between atoms: C_6  and  C_7 
REMARK    3  A    between atoms: C_7  and  C_8 
REMARK    4  A    between atoms: C_8  and  C_9 
REMARK    5  A    between atoms: C_9  and  N_10 
REMARK    6  A    between atoms: C_9  and  C_29 
REMARK       I    between atoms: N_10  and  C_11 
REMARK    7  A    between atoms: C_13  and  C_11 
REMARK       I    between atoms: N_17  and  C_18 
REMARK    8  A    between atoms: C_18  and  C_20 
REMARK    9  A    between atoms: C_20  and  N_21 
REMARK   10  A    between atoms: C_20  and  C_22 
REMARK   11  A    between atoms: C_22  and  C_23 
REMARK       I    between atoms: C_29  and  N_31 
REMARK   12  A    between atoms: C_35  and  C_36 
REMARK       I    between atoms: C_36  and  N_38 
REMARK   13  A    between atoms: N_38  and  C_39 
REMARK   14  A    between atoms: C_39  and  C_40 
REMARK       I    between atoms: C_40  and  N_42 
REMARK   15  A    between atoms: N_42  and  C_43 
REMARK   16  A    between atoms: C_43  and  C_44 
REMARK       I    between atoms: C_44  and  N_46 
REMARK   17  A    between atoms: N_46  and  C_47 
REMARK   18  A    between atoms: C_47  and  C_48 
REMARK       I    between atoms: C_48  and  N_50 
REMARK   19  A    between atoms: N_50  and  C_51 
REMARK   20  A    between atoms: C_51  and  C_52 
REMARK       I    between atoms: C_52  and  N_54 
REMARK   21  A    between atoms: C_55  and  N_54 
REMARK   22  A    between atoms: C_55  and  C_56 
REMARK   23  A    between atoms: C_55  and  C_60 
REMARK   24  A    between atoms: C_56  and  C_57 
REMARK       I    between atoms: C_57  and  N_58 
REMARK       I    between atoms: C_60  and  N_62 
REMARK   25  A    between atoms: N_62  and  C_63 
REMARK   26  A    between atoms: C_63  and  C_64 
REMARK       I    between atoms: C_64  and  N_66 
REMARK   27  A    between atoms: C_67  and  N_66 
REMARK   28  A    between atoms: C_67  and  C_68 
REMARK   29  A    between atoms: C_67  and  C_72 
REMARK   30  A    between atoms: C_68  and  C_69 
REMARK   31  A    between atoms: C_69  and  O_70 
REMARK       I    between atoms: C_72  and  N_74 
REMARK   32  A    between atoms: C_75  and  N_74 
REMARK   33  A    between atoms: C_75  and  C_76 
REMARK   34  A    between atoms: C_75  and  C_83 
REMARK   35  A    between atoms: C_76  and  C_77 
REMARK       I    between atoms: C_83  and  N_85 
REMARK   36  A    between atoms: C_86  and  N_85 
REMARK   37  A    between atoms: C_86  and  C_87 
REMARK   38  A    between atoms: C_86  and  C_92 
REMARK   39  A    between atoms: C_87  and  C_88 
REMARK   40  A    between atoms: C_88  and  C_89 
REMARK   41  A    between atoms: C_89  and  O_90 
REMARK       I    between atoms: C_92  and  N_94 
REMARK   42  A    between atoms: C_95  and  N_94 
REMARK   43  A    between atoms: C_95  and  C_96 
REMARK   44  A    between atoms: C_95  and  C_101 
REMARK   45  A    between atoms: C_96  and  C_97 
REMARK   46  A    between atoms: C_97  and  C_98 
REMARK   47  A    between atoms: C_98  and  O_99 
REMARK       I    between atoms: C_101  and  N_103 
REMARK   48  A    between atoms: C_104  and  N_103 
REMARK   49  A    between atoms: C_104  and  C_105 
REMARK   50  A    between atoms: C_104  and  C_109 
REMARK   51  A    between atoms: C_105  and  C_107 
REMARK       I    between atoms: C_109  and  N_111 
REMARK   52  A    between atoms: C_115  and  C_116 
REMARK       I    between atoms: C_116  and  N_118 
REMARK   53  A    between atoms: C_119  and  N_118 
REMARK   54  A    between atoms: C_119  and  C_120 
REMARK   55  A    between atoms: C_119  and  C_125 
REMARK   56  A    between atoms: C_120  and  C_121 
REMARK   57  A    between atoms: C_121  and  C_122 
REMARK   58  A    between atoms: C_122  and  O_123 
REMARK       I    between atoms: C_125  and  N_127 
REMARK   59  A    between atoms: C_128  and  N_127 
REMARK   60  A    between atoms: C_128  and  C_129 
REMARK   61  A    between atoms: C_128  and  C_134 
REMARK   62  A    between atoms: C_129  and  C_130 
REMARK   63  A    between atoms: C_130  and  C_131 
REMARK   64  A    between atoms: C_131  and  O_132 
REMARK       I    between atoms: C_134  and  N_136 
REMARK   65  A    between atoms: C_137  and  N_136 
REMARK   66  A    between atoms: C_137  and  C_138 
REMARK   67  A    between atoms: C_137  and  C_146 
REMARK   68  A    between atoms: C_138  and  C_139 
REMARK   69  A    between atoms: C_142  and  O_143 
REMARK       I    between atoms: C_146  and  N_148 
REMARK   70  A    between atoms: C_149  and  N_148 
REMARK   71  A    between atoms: C_149  and  C_150 
REMARK   72  A    between atoms: C_149  and  C_154 
REMARK   73  A    between atoms: C_150  and  C_151 
REMARK   74  A    between atoms: C_154  and  O_155 
ROOT
HETATM    1  C   UNK N   1      25.702  15.823   4.220  0.00  0.00     0.180 C 
ENDROOT
BRANCH   1   2
HETATM    2  N   UNK N   1      26.927  16.305   4.732  0.00  0.00    -0.346 N 
HETATM    3  C   UNK N   1      27.956  15.539   5.135  0.00  0.00     0.241 C 
HETATM    4  O   UNK N   1      27.903  14.315   5.126  0.00  0.00    -0.271 OA
HETATM    5  H   UNK N   1      27.037  17.281   4.801  0.00  0.00     0.163 HD
BRANCH   3   6
HETATM    6  C   UNK N   1      29.073  16.249   5.765  0.00  0.00     0.186 C 
BRANCH   6   7
HETATM    7  N   UNK N   1      28.472  17.199   6.690  0.00  0.00    -0.346 N 
HETATM    8  C   UNK N   1      28.860  17.400   7.981  0.00  0.00     0.236 C 
HETATM    9  O   UNK N   1      28.181  18.124   8.689  0.00  0.00    -0.272 OA
HETATM   10  H   UNK N   1      27.723  17.742   6.355  0.00  0.00     0.163 HD
BRANCH   8  11
HETATM   11  C   UNK N   1      30.091  16.764   8.588  0.00  0.00     0.225 C 
BRANCH  11  12
HETATM   12  N   UNK N   1      31.199  17.678   8.803  0.00  0.00    -0.351 N 
HETATM   13  C   UNK N   1      32.414  17.609   8.189  0.00  0.00     0.241 C 
HETATM   14  O   UNK N   1      33.227  18.493   8.392  0.00  0.00    -0.271 OA
HETATM   15  H   UNK N   1      31.061  18.410   9.447  0.00  0.00     0.163 HD
BRANCH  13  16
HETATM   16  C   UNK N   1      32.746  16.552   7.177  0.00  0.00     0.185 C 
BRANCH  16  17
HETATM   17  N   UNK N   1      33.617  15.642   7.845  0.00  0.00    -0.346 N 
HETATM   18  C   UNK N   1      33.212  14.496   8.393  0.00  0.00     0.236 C 
HETATM   19  O   UNK N   1      32.173  13.962   8.036  0.00  0.00    -0.272 OA
HETATM   20  H   UNK N   1      34.574  15.873   7.904  0.00  0.00     0.163 HD
BRANCH  18  21
HETATM   21  C   UNK N   1      33.857  14.123   9.684  0.00  0.00     0.225 C 
BRANCH  21  22
HETATM   22  N   UNK N   1      35.298  14.395   9.632  0.00  0.00    -0.351 N 
HETATM   23  C   UNK N   1      36.121  15.068  10.514  0.00  0.00     0.235 C 
HETATM   24  O   UNK N   1      37.293  15.201  10.210  0.00  0.00    -0.272 OA
HETATM   25  H   UNK N   1      35.755  14.040   8.835  0.00  0.00     0.163 HD
BRANCH  23  26
HETATM   26  C   UNK N   1      35.711  15.671  11.848  0.00  0.00     0.225 C 
BRANCH  26  27
HETATM   27  N   UNK N   1      36.456  15.209  12.978  0.00  0.00    -0.351 N 
HETATM   28  C   UNK N   1      36.146  14.075  13.637  0.00  0.00     0.235 C 
HETATM   29  O   UNK N   1      36.744  13.819  14.667  0.00  0.00    -0.272 OA
HETATM   30  H   UNK N   1      37.227  15.739  13.286  0.00  0.00     0.163 HD
BRANCH  28  31
HETATM   31  C   UNK N   1      34.998  13.190  13.202  0.00  0.00     0.225 C 
BRANCH  31  32
HETATM   32  N   UNK N   1      35.413  11.849  13.470  0.00  0.00    -0.351 N 
HETATM   33  C   UNK N   1      35.240  10.882  12.557  0.00  0.00     0.235 C 
HETATM   34  O   UNK N   1      34.392  10.991  11.683  0.00  0.00    -0.272 OA
HETATM   35  H   UNK N   1      35.831  11.632  14.334  0.00  0.00     0.163 HD
BRANCH  33  36
HETATM   36  C   UNK N   1      36.413  10.027  12.314  0.00  0.00     0.225 C 
BRANCH  36  37
HETATM   37  N   UNK N   1      36.863  10.428  10.998  0.00  0.00    -0.351 N 
HETATM   38  C   UNK N   1      37.646  11.510  10.775  0.00  0.00     0.241 C 
HETATM   39  O   UNK N   1      38.117  12.141  11.712  0.00  0.00    -0.271 OA
HETATM   40  H   UNK N   1      36.586   9.886  10.225  0.00  0.00     0.163 HD
BRANCH  38  41
HETATM   41  C   UNK N   1      37.910  11.942   9.351  0.00  0.00     0.179 C 
HETATM   42  C   UNK N   1      39.380  12.250   9.106  0.00  0.00     0.037 C 
HETATM   43  C   UNK N   1      39.984  10.956   8.575  0.00  0.00     0.022 C 
HETATM   44  C   UNK N   1      38.815  10.175   7.995  0.00  0.00     0.127 C 
HETATM   45  N   UNK N   1      37.642  10.845   8.482  0.00  0.00    -0.337 N 
HETATM   46  C   UNK N   1      36.364  10.506   8.144  0.00  0.00     0.243 C 
HETATM   47  O   UNK N   1      35.427  11.181   8.541  0.00  0.00    -0.271 OA
BRANCH  46  48
HETATM   48  C   UNK N   1      36.066   9.303   7.306  0.00  0.00     0.176 C 
BRANCH  48  49
HETATM   49  C   UNK N   1      35.863   8.057   8.178  0.00  0.00     0.036 C 
BRANCH  49  50
HETATM   50  C   UNK N   1      34.487   7.424   7.978  0.00  0.00     0.023 C 
BRANCH  50  51
HETATM   51  C   UNK N   1      33.614   7.572   9.216  0.00  0.00     0.138 C 
BRANCH  51  52
HETATM   52  N   UNK N   1      33.481   8.959   9.603  0.00  0.00    -0.227 N 
HETATM   53  C   UNK N   1      32.404   9.756   9.131  0.00  0.00     0.665 C 
HETATM   54  N   UNK N   1      31.556   9.277   8.297  0.00  0.00    -0.235 N 
HETATM   55  N   UNK N   1      32.277  11.093   9.565  0.00  0.00    -0.235 N 
HETATM   56  H   UNK N   1      31.122   8.484   7.908  0.00  0.00     0.174 HD
ATOM     57  HN  UNK N   1      31.147  10.082   7.821  1.00  0.00     0.174 HD
HETATM   58  H   UNK N   1      32.389  11.903   9.018  0.00  0.00     0.174 HD
HETATM   59  H   UNK N   1      32.053  11.229  10.514  0.00  0.00     0.174 HD
HETATM   60  H   UNK N   1      34.150   9.357  10.205  0.00  0.00     0.177 HD
ENDBRANCH  51  52
ENDBRANCH  50  51
ENDBRANCH  49  50
ENDBRANCH  48  49
BRANCH  48  61
HETATM   61  N   UNK N   1      34.910   9.571   6.491  0.00  0.00    -0.346 N 
HETATM   62  C   UNK N   1      35.012   9.915   5.186  0.00  0.00     0.241 C 
HETATM   63  O   UNK N   1      33.994   9.993   4.517  0.00  0.00    -0.271 OA
HETATM   64  H   UNK N   1      34.015   9.502   6.896  0.00  0.00     0.163 HD
BRANCH  62  65
HETATM   65  C   UNK N   1      36.358  10.222   4.548  0.00  0.00     0.179 C 
HETATM   66  C   UNK N   1      36.704   9.127   3.549  0.00  0.00     0.037 C 
HETATM   67  C   UNK N   1      36.399   9.684   2.152  0.00  0.00     0.022 C 
HETATM   68  C   UNK N   1      35.843  11.080   2.362  0.00  0.00     0.127 C 
HETATM   69  N   UNK N   1      36.191  11.384   3.712  0.00  0.00    -0.337 N 
HETATM   70  C   UNK N   1      36.514  12.643   4.094  0.00  0.00     0.243 C 
HETATM   71  O   UNK N   1      36.282  13.575   3.323  0.00  0.00    -0.271 OA
BRANCH  70  72
HETATM   72  C   UNK N   1      37.172  12.931   5.413  0.00  0.00     0.171 C 
BRANCH  72  73
HETATM   73  N   UNK N   1      36.171  13.307   6.387  0.00  0.00    -0.418 N 
HETATM   74  H   UNK N   1      36.308  13.645   7.340  0.00  0.00     0.150 HD
HETATM   75  H   UNK N   1      35.202  13.223   6.082  0.00  0.00     0.150 HD
ENDBRANCH  72  73
BRANCH  72  76
HETATM   76  C   UNK N   1      38.243  14.034   5.285  0.00  0.00     0.072 C 
BRANCH  76  77
HETATM   77  C   UNK N   1      39.637  13.496   5.426  0.00  0.00    -0.056 A 
HETATM   78  C   UNK N   1      40.576  14.215   6.178  0.00  0.00     0.007 A 
HETATM   79  C   UNK N   1      41.834  13.666   6.440  0.00  0.00     0.001 A 
HETATM   80  C   UNK N   1      42.160  12.400   5.945  0.00  0.00     0.000 A 
HETATM   81  C   UNK N   1      41.231  11.686   5.181  0.00  0.00     0.001 A 
HETATM   82  C   UNK N   1      39.967  12.228   4.930  0.00  0.00     0.007 A 
ENDBRANCH  76  77
ENDBRANCH  72  76
ENDBRANCH  70  72
ENDBRANCH  62  65
ENDBRANCH  48  61
ENDBRANCH  46  48
ENDBRANCH  38  41
ENDBRANCH  36  37
ENDBRANCH  33  36
ENDBRANCH  31  32
ENDBRANCH  28  31
ENDBRANCH  26  27
ENDBRANCH  23  26
ENDBRANCH  21  22
ENDBRANCH  18  21
ENDBRANCH  16  17
BRANCH  16  83
HETATM   83  C   UNK N   1      33.229  17.015   5.806  0.00  0.00     0.137 C 
BRANCH  83  84
HETATM   84  C   UNK N   1      34.225  16.051   5.227  0.00  0.00     0.217 C 
HETATM   85  N   UNK N   1      33.865  15.254   4.205  0.00  0.00    -0.370 N 
HETATM   86  H   UNK N   1      33.611  15.642   3.336  0.00  0.00     0.159 HD
HETATM   87  H   UNK N   1      33.855  14.277   4.326  0.00  0.00     0.159 HD
HETATM   88  O   UNK N   1      35.356  15.975   5.681  0.00  0.00    -0.274 OA
ENDBRANCH  83  84
ENDBRANCH  16  83
ENDBRANCH  13  16
ENDBRANCH  11  12
ENDBRANCH   8  11
ENDBRANCH   6   7
BRANCH   6  89
HETATM   89  C   UNK N   1      29.860  16.977   4.664  0.00  0.00     0.144 C 
BRANCH  89  90
HETATM   90  C   UNK N   1      30.669  16.090   3.758  0.00  0.00     0.141 C 
HETATM   91  O   UNK N   1      31.256  16.549   2.792  0.00  0.00    -0.650 OA
BRANCH  90  92
HETATM   92  O   UNK N   1      30.759  14.778   4.024  0.00  0.00    -0.776 OA
HETATM   93  H   UNK N   1      31.276  14.220   3.480  0.00  0.00     0.167 HD
ENDBRANCH  90  92
ENDBRANCH  89  90
ENDBRANCH   6  89
ENDBRANCH   3   6
ENDBRANCH   1   2
BRANCH   1  94
HETATM   94  C   UNK N   1      25.515  16.020   2.713  0.00  0.00     0.073 C 
BRANCH  94  95
HETATM   95  C   UNK N   1      25.225  14.708   2.012  0.00  0.00    -0.056 A 
HETATM   96  C   UNK N   1      26.049  13.603   2.240  0.00  0.00     0.007 A 
HETATM   97  C   UNK N   1      25.785  12.384   1.603  0.00  0.00     0.001 A 
HETATM   98  C   UNK N   1      24.693  12.262   0.738  0.00  0.00     0.000 A 
HETATM   99  C   UNK N   1      23.860  13.359   0.509  0.00  0.00     0.001 A 
HETATM  100  C   UNK N   1      24.124  14.575   1.144  0.00  0.00     0.007 A 
ENDBRANCH  94  95
ENDBRANCH   1  94
BRANCH   1 101
HETATM  101  C   UNK N   1      24.658  15.516   5.255  0.00  0.00     0.241 C 
HETATM  102  O   UNK N   1      24.916  14.753   6.173  0.00  0.00    -0.271 OA
HETATM  103  N   UNK N   1      23.393  15.960   5.094  0.00  0.00    -0.346 N 
HETATM  104  H   UNK N   1      22.673  15.541   5.620  0.00  0.00     0.163 HD
BRANCH 103 105
HETATM  105  C   UNK N   1      23.054  17.028   4.180  0.00  0.00     0.177 C 
BRANCH 105 106
HETATM  106  C   UNK N   1      23.279  18.450   4.758  0.00  0.00     0.045 C 
BRANCH 106 107
HETATM  107  C   UNK N   1      24.274  19.295   3.956  0.00  0.00     0.112 C 
BRANCH 107 108
HETATM  108  C   UNK N   1      23.595  20.291   3.050  0.00  0.00     0.139 C 
HETATM  109  O   UNK N   1      24.249  20.990   2.293  0.00  0.00    -0.650 OA
BRANCH 108 110
HETATM  110  O   UNK N   1      22.260  20.438   3.091  0.00  0.00    -0.776 OA
HETATM  111  H   UNK N   1      21.663  21.159   3.122  0.00  0.00     0.167 HD
ENDBRANCH 108 110
ENDBRANCH 107 108
ENDBRANCH 106 107
ENDBRANCH 105 106
BRANCH 105 112
HETATM  112  C   UNK N   1      21.661  16.755   3.689  0.00  0.00     0.241 C 
HETATM  113  O   UNK N   1      21.155  17.514   2.872  0.00  0.00    -0.271 OA
HETATM  114  N   UNK N   1      20.943  15.738   4.210  0.00  0.00    -0.346 N 
HETATM  115  H   UNK N   1      21.398  15.099   4.803  0.00  0.00     0.163 HD
BRANCH 114 116
HETATM  116  C   UNK N   1      19.544  15.546   3.940  0.00  0.00     0.177 C 
BRANCH 116 117
HETATM  117  C   UNK N   1      18.793  15.561   5.280  0.00  0.00     0.045 C 
BRANCH 117 118
HETATM  118  C   UNK N   1      19.730  15.999   6.420  0.00  0.00     0.112 C 
BRANCH 118 119
HETATM  119  C   UNK N   1      20.202  14.914   7.332  0.00  0.00     0.139 C 
HETATM  120  O   UNK N   1      20.170  13.762   6.944  0.00  0.00    -0.650 OA
BRANCH 119 121
HETATM  121  O   UNK N   1      20.761  15.195   8.523  0.00  0.00    -0.776 OA
HETATM  122  H   UNK N   1      20.508  14.714   9.285  0.00  0.00     0.167 HD
ENDBRANCH 119 121
ENDBRANCH 118 119
ENDBRANCH 117 118
ENDBRANCH 116 117
BRANCH 116 123
HETATM  123  C   UNK N   1      19.362  14.202   3.291  0.00  0.00     0.241 C 
HETATM  124  O   UNK N   1      18.846  14.138   2.185  0.00  0.00    -0.271 OA
HETATM  125  N   UNK N   1      19.781  13.072   3.908  0.00  0.00    -0.346 N 
HETATM  126  H   UNK N   1      20.126  13.137   4.828  0.00  0.00     0.163 HD
BRANCH 125 127
HETATM  127  C   UNK N   1      19.743  11.765   3.264  0.00  0.00     0.180 C 
BRANCH 127 128
HETATM  128  C   UNK N   1      20.823  11.564   2.164  0.00  0.00     0.013 C 
HETATM  129  C   UNK N   1      20.355  10.869   0.895  0.00  0.00     0.012 C 
BRANCH 128 130
HETATM  130  C   UNK N   1      22.034  10.816   2.694  0.00  0.00     0.002 C 
HETATM  131  C   UNK N   1      22.840  11.705   3.619  0.00  0.00     0.005 C 
ENDBRANCH 128 130
ENDBRANCH 127 128
BRANCH 127 132
HETATM  132  C   UNK N   1      19.437  10.679   4.304  0.00  0.00     0.243 C 
HETATM  133  O   UNK N   1      19.930  10.835   5.408  0.00  0.00    -0.271 OA
HETATM  134  N   UNK N   1      18.646   9.576   4.079  0.00  0.00    -0.337 N 
HETATM  135  C   UNK N   1      17.963   9.294   2.856  0.00  0.00     0.127 C 
HETATM  136  C   UNK N   1      18.375   8.623   5.134  0.00  0.00     0.179 C 
HETATM  137  C   UNK N   1      17.269   7.961   3.072  0.00  0.00     0.022 C 
HETATM  138  C   UNK N   1      17.326   7.683   4.570  0.00  0.00     0.037 C 
BRANCH 136 139
HETATM  139  C   UNK N   1      19.592   7.848   5.555  0.00  0.00     0.241 C 
HETATM  140  O   UNK N   1      19.523   7.126   6.539  0.00  0.00    -0.271 OA
HETATM  141  N   UNK N   1      20.749   7.960   4.857  0.00  0.00    -0.346 N 
HETATM  142  H   UNK N   1      20.733   8.496   4.031  0.00  0.00     0.163 HD
BRANCH 141 143
HETATM  143  C   UNK N   1      22.001   7.352   5.238  0.00  0.00     0.177 C 
BRANCH 143 144
HETATM  144  C   UNK N   1      21.985   5.802   5.315  0.00  0.00     0.045 C 
BRANCH 144 145
HETATM  145  C   UNK N   1      23.288   5.182   4.797  0.00  0.00     0.112 C 
BRANCH 145 146
HETATM  146  C   UNK N   1      24.075   4.469   5.836  0.00  0.00     0.139 C 
HETATM  147  O   UNK N   1      25.088   3.872   5.514  0.00  0.00    -0.650 OA
BRANCH 146 148
HETATM  148  O   UNK N   1      23.627   4.402   7.103  0.00  0.00    -0.776 OA
HETATM  149  H   UNK N   1      24.067   4.425   7.930  0.00  0.00     0.167 HD
ENDBRANCH 146 148
ENDBRANCH 145 146
ENDBRANCH 144 145
ENDBRANCH 143 144
BRANCH 143 150
HETATM  150  C   UNK N   1      22.621   8.004   6.438  0.00  0.00     0.241 C 
HETATM  151  O   UNK N   1      23.068   7.332   7.357  0.00  0.00    -0.271 OA
HETATM  152  N   UNK N   1      22.896   9.311   6.346  0.00  0.00    -0.346 N 
HETATM  153  H   UNK N   1      22.268   9.901   5.868  0.00  0.00     0.163 HD
BRANCH 152 154
HETATM  154  C   UNK N   1      24.082   9.873   6.925  0.00  0.00     0.177 C 
BRANCH 154 155
HETATM  155  C   UNK N   1      23.811  11.296   7.453  0.00  0.00     0.045 C 
BRANCH 155 156
HETATM  156  C   UNK N   1      23.721  11.338   8.983  0.00  0.00     0.112 C 
BRANCH 156 157
HETATM  157  C   UNK N   1      23.799  12.716   9.542  0.00  0.00     0.139 C 
HETATM  158  O   UNK N   1      22.855  13.477   9.411  0.00  0.00    -0.650 OA
BRANCH 157 159
HETATM  159  O   UNK N   1      24.879  13.103  10.244  0.00  0.00    -0.776 OA
HETATM  160  H   UNK N   1      25.554  13.749  10.163  0.00  0.00     0.167 HD
ENDBRANCH 157 159
ENDBRANCH 156 157
ENDBRANCH 155 156
ENDBRANCH 154 155
BRANCH 154 161
HETATM  161  C   UNK N   1      25.048   9.957   5.777  0.00  0.00     0.241 C 
HETATM  162  O   UNK N   1      25.340  11.035   5.290  0.00  0.00    -0.271 OA
HETATM  163  N   UNK N   1      25.456   8.786   5.213  0.00  0.00    -0.346 N 
HETATM  164  H   UNK N   1      25.359   7.975   5.762  0.00  0.00     0.163 HD
BRANCH 163 165
HETATM  165  C   UNK N   1      26.014   8.609   3.900  0.00  0.00     0.180 C 
BRANCH 165 166
HETATM  166  C   UNK N   1      25.467   7.434   3.086  0.00  0.00     0.073 C 
BRANCH 166 167
HETATM  167  C   UNK N   1      24.703   7.823   1.874  0.00  0.00    -0.056 A 
HETATM  168  C   UNK N   1      25.333   8.543   0.856  0.00  0.00     0.010 A 
HETATM  169  C   UNK N   1      24.622   8.910  -0.285  0.00  0.00     0.037 A 
HETATM  170  C   UNK N   1      23.276   8.563  -0.409  0.00  0.00     0.065 A 
HETATM  171  C   UNK N   1      22.633   7.866   0.619  0.00  0.00     0.037 A 
HETATM  172  C   UNK N   1      23.345   7.502   1.766  0.00  0.00     0.010 A 
BRANCH 170 173
HETATM  173  O   UNK N   1      22.598   8.902  -1.517  0.00  0.00    -0.361 OA
HETATM  174  H   UNK N   1      21.933   9.554  -1.623  0.00  0.00     0.217 HD
ENDBRANCH 170 173
ENDBRANCH 166 167
ENDBRANCH 165 166
BRANCH 165 175
HETATM  175  C   UNK N   1      27.457   9.015   3.923  0.00  0.00     0.241 C 
HETATM  176  O   UNK N   1      28.286   8.192   4.280  0.00  0.00    -0.271 OA
HETATM  177  N   UNK N   1      27.842  10.176   3.337  0.00  0.00    -0.345 N 
HETATM  178  H   UNK N   1      27.150  10.859   3.179  0.00  0.00     0.163 HD
BRANCH 177 179
HETATM  179  C   UNK N   1      29.199  10.488   2.923  0.00  0.00     0.182 C 
BRANCH 179 180
HETATM  180  C   UNK N   1      29.204  10.891   1.447  0.00  0.00     0.040 C 
BRANCH 180 181
HETATM  181  C   UNK N   1      29.868   9.849   0.548  0.00  0.00    -0.020 C 
HETATM  182  C   UNK N   1      30.287   8.635   1.356  0.00  0.00     0.009 C 
HETATM  183  C   UNK N   1      28.892   9.402  -0.518  0.00  0.00     0.009 C 
ENDBRANCH 180 181
ENDBRANCH 179 180
BRANCH 179 184
HETATM  184  C   UNK N   1      29.956  11.478   3.775  0.00  0.00     0.163 C 
HETATM  185  O   UNK N   1      31.078  11.850   3.471  0.00  0.00    -0.648 OA
BRANCH 184 186
HETATM  186  O   UNK N   1      29.380  11.951   4.896  0.00  0.00    -0.775 OA
HETATM  187  H   UNK N   1      28.809  11.473   5.465  0.00  0.00     0.167 HD
ENDBRANCH 184 186
ENDBRANCH 179 184
ENDBRANCH 177 179
ENDBRANCH 165 175
ENDBRANCH 163 165
ENDBRANCH 154 161
ENDBRANCH 152 154
ENDBRANCH 143 150
ENDBRANCH 141 143
ENDBRANCH 136 139
ENDBRANCH 127 132
ENDBRANCH 125 127
ENDBRANCH 116 123
ENDBRANCH 114 116
ENDBRANCH 105 112
ENDBRANCH 103 105
ENDBRANCH   1 101
TORSDOF 74
ENDMDL
MODEL 5
REMARK VINA RESULT:      -6.3      2.758     11.703
REMARK WARNING: 32 MAX_TORS EXCEEDED!!!
REMARK  74 active torsions:
REMARK  status: ('A' for Active; 'I' for Inactive)
REMARK       I    between atoms: C_3  and  N_4 
REMARK       I    between atoms: C_3  and  N_5 
REMARK    1  A    between atoms: N_5  and  C_6 
REMARK    2  A    between atoms: C_6  and  C_7 
REMARK    3  A    between atoms: C_7  and  C_8 
REMARK    4  A    between atoms: C_8  and  C_9 
REMARK    5  A    between atoms: C_9  and  N_10 
REMARK    6  A    between atoms: C_9  and  C_29 
REMARK       I    between atoms: N_10  and  C_11 
REMARK    7  A    between atoms: C_13  and  C_11 
REMARK       I    between atoms: N_17  and  C_18 
REMARK    8  A    between atoms: C_18  and  C_20 
REMARK    9  A    between atoms: C_20  and  N_21 
REMARK   10  A    between atoms: C_20  and  C_22 
REMARK   11  A    between atoms: C_22  and  C_23 
REMARK       I    between atoms: C_29  and  N_31 
REMARK   12  A    between atoms: C_35  and  C_36 
REMARK       I    between atoms: C_36  and  N_38 
REMARK   13  A    between atoms: N_38  and  C_39 
REMARK   14  A    between atoms: C_39  and  C_40 
REMARK       I    between atoms: C_40  and  N_42 
REMARK   15  A    between atoms: N_42  and  C_43 
REMARK   16  A    between atoms: C_43  and  C_44 
REMARK       I    between atoms: C_44  and  N_46 
REMARK   17  A    between atoms: N_46  and  C_47 
REMARK   18  A    between atoms: C_47  and  C_48 
REMARK       I    between atoms: C_48  and  N_50 
REMARK   19  A    between atoms: N_50  and  C_51 
REMARK   20  A    between atoms: C_51  and  C_52 
REMARK       I    between atoms: C_52  and  N_54 
REMARK   21  A    between atoms: C_55  and  N_54 
REMARK   22  A    between atoms: C_55  and  C_56 
REMARK   23  A    between atoms: C_55  and  C_60 
REMARK   24  A    between atoms: C_56  and  C_57 
REMARK       I    between atoms: C_57  and  N_58 
REMARK       I    between atoms: C_60  and  N_62 
REMARK   25  A    between atoms: N_62  and  C_63 
REMARK   26  A    between atoms: C_63  and  C_64 
REMARK       I    between atoms: C_64  and  N_66 
REMARK   27  A    between atoms: C_67  and  N_66 
REMARK   28  A    between atoms: C_67  and  C_68 
REMARK   29  A    between atoms: C_67  and  C_72 
REMARK   30  A    between atoms: C_68  and  C_69 
REMARK   31  A    between atoms: C_69  and  O_70 
REMARK       I    between atoms: C_72  and  N_74 
REMARK   32  A    between atoms: C_75  and  N_74 
REMARK   33  A    between atoms: C_75  and  C_76 
REMARK   34  A    between atoms: C_75  and  C_83 
REMARK   35  A    between atoms: C_76  and  C_77 
REMARK       I    between atoms: C_83  and  N_85 
REMARK   36  A    between atoms: C_86  and  N_85 
REMARK   37  A    between atoms: C_86  and  C_87 
REMARK   38  A    between atoms: C_86  and  C_92 
REMARK   39  A    between atoms: C_87  and  C_88 
REMARK   40  A    between atoms: C_88  and  C_89 
REMARK   41  A    between atoms: C_89  and  O_90 
REMARK       I    between atoms: C_92  and  N_94 
REMARK   42  A    between atoms: C_95  and  N_94 
REMARK   43  A    between atoms: C_95  and  C_96 
REMARK   44  A    between atoms: C_95  and  C_101 
REMARK   45  A    between atoms: C_96  and  C_97 
REMARK   46  A    between atoms: C_97  and  C_98 
REMARK   47  A    between atoms: C_98  and  O_99 
REMARK       I    between atoms: C_101  and  N_103 
REMARK   48  A    between atoms: C_104  and  N_103 
REMARK   49  A    between atoms: C_104  and  C_105 
REMARK   50  A    between atoms: C_104  and  C_109 
REMARK   51  A    between atoms: C_105  and  C_107 
REMARK       I    between atoms: C_109  and  N_111 
REMARK   52  A    between atoms: C_115  and  C_116 
REMARK       I    between atoms: C_116  and  N_118 
REMARK   53  A    between atoms: C_119  and  N_118 
REMARK   54  A    between atoms: C_119  and  C_120 
REMARK   55  A    between atoms: C_119  and  C_125 
REMARK   56  A    between atoms: C_120  and  C_121 
REMARK   57  A    between atoms: C_121  and  C_122 
REMARK   58  A    between atoms: C_122  and  O_123 
REMARK       I    between atoms: C_125  and  N_127 
REMARK   59  A    between atoms: C_128  and  N_127 
REMARK   60  A    between atoms: C_128  and  C_129 
REMARK   61  A    between atoms: C_128  and  C_134 
REMARK   62  A    between atoms: C_129  and  C_130 
REMARK   63  A    between atoms: C_130  and  C_131 
REMARK   64  A    between atoms: C_131  and  O_132 
REMARK       I    between atoms: C_134  and  N_136 
REMARK   65  A    between atoms: C_137  and  N_136 
REMARK   66  A    between atoms: C_137  and  C_138 
REMARK   67  A    between atoms: C_137  and  C_146 
REMARK   68  A    between atoms: C_138  and  C_139 
REMARK   69  A    between atoms: C_142  and  O_143 
REMARK       I    between atoms: C_146  and  N_148 
REMARK   70  A    between atoms: C_149  and  N_148 
REMARK   71  A    between atoms: C_149  and  C_150 
REMARK   72  A    between atoms: C_149  and  C_154 
REMARK   73  A    between atoms: C_150  and  C_151 
REMARK   74  A    between atoms: C_154  and  O_155 
ROOT
HETATM    1  C   UNK N   1      34.879  12.359   7.966  0.00  0.00     0.180 C 
ENDROOT
BRANCH   1   2
HETATM    2  N   UNK N   1      36.041  12.790   8.645  0.00  0.00    -0.346 N 
HETATM    3  C   UNK N   1      36.820  12.016   9.421  0.00  0.00     0.241 C 
HETATM    4  O   UNK N   1      36.559  10.840   9.643  0.00  0.00    -0.271 OA
HETATM    5  H   UNK N   1      36.302  13.734   8.542  0.00  0.00     0.163 HD
BRANCH   3   6
HETATM    6  C   UNK N   1      37.893  12.708  10.141  0.00  0.00     0.186 C 
BRANCH   6   7
HETATM    7  N   UNK N   1      37.305  13.940  10.648  0.00  0.00    -0.346 N 
HETATM    8  C   UNK N   1      36.488  14.038  11.734  0.00  0.00     0.236 C 
HETATM    9  O   UNK N   1      35.951  15.108  11.966  0.00  0.00    -0.272 OA
HETATM   10  H   UNK N   1      37.516  14.771  10.165  0.00  0.00     0.163 HD
BRANCH   8  11
HETATM   11  C   UNK N   1      36.205  12.883  12.669  0.00  0.00     0.225 C 
BRANCH  11  12
HETATM   12  N   UNK N   1      35.064  12.068  12.292  0.00  0.00    -0.351 N 
HETATM   13  C   UNK N   1      34.628  10.958  12.954  0.00  0.00     0.241 C 
HETATM   14  O   UNK N   1      33.602  10.417  12.583  0.00  0.00    -0.271 OA
HETATM   15  H   UNK N   1      34.561  12.340  11.490  0.00  0.00     0.163 HD
BRANCH  13  16
HETATM   16  C   UNK N   1      35.297  10.448  14.196  0.00  0.00     0.185 C 
BRANCH  16  17
HETATM   17  N   UNK N   1      35.687   9.109  13.900  0.00  0.00    -0.346 N 
HETATM   18  C   UNK N   1      36.586   8.788  12.969  0.00  0.00     0.236 C 
HETATM   19  O   UNK N   1      37.409   9.604  12.582  0.00  0.00    -0.272 OA
HETATM   20  H   UNK N   1      35.269   8.379  14.413  0.00  0.00     0.163 HD
BRANCH  18  21
HETATM   21  C   UNK N   1      36.295   7.563  12.171  0.00  0.00     0.225 C 
BRANCH  21  22
HETATM   22  N   UNK N   1      36.039   7.916  10.769  0.00  0.00    -0.351 N 
HETATM   23  C   UNK N   1      34.859   7.964  10.052  0.00  0.00     0.235 C 
HETATM   24  O   UNK N   1      34.923   8.243   8.868  0.00  0.00    -0.272 OA
HETATM   25  H   UNK N   1      36.841   8.158  10.253  0.00  0.00     0.163 HD
BRANCH  23  26
HETATM   26  C   UNK N   1      33.463   7.699  10.594  0.00  0.00     0.225 C 
BRANCH  26  27
HETATM   27  N   UNK N   1      32.695   6.748   9.853  0.00  0.00    -0.351 N 
HETATM   28  C   UNK N   1      31.735   7.113   8.979  0.00  0.00     0.235 C 
HETATM   29  O   UNK N   1      31.036   6.245   8.488  0.00  0.00    -0.272 OA
HETATM   30  H   UNK N   1      32.874   5.789   9.984  0.00  0.00     0.163 HD
BRANCH  28  31
HETATM   31  C   UNK N   1      31.426   8.567   8.697  0.00  0.00     0.225 C 
BRANCH  31  32
HETATM   32  N   UNK N   1      32.212   8.922   7.557  0.00  0.00    -0.351 N 
HETATM   33  C   UNK N   1      31.628   9.226   6.389  0.00  0.00     0.235 C 
HETATM   34  O   UNK N   1      30.501   8.829   6.131  0.00  0.00    -0.272 OA
HETATM   35  H   UNK N   1      33.193   8.944   7.631  0.00  0.00     0.163 HD
BRANCH  33  36
HETATM   36  C   UNK N   1      32.124  10.448   5.735  0.00  0.00     0.225 C 
BRANCH  36  37
HETATM   37  N   UNK N   1      30.931  11.041   5.169  0.00  0.00    -0.351 N 
HETATM   38  C   UNK N   1      30.792  11.326   3.853  0.00  0.00     0.241 C 
HETATM   39  O   UNK N   1      31.643  10.974   3.046  0.00  0.00    -0.271 OA
HETATM   40  H   UNK N   1      30.182  11.249   5.772  0.00  0.00     0.163 HD
BRANCH  38  41
HETATM   41  C   UNK N   1      29.581  12.106   3.395  0.00  0.00     0.179 C 
HETATM   42  C   UNK N   1      29.903  13.046   2.243  0.00  0.00     0.037 C 
HETATM   43  C   UNK N   1      29.582  12.262   0.977  0.00  0.00     0.022 C 
HETATM   44  C   UNK N   1      28.585  11.196   1.405  0.00  0.00     0.127 C 
HETATM   45  N   UNK N   1      28.634  11.197   2.840  0.00  0.00    -0.337 N 
HETATM   46  C   UNK N   1      27.839  10.428   3.640  0.00  0.00     0.243 C 
HETATM   47  O   UNK N   1      27.890  10.551   4.853  0.00  0.00    -0.271 OA
BRANCH  46  48
HETATM   48  C   UNK N   1      26.906   9.406   3.070  0.00  0.00     0.176 C 
BRANCH  48  49
HETATM   49  C   UNK N   1      25.851  10.059   2.169  0.00  0.00     0.036 C 
BRANCH  49  50
HETATM   50  C   UNK N   1      24.522  10.274   2.890  0.00  0.00     0.023 C 
BRANCH  50  51
HETATM   51  C   UNK N   1      23.433   9.359   2.349  0.00  0.00     0.138 C 
BRANCH  51  52
HETATM   52  N   UNK N   1      23.700   8.974   0.981  0.00  0.00    -0.227 N 
HETATM   53  C   UNK N   1      22.739   8.262   0.215  0.00  0.00     0.665 C 
HETATM   54  N   UNK N   1      21.631   7.891   0.742  0.00  0.00    -0.235 N 
HETATM   55  N   UNK N   1      23.013   7.943  -1.133  0.00  0.00    -0.235 N 
HETATM   56  H   UNK N   1      20.955   8.018   1.445  0.00  0.00     0.174 HD
ATOM     57  HN  UNK N   1      21.302   7.107   0.177  1.00  0.00     0.174 HD
HETATM   58  H   UNK N   1      23.160   7.045  -1.507  0.00  0.00     0.174 HD
HETATM   59  H   UNK N   1      23.060   8.697  -1.764  0.00  0.00     0.174 HD
HETATM   60  H   UNK N   1      24.566   9.209   0.574  0.00  0.00     0.177 HD
ENDBRANCH  51  52
ENDBRANCH  50  51
ENDBRANCH  49  50
ENDBRANCH  48  49
BRANCH  48  61
HETATM   61  N   UNK N   1      27.671   8.416   2.357  0.00  0.00    -0.346 N 
HETATM   62  C   UNK N   1      27.374   7.097   2.413  0.00  0.00     0.241 C 
HETATM   63  O   UNK N   1      27.973   6.328   1.679  0.00  0.00    -0.271 OA
HETATM   64  H   UNK N   1      28.435   8.709   1.810  0.00  0.00     0.163 HD
BRANCH  62  65
HETATM   65  C   UNK N   1      26.332   6.557   3.380  0.00  0.00     0.179 C 
HETATM   66  C   UNK N   1      25.101   6.115   2.601  0.00  0.00     0.037 C 
HETATM   67  C   UNK N   1      25.168   4.586   2.493  0.00  0.00     0.022 C 
HETATM   68  C   UNK N   1      26.454   4.165   3.176  0.00  0.00     0.127 C 
HETATM   69  N   UNK N   1      26.836   5.320   3.922  0.00  0.00    -0.337 N 
HETATM   70  C   UNK N   1      27.452   5.216   5.124  0.00  0.00     0.243 C 
HETATM   71  O   UNK N   1      27.894   4.120   5.472  0.00  0.00    -0.271 OA
BRANCH  70  72
HETATM   72  C   UNK N   1      27.583   6.387   6.056  0.00  0.00     0.171 C 
BRANCH  72  73
HETATM   73  N   UNK N   1      28.929   6.446   6.580  0.00  0.00    -0.418 N 
HETATM   74  H   UNK N   1      29.794   6.119   6.147  0.00  0.00     0.150 HD
HETATM   75  H   UNK N   1      29.028   6.870   7.502  0.00  0.00     0.150 HD
ENDBRANCH  72  73
BRANCH  72  76
HETATM   76  C   UNK N   1      26.557   6.316   7.206  0.00  0.00     0.072 C 
BRANCH  76  77
HETATM   77  C   UNK N   1      25.178   6.716   6.768  0.00  0.00    -0.056 A 
HETATM   78  C   UNK N   1      24.916   8.061   6.476  0.00  0.00     0.007 A 
HETATM   79  C   UNK N   1      23.684   8.434   5.932  0.00  0.00     0.001 A 
HETATM   80  C   UNK N   1      22.708   7.463   5.684  0.00  0.00     0.000 A 
HETATM   81  C   UNK N   1      22.961   6.122   5.988  0.00  0.00     0.001 A 
HETATM   82  C   UNK N   1      24.199   5.746   6.520  0.00  0.00     0.007 A 
ENDBRANCH  76  77
ENDBRANCH  72  76
ENDBRANCH  70  72
ENDBRANCH  62  65
ENDBRANCH  48  61
ENDBRANCH  46  48
ENDBRANCH  38  41
ENDBRANCH  36  37
ENDBRANCH  33  36
ENDBRANCH  31  32
ENDBRANCH  28  31
ENDBRANCH  26  27
ENDBRANCH  23  26
ENDBRANCH  21  22
ENDBRANCH  18  21
ENDBRANCH  16  17
BRANCH  16  83
HETATM   83  C   UNK N   1      34.557  10.624  15.518  0.00  0.00     0.137 C 
BRANCH  83  84
HETATM   84  C   UNK N   1      34.703  12.024  16.041  0.00  0.00     0.217 C 
HETATM   85  N   UNK N   1      35.351  12.239  17.200  0.00  0.00    -0.370 N 
HETATM   86  H   UNK N   1      36.307  12.021  17.284  0.00  0.00     0.159 HD
HETATM   87  H   UNK N   1      34.865  12.618  17.968  0.00  0.00     0.159 HD
HETATM   88  O   UNK N   1      34.230  12.970  15.430  0.00  0.00    -0.274 OA
ENDBRANCH  83  84
ENDBRANCH  16  83
ENDBRANCH  13  16
ENDBRANCH  11  12
ENDBRANCH   8  11
ENDBRANCH   6   7
BRANCH   6  89
HETATM   89  C   UNK N   1      39.023  13.008   9.144  0.00  0.00     0.144 C 
BRANCH  89  90
HETATM   90  C   UNK N   1      39.913  11.842   8.810  0.00  0.00     0.141 C 
HETATM   91  O   UNK N   1      41.117  11.899   8.994  0.00  0.00    -0.650 OA
BRANCH  90  92
HETATM   92  O   UNK N   1      39.372  10.717   8.317  0.00  0.00    -0.776 OA
HETATM   93  H   UNK N   1      39.916  10.066   7.921  0.00  0.00     0.167 HD
ENDBRANCH  90  92
ENDBRANCH  89  90
ENDBRANCH   6  89
ENDBRANCH   3   6
ENDBRANCH   1   2
BRANCH   1  94
HETATM   94  C   UNK N   1      35.023  12.265   6.444  0.00  0.00     0.073 C 
BRANCH  94  95
HETATM   95  C   UNK N   1      36.390  12.728   5.985  0.00  0.00    -0.056 A 
HETATM   96  C   UNK N   1      37.365  11.785   5.648  0.00  0.00     0.007 A 
HETATM   97  C   UNK N   1      38.630  12.203   5.215  0.00  0.00     0.001 A 
HETATM   98  C   UNK N   1      38.925  13.566   5.110  0.00  0.00     0.000 A 
HETATM   99  C   UNK N   1      37.954  14.516   5.436  0.00  0.00     0.001 A 
HETATM  100  C   UNK N   1      36.693  14.098   5.870  0.00  0.00     0.007 A 
ENDBRANCH  94  95
ENDBRANCH   1  94
BRANCH   1 101
HETATM  101  C   UNK N   1      33.618  12.393   8.782  0.00  0.00     0.241 C 
HETATM  102  O   UNK N   1      33.334  11.451   9.504  0.00  0.00    -0.271 OA
HETATM  103  N   UNK N   1      32.726  13.392   8.608  0.00  0.00    -0.346 N 
HETATM  104  H   UNK N   1      31.806  13.267   8.938  0.00  0.00     0.163 HD
BRANCH 103 105
HETATM  105  C   UNK N   1      33.068  14.637   7.957  0.00  0.00     0.177 C 
BRANCH 105 106
HETATM  106  C   UNK N   1      33.252  15.829   8.932  0.00  0.00     0.045 C 
BRANCH 106 107
HETATM  107  C   UNK N   1      34.610  16.528   8.809  0.00  0.00     0.112 C 
BRANCH 107 108
HETATM  108  C   UNK N   1      34.560  17.747   7.923  0.00  0.00     0.139 C 
HETATM  109  O   UNK N   1      34.658  18.866   8.398  0.00  0.00    -0.650 OA
BRANCH 108 110
HETATM  110  O   UNK N   1      34.377  17.610   6.598  0.00  0.00    -0.776 OA
HETATM  111  H   UNK N   1      33.974  18.114   5.919  0.00  0.00     0.167 HD
ENDBRANCH 108 110
ENDBRANCH 107 108
ENDBRANCH 106 107
ENDBRANCH 105 106
BRANCH 105 112
HETATM  112  C   UNK N   1      32.053  14.854   6.872  0.00  0.00     0.241 C 
HETATM  113  O   UNK N   1      31.716  13.909   6.171  0.00  0.00    -0.271 OA
HETATM  114  N   UNK N   1      31.587  16.094   6.615  0.00  0.00    -0.346 N 
HETATM  115  H   UNK N   1      31.812  16.818   7.241  0.00  0.00     0.163 HD
BRANCH 114 116
HETATM  116  C   UNK N   1      30.778  16.406   5.468  0.00  0.00     0.177 C 
BRANCH 116 117
HETATM  117  C   UNK N   1      31.443  17.569   4.717  0.00  0.00     0.045 C 
BRANCH 117 118
HETATM  118  C   UNK N   1      31.943  17.107   3.337  0.00  0.00     0.112 C 
BRANCH 118 119
HETATM  119  C   UNK N   1      33.135  16.206   3.340  0.00  0.00     0.139 C 
HETATM  120  O   UNK N   1      33.551  15.776   2.282  0.00  0.00    -0.650 OA
BRANCH 119 121
HETATM  121  O   UNK N   1      33.818  15.954   4.471  0.00  0.00    -0.776 OA
HETATM  122  H   UNK N   1      34.437  15.252   4.498  0.00  0.00     0.167 HD
ENDBRANCH 119 121
ENDBRANCH 118 119
ENDBRANCH 117 118
ENDBRANCH 116 117
BRANCH 116 123
HETATM  123  C   UNK N   1      29.420  16.843   5.945  0.00  0.00     0.241 C 
HETATM  124  O   UNK N   1      29.204  16.916   7.146  0.00  0.00    -0.271 OA
HETATM  125  N   UNK N   1      28.449  17.174   5.061  0.00  0.00    -0.346 N 
HETATM  126  H   UNK N   1      28.618  17.038   4.101  0.00  0.00     0.163 HD
BRANCH 125 127
HETATM  127  C   UNK N   1      27.164  17.724   5.476  0.00  0.00     0.180 C 
BRANCH 127 128
HETATM  128  C   UNK N   1      27.004  19.246   5.203  0.00  0.00     0.013 C 
HETATM  129  C   UNK N   1      27.765  19.787   4.003  0.00  0.00     0.012 C 
BRANCH 128 130
HETATM  130  C   UNK N   1      27.381  20.078   6.417  0.00  0.00     0.002 C 
HETATM  131  C   UNK N   1      27.129  21.547   6.147  0.00  0.00     0.005 C 
ENDBRANCH 128 130
ENDBRANCH 127 128
BRANCH 127 132
HETATM  132  C   UNK N   1      26.043  16.725   5.162  0.00  0.00     0.243 C 
HETATM  133  O   UNK N   1      25.052  16.784   5.870  0.00  0.00    -0.271 OA
HETATM  134  N   UNK N   1      26.078  15.799   4.144  0.00  0.00    -0.337 N 
HETATM  135  C   UNK N   1      27.148  15.652   3.208  0.00  0.00     0.127 C 
HETATM  136  C   UNK N   1      24.955  14.922   3.893  0.00  0.00     0.179 C 
HETATM  137  C   UNK N   1      26.757  14.483   2.321  0.00  0.00     0.022 C 
HETATM  138  C   UNK N   1      25.284  14.206   2.596  0.00  0.00     0.037 C 
BRANCH 136 139
HETATM  139  C   UNK N   1      24.727  13.924   4.992  0.00  0.00     0.241 C 
HETATM  140  O   UNK N   1      25.455  12.946   5.066  0.00  0.00    -0.271 OA
HETATM  141  N   UNK N   1      23.720  14.107   5.882  0.00  0.00    -0.346 N 
HETATM  142  H   UNK N   1      23.209  14.947   5.826  0.00  0.00     0.163 HD
BRANCH 141 143
HETATM  143  C   UNK N   1      23.343  13.159   6.904  0.00  0.00     0.177 C 
BRANCH 143 144
HETATM  144  C   UNK N   1      24.512  12.635   7.779  0.00  0.00     0.045 C 
BRANCH 144 145
HETATM  145  C   UNK N   1      24.558  13.313   9.153  0.00  0.00     0.112 C 
BRANCH 145 146
HETATM  146  C   UNK N   1      24.373  12.383  10.296  0.00  0.00     0.139 C 
HETATM  147  O   UNK N   1      23.431  11.609  10.290  0.00  0.00    -0.650 OA
BRANCH 146 148
HETATM  148  O   UNK N   1      25.179  12.454  11.370  0.00  0.00    -0.776 OA
HETATM  149  H   UNK N   1      25.168  12.998  12.133  0.00  0.00     0.167 HD
ENDBRANCH 146 148
ENDBRANCH 145 146
ENDBRANCH 144 145
ENDBRANCH 143 144
BRANCH 143 150
HETATM  150  C   UNK N   1      22.450  12.072   6.384  0.00  0.00     0.241 C 
HETATM  151  O   UNK N   1      22.203  11.084   7.062  0.00  0.00    -0.271 OA
HETATM  152  N   UNK N   1      21.740  12.343   5.282  0.00  0.00    -0.346 N 
HETATM  153  H   UNK N   1      22.152  12.878   4.565  0.00  0.00     0.163 HD
BRANCH 152 154
HETATM  154  C   UNK N   1      20.394  11.874   5.119  0.00  0.00     0.177 C 
BRANCH 154 155
HETATM  155  C   UNK N   1      20.308  10.842   3.978  0.00  0.00     0.045 C 
BRANCH 155 156
HETATM  156  C   UNK N   1      19.806   9.478   4.467  0.00  0.00     0.112 C 
BRANCH 156 157
HETATM  157  C   UNK N   1      19.607   8.493   3.368  0.00  0.00     0.139 C 
HETATM  158  O   UNK N   1      19.055   8.838   2.337  0.00  0.00    -0.650 OA
BRANCH 157 159
HETATM  159  O   UNK N   1      20.089   7.242   3.484  0.00  0.00    -0.776 OA
HETATM  160  H   UNK N   1      20.816   6.755   3.149  0.00  0.00     0.167 HD
ENDBRANCH 157 159
ENDBRANCH 156 157
ENDBRANCH 155 156
ENDBRANCH 154 155
BRANCH 154 161
HETATM  161  C   UNK N   1      19.623  13.102   4.723  0.00  0.00     0.241 C 
HETATM  162  O   UNK N   1      18.426  13.178   4.939  0.00  0.00    -0.271 OA
HETATM  163  N   UNK N   1      20.276  14.043   3.987  0.00  0.00    -0.346 N 
HETATM  164  H   UNK N   1      21.259  14.028   4.024  0.00  0.00     0.163 HD
BRANCH 163 165
HETATM  165  C   UNK N   1      19.681  15.058   3.161  0.00  0.00     0.180 C 
BRANCH 165 166
HETATM  166  C   UNK N   1      19.588  14.744   1.666  0.00  0.00     0.073 C 
BRANCH 166 167
HETATM  167  C   UNK N   1      20.705  13.920   1.136  0.00  0.00    -0.056 A 
HETATM  168  C   UNK N   1      21.948  14.509   0.893  0.00  0.00     0.010 A 
HETATM  169  C   UNK N   1      23.001  13.741   0.398  0.00  0.00     0.037 A 
HETATM  170  C   UNK N   1      22.811  12.383   0.138  0.00  0.00     0.065 A 
HETATM  171  C   UNK N   1      21.560  11.795   0.355  0.00  0.00     0.037 A 
HETATM  172  C   UNK N   1      20.503  12.566   0.847  0.00  0.00     0.010 A 
BRANCH 170 173
HETATM  173  O   UNK N   1      23.831  11.642  -0.322  0.00  0.00    -0.361 OA
HETATM  174  H   UNK N   1      24.738  11.680  -0.087  0.00  0.00     0.217 HD
ENDBRANCH 170 173
ENDBRANCH 166 167
ENDBRANCH 165 166
BRANCH 165 175
HETATM  175  C   UNK N   1      20.030  16.407   3.715  0.00  0.00     0.241 C 
HETATM  176  O   UNK N   1      19.182  17.009   4.355  0.00  0.00    -0.271 OA
HETATM  177  N   UNK N   1      21.321  16.826   3.708  0.00  0.00    -0.345 N 
HETATM  178  H   UNK N   1      21.940  16.384   3.083  0.00  0.00     0.163 HD
BRANCH 177 179
HETATM  179  C   UNK N   1      21.857  17.879   4.554  0.00  0.00     0.182 C 
BRANCH 179 180
HETATM  180  C   UNK N   1      21.261  19.225   4.135  0.00  0.00     0.040 C 
BRANCH 180 181
HETATM  181  C   UNK N   1      21.831  19.740   2.813  0.00  0.00    -0.020 C 
HETATM  182  C   UNK N   1      20.936  20.817   2.229  0.00  0.00     0.009 C 
HETATM  183  C   UNK N   1      23.203  20.332   3.048  0.00  0.00     0.009 C 
ENDBRANCH 180 181
ENDBRANCH 179 180
BRANCH 179 184
HETATM  184  C   UNK N   1      21.758  17.665   6.045  0.00  0.00     0.163 C 
HETATM  185  O   UNK N   1      21.305  18.527   6.781  0.00  0.00    -0.648 OA
BRANCH 184 186
HETATM  186  O   UNK N   1      22.188  16.501   6.569  0.00  0.00    -0.775 OA
HETATM  187  H   UNK N   1      21.733  15.683   6.538  0.00  0.00     0.167 HD
ENDBRANCH 184 186
ENDBRANCH 179 184
ENDBRANCH 177 179
ENDBRANCH 165 175
ENDBRANCH 163 165
ENDBRANCH 154 161
ENDBRANCH 152 154
ENDBRANCH 143 150
ENDBRANCH 141 143
ENDBRANCH 136 139
ENDBRANCH 127 132
ENDBRANCH 125 127
ENDBRANCH 116 123
ENDBRANCH 114 116
ENDBRANCH 105 112
ENDBRANCH 103 105
ENDBRANCH   1 101
TORSDOF 74
ENDMDL
MODEL 6
REMARK VINA RESULT:      -6.3      5.046     14.931
REMARK WARNING: 32 MAX_TORS EXCEEDED!!!
REMARK  74 active torsions:
REMARK  status: ('A' for Active; 'I' for Inactive)
REMARK       I    between atoms: C_3  and  N_4 
REMARK       I    between atoms: C_3  and  N_5 
REMARK    1  A    between atoms: N_5  and  C_6 
REMARK    2  A    between atoms: C_6  and  C_7 
REMARK    3  A    between atoms: C_7  and  C_8 
REMARK    4  A    between atoms: C_8  and  C_9 
REMARK    5  A    between atoms: C_9  and  N_10 
REMARK    6  A    between atoms: C_9  and  C_29 
REMARK       I    between atoms: N_10  and  C_11 
REMARK    7  A    between atoms: C_13  and  C_11 
REMARK       I    between atoms: N_17  and  C_18 
REMARK    8  A    between atoms: C_18  and  C_20 
REMARK    9  A    between atoms: C_20  and  N_21 
REMARK   10  A    between atoms: C_20  and  C_22 
REMARK   11  A    between atoms: C_22  and  C_23 
REMARK       I    between atoms: C_29  and  N_31 
REMARK   12  A    between atoms: C_35  and  C_36 
REMARK       I    between atoms: C_36  and  N_38 
REMARK   13  A    between atoms: N_38  and  C_39 
REMARK   14  A    between atoms: C_39  and  C_40 
REMARK       I    between atoms: C_40  and  N_42 
REMARK   15  A    between atoms: N_42  and  C_43 
REMARK   16  A    between atoms: C_43  and  C_44 
REMARK       I    between atoms: C_44  and  N_46 
REMARK   17  A    between atoms: N_46  and  C_47 
REMARK   18  A    between atoms: C_47  and  C_48 
REMARK       I    between atoms: C_48  and  N_50 
REMARK   19  A    between atoms: N_50  and  C_51 
REMARK   20  A    between atoms: C_51  and  C_52 
REMARK       I    between atoms: C_52  and  N_54 
REMARK   21  A    between atoms: C_55  and  N_54 
REMARK   22  A    between atoms: C_55  and  C_56 
REMARK   23  A    between atoms: C_55  and  C_60 
REMARK   24  A    between atoms: C_56  and  C_57 
REMARK       I    between atoms: C_57  and  N_58 
REMARK       I    between atoms: C_60  and  N_62 
REMARK   25  A    between atoms: N_62  and  C_63 
REMARK   26  A    between atoms: C_63  and  C_64 
REMARK       I    between atoms: C_64  and  N_66 
REMARK   27  A    between atoms: C_67  and  N_66 
REMARK   28  A    between atoms: C_67  and  C_68 
REMARK   29  A    between atoms: C_67  and  C_72 
REMARK   30  A    between atoms: C_68  and  C_69 
REMARK   31  A    between atoms: C_69  and  O_70 
REMARK       I    between atoms: C_72  and  N_74 
REMARK   32  A    between atoms: C_75  and  N_74 
REMARK   33  A    between atoms: C_75  and  C_76 
REMARK   34  A    between atoms: C_75  and  C_83 
REMARK   35  A    between atoms: C_76  and  C_77 
REMARK       I    between atoms: C_83  and  N_85 
REMARK   36  A    between atoms: C_86  and  N_85 
REMARK   37  A    between atoms: C_86  and  C_87 
REMARK   38  A    between atoms: C_86  and  C_92 
REMARK   39  A    between atoms: C_87  and  C_88 
REMARK   40  A    between atoms: C_88  and  C_89 
REMARK   41  A    between atoms: C_89  and  O_90 
REMARK       I    between atoms: C_92  and  N_94 
REMARK   42  A    between atoms: C_95  and  N_94 
REMARK   43  A    between atoms: C_95  and  C_96 
REMARK   44  A    between atoms: C_95  and  C_101 
REMARK   45  A    between atoms: C_96  and  C_97 
REMARK   46  A    between atoms: C_97  and  C_98 
REMARK   47  A    between atoms: C_98  and  O_99 
REMARK       I    between atoms: C_101  and  N_103 
REMARK   48  A    between atoms: C_104  and  N_103 
REMARK   49  A    between atoms: C_104  and  C_105 
REMARK   50  A    between atoms: C_104  and  C_109 
REMARK   51  A    between atoms: C_105  and  C_107 
REMARK       I    between atoms: C_109  and  N_111 
REMARK   52  A    between atoms: C_115  and  C_116 
REMARK       I    between atoms: C_116  and  N_118 
REMARK   53  A    between atoms: C_119  and  N_118 
REMARK   54  A    between atoms: C_119  and  C_120 
REMARK   55  A    between atoms: C_119  and  C_125 
REMARK   56  A    between atoms: C_120  and  C_121 
REMARK   57  A    between atoms: C_121  and  C_122 
REMARK   58  A    between atoms: C_122  and  O_123 
REMARK       I    between atoms: C_125  and  N_127 
REMARK   59  A    between atoms: C_128  and  N_127 
REMARK   60  A    between atoms: C_128  and  C_129 
REMARK   61  A    between atoms: C_128  and  C_134 
REMARK   62  A    between atoms: C_129  and  C_130 
REMARK   63  A    between atoms: C_130  and  C_131 
REMARK   64  A    between atoms: C_131  and  O_132 
REMARK       I    between atoms: C_134  and  N_136 
REMARK   65  A    between atoms: C_137  and  N_136 
REMARK   66  A    between atoms: C_137  and  C_138 
REMARK   67  A    between atoms: C_137  and  C_146 
REMARK   68  A    between atoms: C_138  and  C_139 
REMARK   69  A    between atoms: C_142  and  O_143 
REMARK       I    between atoms: C_146  and  N_148 
REMARK   70  A    between atoms: C_149  and  N_148 
REMARK   71  A    between atoms: C_149  and  C_150 
REMARK   72  A    between atoms: C_149  and  C_154 
REMARK   73  A    between atoms: C_150  and  C_151 
REMARK   74  A    between atoms: C_154  and  O_155 
ROOT
HETATM    1  C   UNK N   1      34.474  12.629   5.670  0.00  0.00     0.180 C 
ENDROOT
BRANCH   1   2
HETATM    2  N   UNK N   1      35.172  12.961   6.853  0.00  0.00    -0.346 N 
HETATM    3  C   UNK N   1      34.870  13.983   7.673  0.00  0.00     0.241 C 
HETATM    4  O   UNK N   1      33.954  14.762   7.436  0.00  0.00    -0.271 OA
HETATM    5  H   UNK N   1      35.943  12.400   7.097  0.00  0.00     0.163 HD
BRANCH   3   6
HETATM    6  C   UNK N   1      35.816  14.228   8.765  0.00  0.00     0.186 C 
BRANCH   6   7
HETATM    7  N   UNK N   1      36.190  12.916   9.272  0.00  0.00    -0.346 N 
HETATM    8  C   UNK N   1      37.465  12.450   9.397  0.00  0.00     0.236 C 
HETATM    9  O   UNK N   1      37.633  11.282   9.702  0.00  0.00    -0.272 OA
HETATM   10  H   UNK N   1      35.462  12.315   9.548  0.00  0.00     0.163 HD
BRANCH   8  11
HETATM   11  C   UNK N   1      38.690  13.308   9.170  0.00  0.00     0.225 C 
BRANCH  11  12
HETATM   12  N   UNK N   1      39.940  12.572   9.113  0.00  0.00    -0.351 N 
HETATM   13  C   UNK N   1      40.564  12.154   7.975  0.00  0.00     0.241 C 
HETATM   14  O   UNK N   1      41.656  11.622   8.063  0.00  0.00    -0.271 OA
HETATM   15  H   UNK N   1      40.375  12.355   9.970  0.00  0.00     0.163 HD
BRANCH  13  16
HETATM   16  C   UNK N   1      40.013  12.432   6.607  0.00  0.00     0.185 C 
BRANCH  16  17
HETATM   17  N   UNK N   1      39.981  11.170   5.942  0.00  0.00    -0.346 N 
HETATM   18  C   UNK N   1      38.969  10.308   6.038  0.00  0.00     0.236 C 
HETATM   19  O   UNK N   1      37.854  10.682   6.371  0.00  0.00    -0.272 OA
HETATM   20  H   UNK N   1      40.752  10.922   5.380  0.00  0.00     0.163 HD
BRANCH  18  21
HETATM   21  C   UNK N   1      39.341   8.866   6.104  0.00  0.00     0.225 C 
BRANCH  21  22
HETATM   22  N   UNK N   1      40.448   8.667   7.046  0.00  0.00    -0.351 N 
HETATM   23  C   UNK N   1      40.443   8.404   8.402  0.00  0.00     0.235 C 
HETATM   24  O   UNK N   1      41.517   8.331   8.972  0.00  0.00    -0.272 OA
HETATM   25  H   UNK N   1      41.346   8.734   6.646  0.00  0.00     0.163 HD
BRANCH  23  26
HETATM   26  C   UNK N   1      39.215   8.192   9.275  0.00  0.00     0.225 C 
BRANCH  26  27
HETATM   27  N   UNK N   1      39.306   8.739  10.592  0.00  0.00    -0.351 N 
HETATM   28  C   UNK N   1      38.288   8.683  11.473  0.00  0.00     0.235 C 
HETATM   29  O   UNK N   1      38.396   9.288  12.526  0.00  0.00    -0.272 OA
HETATM   30  H   UNK N   1      40.146   9.173  10.868  0.00  0.00     0.163 HD
BRANCH  28  31
HETATM   31  C   UNK N   1      36.980   8.001  11.136  0.00  0.00     0.225 C 
BRANCH  31  32
HETATM   32  N   UNK N   1      36.035   9.050  10.915  0.00  0.00    -0.351 N 
HETATM   33  C   UNK N   1      35.216   9.454  11.897  0.00  0.00     0.235 C 
HETATM   34  O   UNK N   1      34.951   8.715  12.834  0.00  0.00    -0.272 OA
HETATM   35  H   UNK N   1      35.985   9.482  10.032  0.00  0.00     0.163 HD
BRANCH  33  36
HETATM   36  C   UNK N   1      35.129  10.911  12.087  0.00  0.00     0.225 C 
BRANCH  36  37
HETATM   37  N   UNK N   1      35.720  11.122  13.391  0.00  0.00    -0.351 N 
HETATM   38  C   UNK N   1      35.633  12.290  14.070  0.00  0.00     0.241 C 
HETATM   39  O   UNK N   1      34.932  13.202  13.651  0.00  0.00    -0.271 OA
HETATM   40  H   UNK N   1      36.210  10.377  13.807  0.00  0.00     0.163 HD
BRANCH  38  41
HETATM   41  C   UNK N   1      36.434  12.461  15.340  0.00  0.00     0.179 C 
HETATM   42  C   UNK N   1      36.008  13.691  16.128  0.00  0.00     0.037 C 
HETATM   43  C   UNK N   1      34.972  13.194  17.129  0.00  0.00     0.022 C 
HETATM   44  C   UNK N   1      35.253  11.708  17.294  0.00  0.00     0.127 C 
HETATM   45  N   UNK N   1      36.141  11.376  16.216  0.00  0.00    -0.337 N 
HETATM   46  C   UNK N   1      36.699  10.144  16.028  0.00  0.00     0.243 C 
HETATM   47  O   UNK N   1      37.508   9.971  15.131  0.00  0.00    -0.271 OA
BRANCH  46  48
HETATM   48  C   UNK N   1      36.330   8.976  16.886  0.00  0.00     0.176 C 
BRANCH  48  49
HETATM   49  C   UNK N   1      35.669   7.866  16.058  0.00  0.00     0.036 C 
BRANCH  49  50
HETATM   50  C   UNK N   1      36.692   6.954  15.384  0.00  0.00     0.023 C 
BRANCH  50  51
HETATM   51  C   UNK N   1      36.062   5.649  14.919  0.00  0.00     0.138 C 
BRANCH  51  52
HETATM   52  N   UNK N   1      35.254   5.846  13.737  0.00  0.00    -0.227 N 
HETATM   53  C   UNK N   1      35.403   5.014  12.595  0.00  0.00     0.665 C 
HETATM   54  N   UNK N   1      36.306   4.103  12.566  0.00  0.00    -0.235 N 
HETATM   55  N   UNK N   1      34.566   5.203  11.474  0.00  0.00    -0.235 N 
HETATM   56  H   UNK N   1      36.904   3.502  13.065  0.00  0.00     0.174 HD
ATOM     57  HN  UNK N   1      36.486   3.920  11.578  1.00  0.00     0.174 HD
HETATM   58  H   UNK N   1      34.836   5.528  10.586  0.00  0.00     0.174 HD
HETATM   59  H   UNK N   1      33.613   4.985  11.594  0.00  0.00     0.174 HD
HETATM   60  H   UNK N   1      34.588   6.571  13.723  0.00  0.00     0.177 HD
ENDBRANCH  51  52
ENDBRANCH  50  51
ENDBRANCH  49  50
ENDBRANCH  48  49
BRANCH  48  61
HETATM   61  N   UNK N   1      37.507   8.498  17.564  0.00  0.00    -0.346 N 
HETATM   62  C   UNK N   1      37.438   7.780  18.709  0.00  0.00     0.241 C 
HETATM   63  O   UNK N   1      38.461   7.289  19.157  0.00  0.00    -0.271 OA
HETATM   64  H   UNK N   1      38.391   8.701  17.182  0.00  0.00     0.163 HD
BRANCH  62  65
HETATM   65  C   UNK N   1      36.124   7.592  19.451  0.00  0.00     0.179 C 
HETATM   66  C   UNK N   1      35.755   6.115  19.458  0.00  0.00     0.037 C 
HETATM   67  C   UNK N   1      36.122   5.570  20.845  0.00  0.00     0.022 C 
HETATM   68  C   UNK N   1      36.733   6.728  21.610  0.00  0.00     0.127 C 
HETATM   69  N   UNK N   1      36.364   7.873  20.844  0.00  0.00    -0.337 N 
HETATM   70  C   UNK N   1      36.088   9.062  21.434  0.00  0.00     0.243 C 
HETATM   71  O   UNK N   1      36.381   9.217  22.620  0.00  0.00    -0.271 OA
BRANCH  70  72
HETATM   72  C   UNK N   1      35.409  10.179  20.694  0.00  0.00     0.171 C 
BRANCH  72  73
HETATM   73  N   UNK N   1      36.204  11.383  20.792  0.00  0.00    -0.418 N 
HETATM   74  H   UNK N   1      36.000  12.237  21.313  0.00  0.00     0.150 HD
HETATM   75  H   UNK N   1      37.082  11.379  20.274  0.00  0.00     0.150 HD
ENDBRANCH  72  73
BRANCH  72  76
HETATM   76  C   UNK N   1      33.982  10.428  21.226  0.00  0.00     0.072 C 
BRANCH  76  77
HETATM   77  C   UNK N   1      33.111   9.210  21.116  0.00  0.00    -0.056 A 
HETATM   78  C   UNK N   1      32.598   8.629  22.283  0.00  0.00     0.007 A 
HETATM   79  C   UNK N   1      31.675   7.583  22.199  0.00  0.00     0.001 A 
HETATM   80  C   UNK N   1      31.266   7.112  20.948  0.00  0.00     0.000 A 
HETATM   81  C   UNK N   1      31.788   7.680  19.781  0.00  0.00     0.001 A 
HETATM   82  C   UNK N   1      32.702   8.734  19.864  0.00  0.00     0.007 A 
ENDBRANCH  76  77
ENDBRANCH  72  76
ENDBRANCH  70  72
ENDBRANCH  62  65
ENDBRANCH  48  61
ENDBRANCH  46  48
ENDBRANCH  38  41
ENDBRANCH  36  37
ENDBRANCH  33  36
ENDBRANCH  31  32
ENDBRANCH  28  31
ENDBRANCH  26  27
ENDBRANCH  23  26
ENDBRANCH  21  22
ENDBRANCH  18  21
ENDBRANCH  16  17
BRANCH  16  83
HETATM   83  C   UNK N   1      40.649  13.563   5.807  0.00  0.00     0.137 C 
BRANCH  83  84
HETATM   84  C   UNK N   1      39.622  14.301   4.997  0.00  0.00     0.217 C 
HETATM   85  N   UNK N   1      39.183  13.775   3.839  0.00  0.00    -0.370 N 
HETATM   86  H   UNK N   1      38.694  12.921   3.834  0.00  0.00     0.159 HD
HETATM   87  H   UNK N   1      39.353  14.248   2.992  0.00  0.00     0.159 HD
HETATM   88  O   UNK N   1      39.188  15.379   5.372  0.00  0.00    -0.274 OA
ENDBRANCH  83  84
ENDBRANCH  16  83
ENDBRANCH  13  16
ENDBRANCH  11  12
ENDBRANCH   8  11
ENDBRANCH   6   7
BRANCH   6  89
HETATM   89  C   UNK N   1      35.097  15.050   9.846  0.00  0.00     0.144 C 
BRANCH  89  90
HETATM   90  C   UNK N   1      35.998  15.783  10.802  0.00  0.00     0.141 C 
HETATM   91  O   UNK N   1      36.111  16.996  10.752  0.00  0.00    -0.650 OA
BRANCH  90  92
HETATM   92  O   UNK N   1      36.674  15.094  11.734  0.00  0.00    -0.776 OA
HETATM   93  H   UNK N   1      37.575  15.284  11.901  0.00  0.00     0.167 HD
ENDBRANCH  90  92
ENDBRANCH  89  90
ENDBRANCH   6  89
ENDBRANCH   3   6
ENDBRANCH   1   2
BRANCH   1  94
HETATM   94  C   UNK N   1      33.581  11.389   5.779  0.00  0.00     0.073 C 
BRANCH  94  95
HETATM   95  C   UNK N   1      34.396  10.112   5.760  0.00  0.00    -0.056 A 
HETATM   96  C   UNK N   1      34.561   9.377   6.937  0.00  0.00     0.007 A 
HETATM   97  C   UNK N   1      35.306   8.191   6.929  0.00  0.00     0.001 A 
HETATM   98  C   UNK N   1      35.886   7.731   5.741  0.00  0.00     0.000 A 
HETATM   99  C   UNK N   1      35.721   8.455   4.559  0.00  0.00     0.001 A 
HETATM  100  C   UNK N   1      34.977   9.639   4.569  0.00  0.00     0.007 A 
ENDBRANCH  94  95
ENDBRANCH   1  94
BRANCH   1 101
HETATM  101  C   UNK N   1      34.968  13.314   4.428  0.00  0.00     0.241 C 
HETATM  102  O   UNK N   1      36.112  13.130   4.044  0.00  0.00    -0.271 OA
HETATM  103  N   UNK N   1      34.203  14.246   3.819  0.00  0.00    -0.346 N 
HETATM  104  H   UNK N   1      34.629  14.867   3.185  0.00  0.00     0.163 HD
BRANCH 103 105
HETATM  105  C   UNK N   1      32.783  14.367   4.063  0.00  0.00     0.177 C 
BRANCH 105 106
HETATM  106  C   UNK N   1      31.899  13.999   2.842  0.00  0.00     0.045 C 
BRANCH 106 107
HETATM  107  C   UNK N   1      30.404  13.904   3.164  0.00  0.00     0.112 C 
BRANCH 107 108
HETATM  108  C   UNK N   1      29.616  15.070   2.625  0.00  0.00     0.139 C 
HETATM  109  O   UNK N   1      30.041  16.209   2.728  0.00  0.00    -0.650 OA
BRANCH 108 110
HETATM  110  O   UNK N   1      28.418  14.866   2.051  0.00  0.00    -0.776 OA
HETATM  111  H   UNK N   1      27.568  14.602   2.343  0.00  0.00     0.167 HD
ENDBRANCH 108 110
ENDBRANCH 107 108
ENDBRANCH 106 107
ENDBRANCH 105 106
BRANCH 105 112
HETATM  112  C   UNK N   1      32.552  15.741   4.623  0.00  0.00     0.241 C 
HETATM  113  O   UNK N   1      33.231  16.675   4.215  0.00  0.00    -0.271 OA
HETATM  114  N   UNK N   1      31.670  15.928   5.627  0.00  0.00    -0.346 N 
HETATM  115  H   UNK N   1      31.083  15.180   5.880  0.00  0.00     0.163 HD
BRANCH 114 116
HETATM  116  C   UNK N   1      31.549  17.167   6.345  0.00  0.00     0.177 C 
BRANCH 116 117
HETATM  117  C   UNK N   1      32.011  16.928   7.790  0.00  0.00     0.045 C 
BRANCH 117 118
HETATM  118  C   UNK N   1      32.818  18.133   8.306  0.00  0.00     0.112 C 
BRANCH 118 119
HETATM  119  C   UNK N   1      34.216  18.253   7.793  0.00  0.00     0.139 C 
HETATM  120  O   UNK N   1      34.991  18.997   8.362  0.00  0.00    -0.650 OA
BRANCH 119 121
HETATM  121  O   UNK N   1      34.662  17.476   6.789  0.00  0.00    -0.776 OA
HETATM  122  H   UNK N   1      35.337  17.787   6.220  0.00  0.00     0.167 HD
ENDBRANCH 119 121
ENDBRANCH 118 119
ENDBRANCH 117 118
ENDBRANCH 116 117
BRANCH 116 123
HETATM  123  C   UNK N   1      30.102  17.576   6.354  0.00  0.00     0.241 C 
HETATM  124  O   UNK N   1      29.545  17.776   7.424  0.00  0.00    -0.271 OA
HETATM  125  N   UNK N   1      29.422  17.743   5.195  0.00  0.00    -0.346 N 
HETATM  126  H   UNK N   1      29.866  17.505   4.349  0.00  0.00     0.163 HD
BRANCH 125 127
HETATM  127  C   UNK N   1      28.060  18.260   5.152  0.00  0.00     0.180 C 
BRANCH 127 128
HETATM  128  C   UNK N   1      27.959  19.757   4.745  0.00  0.00     0.013 C 
HETATM  129  C   UNK N   1      27.788  20.744   5.889  0.00  0.00     0.012 C 
BRANCH 128 130
HETATM  130  C   UNK N   1      26.842  19.995   3.744  0.00  0.00     0.002 C 
HETATM  131  C   UNK N   1      25.641  20.612   4.431  0.00  0.00     0.005 C 
ENDBRANCH 128 130
ENDBRANCH 127 128
BRANCH 127 132
HETATM  132  C   UNK N   1      27.117  17.200   4.569  0.00  0.00     0.243 C 
HETATM  133  O   UNK N   1      26.985  17.200   3.357  0.00  0.00    -0.271 OA
HETATM  134  N   UNK N   1      26.440  16.259   5.310  0.00  0.00    -0.337 N 
HETATM  135  C   UNK N   1      26.539  16.106   6.728  0.00  0.00     0.127 C 
HETATM  136  C   UNK N   1      25.602  15.266   4.672  0.00  0.00     0.179 C 
HETATM  137  C   UNK N   1      25.581  14.984   7.087  0.00  0.00     0.022 C 
HETATM  138  C   UNK N   1      25.200  14.305   5.776  0.00  0.00     0.037 C 
BRANCH 136 139
HETATM  139  C   UNK N   1      24.380  15.852   4.025  0.00  0.00     0.241 C 
HETATM  140  O   UNK N   1      24.173  15.634   2.840  0.00  0.00    -0.271 OA
HETATM  141  N   UNK N   1      23.526  16.619   4.747  0.00  0.00    -0.346 N 
HETATM  142  H   UNK N   1      23.695  16.703   5.714  0.00  0.00     0.163 HD
BRANCH 141 143
HETATM  143  C   UNK N   1      22.388  17.320   4.202  0.00  0.00     0.177 C 
BRANCH 143 144
HETATM  144  C   UNK N   1      22.670  18.774   3.739  0.00  0.00     0.045 C 
BRANCH 144 145
HETATM  145  C   UNK N   1      21.634  19.270   2.723  0.00  0.00     0.112 C 
BRANCH 145 146
HETATM  146  C   UNK N   1      21.735  20.719   2.413  0.00  0.00     0.139 C 
HETATM  147  O   UNK N   1      20.858  21.253   1.756  0.00  0.00    -0.650 OA
BRANCH 146 148
HETATM  148  O   UNK N   1      22.828  21.418   2.771  0.00  0.00    -0.776 OA
HETATM  149  H   UNK N   1      23.638  21.163   3.168  0.00  0.00     0.167 HD
ENDBRANCH 146 148
ENDBRANCH 145 146
ENDBRANCH 144 145
ENDBRANCH 143 144
BRANCH 143 150
HETATM  150  C   UNK N   1      21.164  17.192   5.059  0.00  0.00     0.241 C 
HETATM  151  O   UNK N   1      20.044  17.267   4.571  0.00  0.00    -0.271 OA
HETATM  152  N   UNK N   1      21.339  16.739   6.306  0.00  0.00    -0.346 N 
HETATM  153  H   UNK N   1      22.136  17.023   6.812  0.00  0.00     0.163 HD
BRANCH 152 154
HETATM  154  C   UNK N   1      20.398  15.851   6.925  0.00  0.00     0.177 C 
BRANCH 154 155
HETATM  155  C   UNK N   1      20.759  15.614   8.404  0.00  0.00     0.045 C 
BRANCH 155 156
HETATM  156  C   UNK N   1      19.518  15.559   9.303  0.00  0.00     0.112 C 
BRANCH 156 157
HETATM  157  C   UNK N   1      18.599  16.716   9.114  0.00  0.00     0.139 C 
HETATM  158  O   UNK N   1      19.003  17.849   9.315  0.00  0.00    -0.650 OA
BRANCH 157 159
HETATM  159  O   UNK N   1      17.347  16.521   8.663  0.00  0.00    -0.776 OA
HETATM  160  H   UNK N   1      16.912  15.926   8.085  0.00  0.00     0.167 HD
ENDBRANCH 157 159
ENDBRANCH 156 157
ENDBRANCH 155 156
ENDBRANCH 154 155
BRANCH 154 161
HETATM  161  C   UNK N   1      20.561  14.561   6.172  0.00  0.00     0.241 C 
HETATM  162  O   UNK N   1      19.605  14.036   5.628  0.00  0.00    -0.271 OA
HETATM  163  N   UNK N   1      21.767  13.934   6.253  0.00  0.00    -0.346 N 
HETATM  164  H   UNK N   1      22.535  14.489   6.520  0.00  0.00     0.163 HD
BRANCH 163 165
HETATM  165  C   UNK N   1      22.038  12.547   5.990  0.00  0.00     0.180 C 
BRANCH 165 166
HETATM  166  C   UNK N   1      23.228  11.938   6.736  0.00  0.00     0.073 C 
BRANCH 166 167
HETATM  167  C   UNK N   1      23.158  12.060   8.215  0.00  0.00    -0.056 A 
HETATM  168  C   UNK N   1      24.330  12.002   8.974  0.00  0.00     0.010 A 
HETATM  169  C   UNK N   1      24.272  12.118  10.361  0.00  0.00     0.037 A 
HETATM  170  C   UNK N   1      23.040  12.285  10.996  0.00  0.00     0.065 A 
HETATM  171  C   UNK N   1      21.861  12.316  10.243  0.00  0.00     0.037 A 
HETATM  172  C   UNK N   1      21.919  12.195   8.851  0.00  0.00     0.010 A 
BRANCH 170 173
HETATM  173  O   UNK N   1      22.989  12.413  12.331  0.00  0.00    -0.361 OA
HETATM  174  H   UNK N   1      22.284  12.212  12.914  0.00  0.00     0.217 HD
ENDBRANCH 170 173
ENDBRANCH 166 167
ENDBRANCH 165 166
BRANCH 165 175
HETATM  175  C   UNK N   1      21.701  12.246   4.561  0.00  0.00     0.241 C 
HETATM  176  O   UNK N   1      20.963  11.302   4.325  0.00  0.00    -0.271 OA
HETATM  177  N   UNK N   1      22.012  13.141   3.589  0.00  0.00    -0.345 N 
HETATM  178  H   UNK N   1      22.704  13.811   3.793  0.00  0.00     0.163 HD
BRANCH 177 179
HETATM  179  C   UNK N   1      21.399  13.185   2.273  0.00  0.00     0.182 C 
BRANCH 179 180
HETATM  180  C   UNK N   1      21.343  14.634   1.783  0.00  0.00     0.040 C 
BRANCH 180 181
HETATM  181  C   UNK N   1      19.915  15.165   1.662  0.00  0.00    -0.020 C 
HETATM  182  C   UNK N   1      19.910  16.545   1.032  0.00  0.00     0.009 C 
HETATM  183  C   UNK N   1      19.099  14.237   0.791  0.00  0.00     0.009 C 
ENDBRANCH 180 181
ENDBRANCH 179 180
BRANCH 179 184
HETATM  184  C   UNK N   1      21.978  12.264   1.226  0.00  0.00     0.163 C 
HETATM  185  O   UNK N   1      23.140  12.362   0.866  0.00  0.00    -0.648 OA
BRANCH 184 186
HETATM  186  O   UNK N   1      21.189  11.321   0.676  0.00  0.00    -0.775 OA
HETATM  187  H   UNK N   1      21.479  10.526   0.274  0.00  0.00     0.167 HD
ENDBRANCH 184 186
ENDBRANCH 179 184
ENDBRANCH 177 179
ENDBRANCH 165 175
ENDBRANCH 163 165
ENDBRANCH 154 161
ENDBRANCH 152 154
ENDBRANCH 143 150
ENDBRANCH 141 143
ENDBRANCH 136 139
ENDBRANCH 127 132
ENDBRANCH 125 127
ENDBRANCH 116 123
ENDBRANCH 114 116
ENDBRANCH 105 112
ENDBRANCH 103 105
ENDBRANCH   1 101
TORSDOF 74
ENDMDL
MODEL 7
REMARK VINA RESULT:      -6.2      2.780     11.990
REMARK WARNING: 32 MAX_TORS EXCEEDED!!!
REMARK  74 active torsions:
REMARK  status: ('A' for Active; 'I' for Inactive)
REMARK       I    between atoms: C_3  and  N_4 
REMARK       I    between atoms: C_3  and  N_5 
REMARK    1  A    between atoms: N_5  and  C_6 
REMARK    2  A    between atoms: C_6  and  C_7 
REMARK    3  A    between atoms: C_7  and  C_8 
REMARK    4  A    between atoms: C_8  and  C_9 
REMARK    5  A    between atoms: C_9  and  N_10 
REMARK    6  A    between atoms: C_9  and  C_29 
REMARK       I    between atoms: N_10  and  C_11 
REMARK    7  A    between atoms: C_13  and  C_11 
REMARK       I    between atoms: N_17  and  C_18 
REMARK    8  A    between atoms: C_18  and  C_20 
REMARK    9  A    between atoms: C_20  and  N_21 
REMARK   10  A    between atoms: C_20  and  C_22 
REMARK   11  A    between atoms: C_22  and  C_23 
REMARK       I    between atoms: C_29  and  N_31 
REMARK   12  A    between atoms: C_35  and  C_36 
REMARK       I    between atoms: C_36  and  N_38 
REMARK   13  A    between atoms: N_38  and  C_39 
REMARK   14  A    between atoms: C_39  and  C_40 
REMARK       I    between atoms: C_40  and  N_42 
REMARK   15  A    between atoms: N_42  and  C_43 
REMARK   16  A    between atoms: C_43  and  C_44 
REMARK       I    between atoms: C_44  and  N_46 
REMARK   17  A    between atoms: N_46  and  C_47 
REMARK   18  A    between atoms: C_47  and  C_48 
REMARK       I    between atoms: C_48  and  N_50 
REMARK   19  A    between atoms: N_50  and  C_51 
REMARK   20  A    between atoms: C_51  and  C_52 
REMARK       I    between atoms: C_52  and  N_54 
REMARK   21  A    between atoms: C_55  and  N_54 
REMARK   22  A    between atoms: C_55  and  C_56 
REMARK   23  A    between atoms: C_55  and  C_60 
REMARK   24  A    between atoms: C_56  and  C_57 
REMARK       I    between atoms: C_57  and  N_58 
REMARK       I    between atoms: C_60  and  N_62 
REMARK   25  A    between atoms: N_62  and  C_63 
REMARK   26  A    between atoms: C_63  and  C_64 
REMARK       I    between atoms: C_64  and  N_66 
REMARK   27  A    between atoms: C_67  and  N_66 
REMARK   28  A    between atoms: C_67  and  C_68 
REMARK   29  A    between atoms: C_67  and  C_72 
REMARK   30  A    between atoms: C_68  and  C_69 
REMARK   31  A    between atoms: C_69  and  O_70 
REMARK       I    between atoms: C_72  and  N_74 
REMARK   32  A    between atoms: C_75  and  N_74 
REMARK   33  A    between atoms: C_75  and  C_76 
REMARK   34  A    between atoms: C_75  and  C_83 
REMARK   35  A    between atoms: C_76  and  C_77 
REMARK       I    between atoms: C_83  and  N_85 
REMARK   36  A    between atoms: C_86  and  N_85 
REMARK   37  A    between atoms: C_86  and  C_87 
REMARK   38  A    between atoms: C_86  and  C_92 
REMARK   39  A    between atoms: C_87  and  C_88 
REMARK   40  A    between atoms: C_88  and  C_89 
REMARK   41  A    between atoms: C_89  and  O_90 
REMARK       I    between atoms: C_92  and  N_94 
REMARK   42  A    between atoms: C_95  and  N_94 
REMARK   43  A    between atoms: C_95  and  C_96 
REMARK   44  A    between atoms: C_95  and  C_101 
REMARK   45  A    between atoms: C_96  and  C_97 
REMARK   46  A    between atoms: C_97  and  C_98 
REMARK   47  A    between atoms: C_98  and  O_99 
REMARK       I    between atoms: C_101  and  N_103 
REMARK   48  A    between atoms: C_104  and  N_103 
REMARK   49  A    between atoms: C_104  and  C_105 
REMARK   50  A    between atoms: C_104  and  C_109 
REMARK   51  A    between atoms: C_105  and  C_107 
REMARK       I    between atoms: C_109  and  N_111 
REMARK   52  A    between atoms: C_115  and  C_116 
REMARK       I    between atoms: C_116  and  N_118 
REMARK   53  A    between atoms: C_119  and  N_118 
REMARK   54  A    between atoms: C_119  and  C_120 
REMARK   55  A    between atoms: C_119  and  C_125 
REMARK   56  A    between atoms: C_120  and  C_121 
REMARK   57  A    between atoms: C_121  and  C_122 
REMARK   58  A    between atoms: C_122  and  O_123 
REMARK       I    between atoms: C_125  and  N_127 
REMARK   59  A    between atoms: C_128  and  N_127 
REMARK   60  A    between atoms: C_128  and  C_129 
REMARK   61  A    between atoms: C_128  and  C_134 
REMARK   62  A    between atoms: C_129  and  C_130 
REMARK   63  A    between atoms: C_130  and  C_131 
REMARK   64  A    between atoms: C_131  and  O_132 
REMARK       I    between atoms: C_134  and  N_136 
REMARK   65  A    between atoms: C_137  and  N_136 
REMARK   66  A    between atoms: C_137  and  C_138 
REMARK   67  A    between atoms: C_137  and  C_146 
REMARK   68  A    between atoms: C_138  and  C_139 
REMARK   69  A    between atoms: C_142  and  O_143 
REMARK       I    between atoms: C_146  and  N_148 
REMARK   70  A    between atoms: C_149  and  N_148 
REMARK   71  A    between atoms: C_149  and  C_150 
REMARK   72  A    between atoms: C_149  and  C_154 
REMARK   73  A    between atoms: C_150  and  C_151 
REMARK   74  A    between atoms: C_154  and  O_155 
ROOT
HETATM    1  C   UNK N   1      34.651  13.052   7.782  0.00  0.00     0.180 C 
ENDROOT
BRANCH   1   2
HETATM    2  N   UNK N   1      35.706  13.651   8.505  0.00  0.00    -0.346 N 
HETATM    3  C   UNK N   1      36.538  13.008   9.343  0.00  0.00     0.241 C 
HETATM    4  O   UNK N   1      36.425  11.812   9.587  0.00  0.00    -0.271 OA
HETATM    5  H   UNK N   1      35.844  14.619   8.387  0.00  0.00     0.163 HD
BRANCH   3   6
HETATM    6  C   UNK N   1      37.469  13.854  10.095  0.00  0.00     0.186 C 
BRANCH   6   7
HETATM    7  N   UNK N   1      36.725  15.058  10.439  0.00  0.00    -0.346 N 
HETATM    8  C   UNK N   1      36.032  15.255  11.596  0.00  0.00     0.236 C 
HETATM    9  O   UNK N   1      35.337  16.251  11.697  0.00  0.00    -0.272 OA
HETATM   10  H   UNK N   1      36.724  15.790   9.782  0.00  0.00     0.163 HD
BRANCH   8  11
HETATM   11  C   UNK N   1      36.074  14.295  12.765  0.00  0.00     0.225 C 
BRANCH  11  12
HETATM   12  N   UNK N   1      35.080  13.238  12.713  0.00  0.00    -0.351 N 
HETATM   13  C   UNK N   1      35.159  12.042  13.362  0.00  0.00     0.241 C 
HETATM   14  O   UNK N   1      34.213  11.277  13.304  0.00  0.00    -0.271 OA
HETATM   15  H   UNK N   1      34.280  13.399  12.161  0.00  0.00     0.163 HD
BRANCH  13  16
HETATM   16  C   UNK N   1      36.318  11.680  14.244  0.00  0.00     0.185 C 
BRANCH  16  17
HETATM   17  N   UNK N   1      36.591  10.306  13.975  0.00  0.00    -0.346 N 
HETATM   18  C   UNK N   1      37.237   9.878  12.890  0.00  0.00     0.236 C 
HETATM   19  O   UNK N   1      37.968  10.626  12.257  0.00  0.00    -0.272 OA
HETATM   20  H   UNK N   1      36.286   9.636  14.629  0.00  0.00     0.163 HD
BRANCH  18  21
HETATM   21  C   UNK N   1      36.733   8.613  12.284  0.00  0.00     0.225 C 
BRANCH  21  22
HETATM   22  N   UNK N   1      36.370   8.830  10.878  0.00  0.00    -0.351 N 
HETATM   23  C   UNK N   1      35.139   8.812  10.252  0.00  0.00     0.235 C 
HETATM   24  O   UNK N   1      35.112   8.975   9.045  0.00  0.00    -0.272 OA
HETATM   25  H   UNK N   1      37.130   9.017  10.281  0.00  0.00     0.163 HD
BRANCH  23  26
HETATM   26  C   UNK N   1      33.789   8.607  10.921  0.00  0.00     0.225 C 
BRANCH  26  27
HETATM   27  N   UNK N   1      33.077   7.439  10.504  0.00  0.00    -0.351 N 
HETATM   28  C   UNK N   1      32.048   7.490   9.634  0.00  0.00     0.235 C 
HETATM   29  O   UNK N   1      31.408   6.473   9.431  0.00  0.00    -0.272 OA
HETATM   30  H   UNK N   1      33.348   6.565  10.865  0.00  0.00     0.163 HD
BRANCH  28  31
HETATM   31  C   UNK N   1      31.597   8.791   9.009  0.00  0.00     0.225 C 
BRANCH  31  32
HETATM   32  N   UNK N   1      32.346   8.928   7.800  0.00  0.00    -0.351 N 
HETATM   33  C   UNK N   1      31.750   9.316   6.663  0.00  0.00     0.235 C 
HETATM   34  O   UNK N   1      30.547   9.167   6.505  0.00  0.00    -0.272 OA
HETATM   35  H   UNK N   1      33.312   8.736   7.801  0.00  0.00     0.163 HD
BRANCH  33  36
HETATM   36  C   UNK N   1      32.445  10.376   5.916  0.00  0.00     0.225 C 
BRANCH  36  37
HETATM   37  N   UNK N   1      31.379  11.044   5.198  0.00  0.00    -0.351 N 
HETATM   38  C   UNK N   1      31.402  11.264   3.863  0.00  0.00     0.241 C 
HETATM   39  O   UNK N   1      32.293  10.789   3.169  0.00  0.00    -0.271 OA
HETATM   40  H   UNK N   1      30.596  11.353   5.708  0.00  0.00     0.163 HD
BRANCH  38  41
HETATM   41  C   UNK N   1      30.326  12.125   3.242  0.00  0.00     0.179 C 
HETATM   42  C   UNK N   1      30.792  12.793   1.957  0.00  0.00     0.037 C 
HETATM   43  C   UNK N   1      30.362  11.858   0.834  0.00  0.00     0.022 C 
HETATM   44  C   UNK N   1      29.213  11.042   1.406  0.00  0.00     0.127 C 
HETATM   45  N   UNK N   1      29.254  11.284   2.821  0.00  0.00    -0.337 N 
HETATM   46  C   UNK N   1      28.348  10.791   3.715  0.00  0.00     0.243 C 
HETATM   47  O   UNK N   1      28.412  11.113   4.890  0.00  0.00    -0.271 OA
BRANCH  46  48
HETATM   48  C   UNK N   1      27.274   9.837   3.299  0.00  0.00     0.176 C 
BRANCH  48  49
HETATM   49  C   UNK N   1      26.406   9.423   4.494  0.00  0.00     0.036 C 
BRANCH  49  50
HETATM   50  C   UNK N   1      26.377   7.910   4.696  0.00  0.00     0.023 C 
BRANCH  50  51
HETATM   51  C   UNK N   1      27.710   7.385   5.211  0.00  0.00     0.138 C 
BRANCH  51  52
HETATM   52  N   UNK N   1      27.554   6.106   5.868  0.00  0.00    -0.227 N 
HETATM   53  C   UNK N   1      28.349   5.752   6.990  0.00  0.00     0.665 C 
HETATM   54  N   UNK N   1      29.270   6.539   7.410  0.00  0.00    -0.235 N 
HETATM   55  N   UNK N   1      28.139   4.515   7.637  0.00  0.00    -0.235 N 
HETATM   56  H   UNK N   1      29.630   7.454   7.461  0.00  0.00     0.174 HD
ATOM     57  HN  UNK N   1      29.928   5.951   7.923  1.00  0.00     0.174 HD
HETATM   58  H   UNK N   1      28.756   3.749   7.657  0.00  0.00     0.174 HD
HETATM   59  H   UNK N   1      27.288   4.409   8.120  0.00  0.00     0.174 HD
HETATM   60  H   UNK N   1      26.884   5.469   5.529  0.00  0.00     0.177 HD
ENDBRANCH  51  52
ENDBRANCH  50  51
ENDBRANCH  49  50
ENDBRANCH  48  49
BRANCH  48  61
HETATM   61  N   UNK N   1      26.485  10.441   2.257  0.00  0.00    -0.346 N 
HETATM   62  C   UNK N   1      26.022   9.732   1.201  0.00  0.00     0.241 C 
HETATM   63  O   UNK N   1      25.246  10.270   0.427  0.00  0.00    -0.271 OA
HETATM   64  H   UNK N   1      26.276  11.401   2.314  0.00  0.00     0.163 HD
BRANCH  62  65
HETATM   65  C   UNK N   1      26.461   8.298   0.951  0.00  0.00     0.179 C 
HETATM   66  C   UNK N   1      25.385   7.346   1.454  0.00  0.00     0.037 C 
HETATM   67  C   UNK N   1      24.603   6.866   0.224  0.00  0.00     0.022 C 
HETATM   68  C   UNK N   1      25.211   7.576  -0.971  0.00  0.00     0.127 C 
HETATM   69  N   UNK N   1      26.450   8.077  -0.473  0.00  0.00    -0.337 N 
HETATM   70  C   UNK N   1      27.553   8.150  -1.257  0.00  0.00     0.243 C 
HETATM   71  O   UNK N   1      27.427   7.997  -2.473  0.00  0.00    -0.271 OA
BRANCH  70  72
HETATM   72  C   UNK N   1      28.923   8.378  -0.686  0.00  0.00     0.171 C 
BRANCH  72  73
HETATM   73  N   UNK N   1      29.759   9.033  -1.668  0.00  0.00    -0.418 N 
HETATM   74  H   UNK N   1      30.280   9.905  -1.577  0.00  0.00     0.150 HD
HETATM   75  H   UNK N   1      29.839   8.561  -2.568  0.00  0.00     0.150 HD
ENDBRANCH  72  73
BRANCH  72  76
HETATM   76  C   UNK N   1      29.571   7.058  -0.218  0.00  0.00     0.072 C 
BRANCH  76  77
HETATM   77  C   UNK N   1      30.499   7.258   0.945  0.00  0.00    -0.056 A 
HETATM   78  C   UNK N   1      29.961   7.525   2.210  0.00  0.00     0.007 A 
HETATM   79  C   UNK N   1      30.795   7.574   3.331  0.00  0.00     0.001 A 
HETATM   80  C   UNK N   1      32.170   7.362   3.188  0.00  0.00     0.000 A 
HETATM   81  C   UNK N   1      32.712   7.111   1.923  0.00  0.00     0.001 A 
HETATM   82  C   UNK N   1      31.877   7.048   0.803  0.00  0.00     0.007 A 
ENDBRANCH  76  77
ENDBRANCH  72  76
ENDBRANCH  70  72
ENDBRANCH  62  65
ENDBRANCH  48  61
ENDBRANCH  46  48
ENDBRANCH  38  41
ENDBRANCH  36  37
ENDBRANCH  33  36
ENDBRANCH  31  32
ENDBRANCH  28  31
ENDBRANCH  26  27
ENDBRANCH  23  26
ENDBRANCH  21  22
ENDBRANCH  18  21
ENDBRANCH  16  17
BRANCH  16  83
HETATM   83  C   UNK N   1      36.216  12.037  15.723  0.00  0.00     0.137 C 
BRANCH  83  84
HETATM   84  C   UNK N   1      36.051  10.807  16.569  0.00  0.00     0.217 C 
HETATM   85  N   UNK N   1      34.865  10.552  17.150  0.00  0.00    -0.370 N 
HETATM   86  H   UNK N   1      34.068  10.380  16.599  0.00  0.00     0.159 HD
HETATM   87  H   UNK N   1      34.795  10.537  18.132  0.00  0.00     0.159 HD
HETATM   88  O   UNK N   1      36.986  10.041  16.745  0.00  0.00    -0.274 OA
ENDBRANCH  83  84
ENDBRANCH  16  83
ENDBRANCH  13  16
ENDBRANCH  11  12
ENDBRANCH   8  11
ENDBRANCH   6   7
BRANCH   6  89
HETATM   89  C   UNK N   1      38.659  14.187   9.181  0.00  0.00     0.144 C 
BRANCH  89  90
HETATM   90  C   UNK N   1      39.498  13.010   8.763  0.00  0.00     0.141 C 
HETATM   91  O   UNK N   1      39.677  12.068   9.517  0.00  0.00    -0.650 OA
BRANCH  90  92
HETATM   92  O   UNK N   1      40.045  12.990   7.538  0.00  0.00    -0.776 OA
HETATM   93  H   UNK N   1      40.936  12.727   7.423  0.00  0.00     0.167 HD
ENDBRANCH  90  92
ENDBRANCH  89  90
ENDBRANCH   6  89
ENDBRANCH   3   6
ENDBRANCH   1   2
BRANCH   1  94
HETATM   94  C   UNK N   1      34.819  13.078   6.260  0.00  0.00     0.073 C 
BRANCH  94  95
HETATM   95  C   UNK N   1      36.052  12.313   5.824  0.00  0.00    -0.056 A 
HETATM   96  C   UNK N   1      37.080  12.980   5.152  0.00  0.00     0.007 A 
HETATM   97  C   UNK N   1      38.227  12.283   4.751  0.00  0.00     0.001 A 
HETATM   98  C   UNK N   1      38.355  10.917   5.024  0.00  0.00     0.000 A 
HETATM   99  C   UNK N   1      37.336  10.244   5.702  0.00  0.00     0.001 A 
HETATM  100  C   UNK N   1      36.191  10.940   6.101  0.00  0.00     0.007 A 
ENDBRANCH  94  95
ENDBRANCH   1  94
BRANCH   1 101
HETATM  101  C   UNK N   1      33.400  12.799   8.576  0.00  0.00     0.241 C 
HETATM  102  O   UNK N   1      33.287  11.770   9.224  0.00  0.00    -0.271 OA
HETATM  103  N   UNK N   1      32.344  13.631   8.458  0.00  0.00    -0.346 N 
HETATM  104  H   UNK N   1      31.460  13.320   8.762  0.00  0.00     0.163 HD
BRANCH 103 105
HETATM  105  C   UNK N   1      32.459  14.962   7.904  0.00  0.00     0.177 C 
BRANCH 105 106
HETATM  106  C   UNK N   1      32.280  16.098   8.945  0.00  0.00     0.045 C 
BRANCH 106 107
HETATM  107  C   UNK N   1      32.962  17.413   8.553  0.00  0.00     0.112 C 
BRANCH 107 108
HETATM  108  C   UNK N   1      34.293  17.201   7.877  0.00  0.00     0.139 C 
HETATM  109  O   UNK N   1      35.179  16.573   8.432  0.00  0.00    -0.650 OA
BRANCH 108 110
HETATM  110  O   UNK N   1      34.523  17.730   6.663  0.00  0.00    -0.776 OA
HETATM  111  H   UNK N   1      34.653  17.397   5.797  0.00  0.00     0.167 HD
ENDBRANCH 108 110
ENDBRANCH 107 108
ENDBRANCH 106 107
ENDBRANCH 105 106
BRANCH 105 112
HETATM  112  C   UNK N   1      31.527  15.026   6.728  0.00  0.00     0.241 C 
HETATM  113  O   UNK N   1      31.289  14.003   6.098  0.00  0.00    -0.271 OA
HETATM  114  N   UNK N   1      31.031  16.211   6.317  0.00  0.00    -0.346 N 
HETATM  115  H   UNK N   1      31.173  17.001   6.885  0.00  0.00     0.163 HD
BRANCH 114 116
HETATM  116  C   UNK N   1      30.305  16.374   5.086  0.00  0.00     0.177 C 
BRANCH 116 117
HETATM  117  C   UNK N   1      31.076  17.369   4.206  0.00  0.00     0.045 C 
BRANCH 117 118
HETATM  118  C   UNK N   1      31.727  16.645   3.014  0.00  0.00     0.112 C 
BRANCH 118 119
HETATM  119  C   UNK N   1      33.109  16.126   3.239  0.00  0.00     0.139 C 
HETATM  120  O   UNK N   1      33.609  16.237   4.342  0.00  0.00    -0.650 OA
BRANCH 119 121
HETATM  121  O   UNK N   1      33.765  15.444   2.283  0.00  0.00    -0.776 OA
HETATM  122  H   UNK N   1      34.699  15.376   2.312  0.00  0.00     0.167 HD
ENDBRANCH 119 121
ENDBRANCH 118 119
ENDBRANCH 117 118
ENDBRANCH 116 117
BRANCH 116 123
HETATM  123  C   UNK N   1      28.951  16.946   5.402  0.00  0.00     0.241 C 
HETATM  124  O   UNK N   1      28.638  17.130   6.569  0.00  0.00    -0.271 OA
HETATM  125  N   UNK N   1      28.089  17.274   4.410  0.00  0.00    -0.346 N 
HETATM  126  H   UNK N   1      28.330  17.049   3.482  0.00  0.00     0.163 HD
BRANCH 125 127
HETATM  127  C   UNK N   1      26.821  17.948   4.662  0.00  0.00     0.180 C 
BRANCH 127 128
HETATM  128  C   UNK N   1      26.739  19.389   4.085  0.00  0.00     0.013 C 
HETATM  129  C   UNK N   1      27.499  20.456   4.857  0.00  0.00     0.012 C 
BRANCH 128 130
HETATM  130  C   UNK N   1      25.301  19.851   3.928  0.00  0.00     0.002 C 
HETATM  131  C   UNK N   1      25.094  20.476   2.563  0.00  0.00     0.005 C 
ENDBRANCH 128 130
ENDBRANCH 127 128
BRANCH 127 132
HETATM  132  C   UNK N   1      25.663  16.952   4.517  0.00  0.00     0.243 C 
HETATM  133  O   UNK N   1      24.877  16.899   5.447  0.00  0.00    -0.271 OA
HETATM  134  N   UNK N   1      25.453  16.146   3.421  0.00  0.00    -0.337 N 
HETATM  135  C   UNK N   1      26.260  16.141   2.242  0.00  0.00     0.127 C 
HETATM  136  C   UNK N   1      24.308  15.265   3.351  0.00  0.00     0.179 C 
HETATM  137  C   UNK N   1      25.671  15.065   1.347  0.00  0.00     0.022 C 
HETATM  138  C   UNK N   1      24.312  14.708   1.939  0.00  0.00     0.037 C 
BRANCH 136 139
HETATM  139  C   UNK N   1      24.363  14.144   4.350  0.00  0.00     0.241 C 
HETATM  140  O   UNK N   1      25.112  13.201   4.143  0.00  0.00    -0.271 OA
HETATM  141  N   UNK N   1      23.583  14.179   5.459  0.00  0.00    -0.346 N 
HETATM  142  H   UNK N   1      23.053  14.993   5.619  0.00  0.00     0.163 HD
BRANCH 141 143
HETATM  143  C   UNK N   1      23.475  13.109   6.422  0.00  0.00     0.177 C 
BRANCH 143 144
HETATM  144  C   UNK N   1      24.789  12.758   7.169  0.00  0.00     0.045 C 
BRANCH 144 145
HETATM  145  C   UNK N   1      25.045  13.688   8.361  0.00  0.00     0.112 C 
BRANCH 145 146
HETATM  146  C   UNK N   1      24.945  13.019   9.683  0.00  0.00     0.139 C 
HETATM  147  O   UNK N   1      24.080  12.179   9.865  0.00  0.00    -0.650 OA
BRANCH 146 148
HETATM  148  O   UNK N   1      25.738  13.399  10.701  0.00  0.00    -0.776 OA
HETATM  149  H   UNK N   1      25.620  13.389  11.631  0.00  0.00     0.167 HD
ENDBRANCH 146 148
ENDBRANCH 145 146
ENDBRANCH 144 145
ENDBRANCH 143 144
BRANCH 143 150
HETATM  150  C   UNK N   1      22.759  11.909   5.877  0.00  0.00     0.241 C 
HETATM  151  O   UNK N   1      22.635  10.893   6.546  0.00  0.00    -0.271 OA
HETATM  152  N   UNK N   1      22.049  12.083   4.756  0.00  0.00    -0.346 N 
HETATM  153  H   UNK N   1      22.401  12.675   4.051  0.00  0.00     0.163 HD
BRANCH 152 154
HETATM  154  C   UNK N   1      20.787  11.430   4.554  0.00  0.00     0.177 C 
BRANCH 154 155
HETATM  155  C   UNK N   1      20.717  10.795   3.152  0.00  0.00     0.045 C 
BRANCH 155 156
HETATM  156  C   UNK N   1      21.046   9.297   3.177  0.00  0.00     0.112 C 
BRANCH 156 157
HETATM  157  C   UNK N   1      22.459   9.008   3.547  0.00  0.00     0.139 C 
HETATM  158  O   UNK N   1      23.357   9.702   3.100  0.00  0.00    -0.650 OA
BRANCH 157 159
HETATM  159  O   UNK N   1      22.744   8.025   4.420  0.00  0.00    -0.776 OA
HETATM  160  H   UNK N   1      22.265   7.454   4.988  0.00  0.00     0.167 HD
ENDBRANCH 157 159
ENDBRANCH 156 157
ENDBRANCH 155 156
ENDBRANCH 154 155
BRANCH 154 161
HETATM  161  C   UNK N   1      19.780  12.543   4.634  0.00  0.00     0.241 C 
HETATM  162  O   UNK N   1      18.589  12.309   4.528  0.00  0.00    -0.271 OA
HETATM  163  N   UNK N   1      20.256  13.818   4.676  0.00  0.00    -0.346 N 
HETATM  164  H   UNK N   1      21.190  13.931   4.963  0.00  0.00     0.163 HD
BRANCH 163 165
HETATM  165  C   UNK N   1      19.537  15.018   4.343  0.00  0.00     0.180 C 
BRANCH 165 166
HETATM  166  C   UNK N   1      19.876  15.657   2.994  0.00  0.00     0.073 C 
BRANCH 166 167
HETATM  167  C   UNK N   1      20.225  17.099   3.062  0.00  0.00    -0.056 A 
HETATM  168  C   UNK N   1      21.500  17.488   3.482  0.00  0.00     0.010 A 
HETATM  169  C   UNK N   1      21.833  18.839   3.546  0.00  0.00     0.037 A 
HETATM  170  C   UNK N   1      20.890  19.807   3.198  0.00  0.00     0.065 A 
HETATM  171  C   UNK N   1      19.604  19.424   2.803  0.00  0.00     0.037 A 
HETATM  172  C   UNK N   1      19.268  18.068   2.743  0.00  0.00     0.010 A 
BRANCH 170 173
HETATM  173  O   UNK N   1      21.220  21.107   3.244  0.00  0.00    -0.361 OA
HETATM  174  H   UNK N   1      21.747  21.558   3.875  0.00  0.00     0.217 HD
ENDBRANCH 170 173
ENDBRANCH 166 167
ENDBRANCH 165 166
BRANCH 165 175
HETATM  175  C   UNK N   1      19.278  15.796   5.598  0.00  0.00     0.241 C 
HETATM  176  O   UNK N   1      18.119  16.018   5.915  0.00  0.00    -0.271 OA
HETATM  177  N   UNK N   1      20.291  16.029   6.471  0.00  0.00    -0.345 N 
HETATM  178  H   UNK N   1      21.212  15.952   6.131  0.00  0.00     0.163 HD
BRANCH 177 179
HETATM  179  C   UNK N   1      20.118  16.383   7.869  0.00  0.00     0.182 C 
BRANCH 179 180
HETATM  180  C   UNK N   1      21.222  15.729   8.702  0.00  0.00     0.040 C 
BRANCH 180 181
HETATM  181  C   UNK N   1      20.722  14.542   9.525  0.00  0.00    -0.020 C 
HETATM  182  C   UNK N   1      19.238  14.679   9.814  0.00  0.00     0.009 C 
HETATM  183  C   UNK N   1      20.944  13.259   8.755  0.00  0.00     0.009 C 
ENDBRANCH 180 181
ENDBRANCH 179 180
BRANCH 179 184
HETATM  184  C   UNK N   1      19.979  17.853   8.183  0.00  0.00     0.163 C 
HETATM  185  O   UNK N   1      20.660  18.691   7.614  0.00  0.00    -0.648 OA
BRANCH 184 186
HETATM  186  O   UNK N   1      19.089  18.241   9.116  0.00  0.00    -0.775 OA
HETATM  187  H   UNK N   1      19.012  17.892   9.982  0.00  0.00     0.167 HD
ENDBRANCH 184 186
ENDBRANCH 179 184
ENDBRANCH 177 179
ENDBRANCH 165 175
ENDBRANCH 163 165
ENDBRANCH 154 161
ENDBRANCH 152 154
ENDBRANCH 143 150
ENDBRANCH 141 143
ENDBRANCH 136 139
ENDBRANCH 127 132
ENDBRANCH 125 127
ENDBRANCH 116 123
ENDBRANCH 114 116
ENDBRANCH 105 112
ENDBRANCH 103 105
ENDBRANCH   1 101
TORSDOF 74
ENDMDL
MODEL 8
REMARK VINA RESULT:      -6.2      2.980     11.372
REMARK WARNING: 32 MAX_TORS EXCEEDED!!!
REMARK  74 active torsions:
REMARK  status: ('A' for Active; 'I' for Inactive)
REMARK       I    between atoms: C_3  and  N_4 
REMARK       I    between atoms: C_3  and  N_5 
REMARK    1  A    between atoms: N_5  and  C_6 
REMARK    2  A    between atoms: C_6  and  C_7 
REMARK    3  A    between atoms: C_7  and  C_8 
REMARK    4  A    between atoms: C_8  and  C_9 
REMARK    5  A    between atoms: C_9  and  N_10 
REMARK    6  A    between atoms: C_9  and  C_29 
REMARK       I    between atoms: N_10  and  C_11 
REMARK    7  A    between atoms: C_13  and  C_11 
REMARK       I    between atoms: N_17  and  C_18 
REMARK    8  A    between atoms: C_18  and  C_20 
REMARK    9  A    between atoms: C_20  and  N_21 
REMARK   10  A    between atoms: C_20  and  C_22 
REMARK   11  A    between atoms: C_22  and  C_23 
REMARK       I    between atoms: C_29  and  N_31 
REMARK   12  A    between atoms: C_35  and  C_36 
REMARK       I    between atoms: C_36  and  N_38 
REMARK   13  A    between atoms: N_38  and  C_39 
REMARK   14  A    between atoms: C_39  and  C_40 
REMARK       I    between atoms: C_40  and  N_42 
REMARK   15  A    between atoms: N_42  and  C_43 
REMARK   16  A    between atoms: C_43  and  C_44 
REMARK       I    between atoms: C_44  and  N_46 
REMARK   17  A    between atoms: N_46  and  C_47 
REMARK   18  A    between atoms: C_47  and  C_48 
REMARK       I    between atoms: C_48  and  N_50 
REMARK   19  A    between atoms: N_50  and  C_51 
REMARK   20  A    between atoms: C_51  and  C_52 
REMARK       I    between atoms: C_52  and  N_54 
REMARK   21  A    between atoms: C_55  and  N_54 
REMARK   22  A    between atoms: C_55  and  C_56 
REMARK   23  A    between atoms: C_55  and  C_60 
REMARK   24  A    between atoms: C_56  and  C_57 
REMARK       I    between atoms: C_57  and  N_58 
REMARK       I    between atoms: C_60  and  N_62 
REMARK   25  A    between atoms: N_62  and  C_63 
REMARK   26  A    between atoms: C_63  and  C_64 
REMARK       I    between atoms: C_64  and  N_66 
REMARK   27  A    between atoms: C_67  and  N_66 
REMARK   28  A    between atoms: C_67  and  C_68 
REMARK   29  A    between atoms: C_67  and  C_72 
REMARK   30  A    between atoms: C_68  and  C_69 
REMARK   31  A    between atoms: C_69  and  O_70 
REMARK       I    between atoms: C_72  and  N_74 
REMARK   32  A    between atoms: C_75  and  N_74 
REMARK   33  A    between atoms: C_75  and  C_76 
REMARK   34  A    between atoms: C_75  and  C_83 
REMARK   35  A    between atoms: C_76  and  C_77 
REMARK       I    between atoms: C_83  and  N_85 
REMARK   36  A    between atoms: C_86  and  N_85 
REMARK   37  A    between atoms: C_86  and  C_87 
REMARK   38  A    between atoms: C_86  and  C_92 
REMARK   39  A    between atoms: C_87  and  C_88 
REMARK   40  A    between atoms: C_88  and  C_89 
REMARK   41  A    between atoms: C_89  and  O_90 
REMARK       I    between atoms: C_92  and  N_94 
REMARK   42  A    between atoms: C_95  and  N_94 
REMARK   43  A    between atoms: C_95  and  C_96 
REMARK   44  A    between atoms: C_95  and  C_101 
REMARK   45  A    between atoms: C_96  and  C_97 
REMARK   46  A    between atoms: C_97  and  C_98 
REMARK   47  A    between atoms: C_98  and  O_99 
REMARK       I    between atoms: C_101  and  N_103 
REMARK   48  A    between atoms: C_104  and  N_103 
REMARK   49  A    between atoms: C_104  and  C_105 
REMARK   50  A    between atoms: C_104  and  C_109 
REMARK   51  A    between atoms: C_105  and  C_107 
REMARK       I    between atoms: C_109  and  N_111 
REMARK   52  A    between atoms: C_115  and  C_116 
REMARK       I    between atoms: C_116  and  N_118 
REMARK   53  A    between atoms: C_119  and  N_118 
REMARK   54  A    between atoms: C_119  and  C_120 
REMARK   55  A    between atoms: C_119  and  C_125 
REMARK   56  A    between atoms: C_120  and  C_121 
REMARK   57  A    between atoms: C_121  and  C_122 
REMARK   58  A    between atoms: C_122  and  O_123 
REMARK       I    between atoms: C_125  and  N_127 
REMARK   59  A    between atoms: C_128  and  N_127 
REMARK   60  A    between atoms: C_128  and  C_129 
REMARK   61  A    between atoms: C_128  and  C_134 
REMARK   62  A    between atoms: C_129  and  C_130 
REMARK   63  A    between atoms: C_130  and  C_131 
REMARK   64  A    between atoms: C_131  and  O_132 
REMARK       I    between atoms: C_134  and  N_136 
REMARK   65  A    between atoms: C_137  and  N_136 
REMARK   66  A    between atoms: C_137  and  C_138 
REMARK   67  A    between atoms: C_137  and  C_146 
REMARK   68  A    between atoms: C_138  and  C_139 
REMARK   69  A    between atoms: C_142  and  O_143 
REMARK       I    between atoms: C_146  and  N_148 
REMARK   70  A    between atoms: C_149  and  N_148 
REMARK   71  A    between atoms: C_149  and  C_150 
REMARK   72  A    between atoms: C_149  and  C_154 
REMARK   73  A    between atoms: C_150  and  C_151 
REMARK   74  A    between atoms: C_154  and  O_155 
ROOT
HETATM    1  C   UNK N   1      36.462  13.315   7.262  0.00  0.00     0.180 C 
ENDROOT
BRANCH   1   2
HETATM    2  N   UNK N   1      36.192  13.960   8.489  0.00  0.00    -0.346 N 
HETATM    3  C   UNK N   1      35.088  13.781   9.236  0.00  0.00     0.241 C 
HETATM    4  O   UNK N   1      34.174  13.045   8.884  0.00  0.00    -0.271 OA
HETATM    5  H   UNK N   1      36.867  14.594   8.825  0.00  0.00     0.163 HD
BRANCH   3   6
HETATM    6  C   UNK N   1      34.953  14.663  10.399  0.00  0.00     0.186 C 
BRANCH   6   7
HETATM    7  N   UNK N   1      34.320  13.862  11.436  0.00  0.00    -0.346 N 
HETATM    8  C   UNK N   1      34.971  13.209  12.440  0.00  0.00     0.236 C 
HETATM    9  O   UNK N   1      34.333  12.458  13.158  0.00  0.00    -0.272 OA
HETATM   10  H   UNK N   1      33.339  13.786  11.411  0.00  0.00     0.163 HD
BRANCH   8  11
HETATM   11  C   UNK N   1      36.452  13.361  12.707  0.00  0.00     0.225 C 
BRANCH  11  12
HETATM   12  N   UNK N   1      36.800  14.492  13.549  0.00  0.00    -0.351 N 
HETATM   13  C   UNK N   1      36.846  14.483  14.912  0.00  0.00     0.241 C 
HETATM   14  O   UNK N   1      37.240  15.478  15.494  0.00  0.00    -0.271 OA
HETATM   15  H   UNK N   1      37.020  15.339  13.096  0.00  0.00     0.163 HD
BRANCH  13  16
HETATM   16  C   UNK N   1      36.546  13.254  15.719  0.00  0.00     0.185 C 
BRANCH  16  17
HETATM   17  N   UNK N   1      36.895  12.152  14.884  0.00  0.00    -0.346 N 
HETATM   18  C   UNK N   1      37.189  10.936  15.346  0.00  0.00     0.236 C 
HETATM   19  O   UNK N   1      36.813  10.576  16.451  0.00  0.00    -0.272 OA
HETATM   20  H   UNK N   1      36.920  12.297  13.909  0.00  0.00     0.163 HD
BRANCH  18  21
HETATM   21  C   UNK N   1      38.290  10.217  14.644  0.00  0.00     0.225 C 
BRANCH  21  22
HETATM   22  N   UNK N   1      37.837   8.890  14.210  0.00  0.00    -0.351 N 
HETATM   23  C   UNK N   1      37.094   8.506  13.110  0.00  0.00     0.235 C 
HETATM   24  O   UNK N   1      36.804   7.328  13.002  0.00  0.00    -0.272 OA
HETATM   25  H   UNK N   1      38.105   8.150  14.801  0.00  0.00     0.163 HD
BRANCH  23  26
HETATM   26  C   UNK N   1      36.591   9.415  12.000  0.00  0.00     0.225 C 
BRANCH  26  27
HETATM   27  N   UNK N   1      36.490   8.801  10.712  0.00  0.00    -0.351 N 
HETATM   28  C   UNK N   1      35.392   8.914   9.939  0.00  0.00     0.235 C 
HETATM   29  O   UNK N   1      35.331   8.253   8.916  0.00  0.00    -0.272 OA
HETATM   30  H   UNK N   1      37.252   8.276  10.378  0.00  0.00     0.163 HD
BRANCH  28  31
HETATM   31  C   UNK N   1      34.195   9.733  10.369  0.00  0.00     0.225 C 
BRANCH  31  32
HETATM   32  N   UNK N   1      33.058   8.881  10.211  0.00  0.00    -0.351 N 
HETATM   33  C   UNK N   1      32.070   9.205   9.364  0.00  0.00     0.235 C 
HETATM   34  O   UNK N   1      31.891  10.367   9.027  0.00  0.00    -0.272 OA
HETATM   35  H   UNK N   1      33.000   8.047  10.730  0.00  0.00     0.163 HD
BRANCH  33  36
HETATM   36  C   UNK N   1      31.625   8.124   8.471  0.00  0.00     0.225 C 
BRANCH  36  37
HETATM   37  N   UNK N   1      30.740   8.791   7.540  0.00  0.00    -0.351 N 
HETATM   38  C   UNK N   1      30.593   8.414   6.248  0.00  0.00     0.241 C 
HETATM   39  O   UNK N   1      31.125   7.391   5.834  0.00  0.00    -0.271 OA
HETATM   40  H   UNK N   1      30.218   9.560   7.863  0.00  0.00     0.163 HD
BRANCH  38  41
HETATM   41  C   UNK N   1      29.782   9.285   5.317  0.00  0.00     0.179 C 
HETATM   42  C   UNK N   1      30.606  10.418   4.724  0.00  0.00     0.037 C 
HETATM   43  C   UNK N   1      31.127   9.889   3.394  0.00  0.00     0.022 C 
HETATM   44  C   UNK N   1      30.166   8.778   2.998  0.00  0.00     0.127 C 
HETATM   45  N   UNK N   1      29.400   8.511   4.183  0.00  0.00    -0.337 N 
HETATM   46  C   UNK N   1      28.369   7.619   4.249  0.00  0.00     0.243 C 
HETATM   47  O   UNK N   1      27.718   7.513   5.277  0.00  0.00    -0.271 OA
BRANCH  46  48
HETATM   48  C   UNK N   1      28.017   6.737   3.093  0.00  0.00     0.176 C 
BRANCH  48  49
HETATM   49  C   UNK N   1      28.659   5.351   3.237  0.00  0.00     0.036 C 
BRANCH  49  50
HETATM   50  C   UNK N   1      28.916   4.685   1.887  0.00  0.00     0.023 C 
BRANCH  50  51
HETATM   51  C   UNK N   1      30.398   4.666   1.541  0.00  0.00     0.138 C 
BRANCH  51  52
HETATM   52  N   UNK N   1      31.214   4.929   2.705  0.00  0.00    -0.227 N 
HETATM   53  C   UNK N   1      32.264   5.884   2.669  0.00  0.00     0.665 C 
HETATM   54  N   UNK N   1      32.553   6.494   1.579  0.00  0.00    -0.235 N 
HETATM   55  N   UNK N   1      33.011   6.151   3.837  0.00  0.00    -0.235 N 
HETATM   56  H   UNK N   1      32.264   6.799   0.689  0.00  0.00     0.174 HD
ATOM     57  HN  UNK N   1      33.521   6.801   1.678  1.00  0.00     0.174 HD
HETATM   58  H   UNK N   1      33.959   5.935   3.992  0.00  0.00     0.174 HD
HETATM   59  H   UNK N   1      32.535   6.600   4.572  0.00  0.00     0.174 HD
HETATM   60  H   UNK N   1      31.037   4.436   3.539  0.00  0.00     0.177 HD
ENDBRANCH  51  52
ENDBRANCH  50  51
ENDBRANCH  49  50
ENDBRANCH  48  49
BRANCH  48  61
HETATM   61  N   UNK N   1      26.584   6.647   2.988  0.00  0.00    -0.346 N 
HETATM   62  C   UNK N   1      25.908   7.127   1.918  0.00  0.00     0.241 C 
HETATM   63  O   UNK N   1      24.714   6.896   1.827  0.00  0.00    -0.271 OA
HETATM   64  H   UNK N   1      26.079   6.222   3.718  0.00  0.00     0.163 HD
BRANCH  62  65
HETATM   65  C   UNK N   1      26.600   7.958   0.849  0.00  0.00     0.179 C 
HETATM   66  C   UNK N   1      26.614   7.184  -0.462  0.00  0.00     0.037 C 
HETATM   67  C   UNK N   1      25.498   7.768  -1.337  0.00  0.00     0.022 C 
HETATM   68  C   UNK N   1      24.826   8.847  -0.509  0.00  0.00     0.127 C 
HETATM   69  N   UNK N   1      25.750   9.084   0.552  0.00  0.00    -0.337 N 
HETATM   70  C   UNK N   1      25.919  10.320   1.082  0.00  0.00     0.243 C 
HETATM   71  O   UNK N   1      25.104  11.201   0.804  0.00  0.00    -0.271 OA
BRANCH  70  72
HETATM   72  C   UNK N   1      27.084  10.653   1.970  0.00  0.00     0.171 C 
BRANCH  72  73
HETATM   73  N   UNK N   1      26.654  10.679   3.350  0.00  0.00    -0.418 N 
HETATM   74  H   UNK N   1      27.068  11.184   4.134  0.00  0.00     0.150 HD
HETATM   75  H   UNK N   1      25.830  10.119   3.569  0.00  0.00     0.150 HD
ENDBRANCH  72  73
BRANCH  72  76
HETATM   76  C   UNK N   1      27.730  11.999   1.579  0.00  0.00     0.072 C 
BRANCH  76  77
HETATM   77  C   UNK N   1      29.070  11.821   0.927  0.00  0.00    -0.056 A 
HETATM   78  C   UNK N   1      30.157  12.579   1.381  0.00  0.00     0.007 A 
HETATM   79  C   UNK N   1      31.441  12.331   0.888  0.00  0.00     0.001 A 
HETATM   80  C   UNK N   1      31.640  11.328  -0.065  0.00  0.00     0.000 A 
HETATM   81  C   UNK N   1      30.555  10.579  -0.532  0.00  0.00     0.001 A 
HETATM   82  C   UNK N   1      29.272  10.818  -0.029  0.00  0.00     0.007 A 
ENDBRANCH  76  77
ENDBRANCH  72  76
ENDBRANCH  70  72
ENDBRANCH  62  65
ENDBRANCH  48  61
ENDBRANCH  46  48
ENDBRANCH  38  41
ENDBRANCH  36  37
ENDBRANCH  33  36
ENDBRANCH  31  32
ENDBRANCH  28  31
ENDBRANCH  26  27
ENDBRANCH  23  26
ENDBRANCH  21  22
ENDBRANCH  18  21
ENDBRANCH  16  17
BRANCH  16  83
HETATM   83  C   UNK N   1      35.171  13.157  16.370  0.00  0.00     0.137 C 
BRANCH  83  84
HETATM   84  C   UNK N   1      35.244  13.448  17.841  0.00  0.00     0.217 C 
HETATM   85  N   UNK N   1      35.610  14.672  18.261  0.00  0.00    -0.370 N 
HETATM   86  H   UNK N   1      35.056  15.458  18.050  0.00  0.00     0.159 HD
HETATM   87  H   UNK N   1      36.438  14.782  18.783  0.00  0.00     0.159 HD
HETATM   88  O   UNK N   1      34.985  12.582  18.662  0.00  0.00    -0.274 OA
ENDBRANCH  83  84
ENDBRANCH  16  83
ENDBRANCH  13  16
ENDBRANCH  11  12
ENDBRANCH   8  11
ENDBRANCH   6   7
BRANCH   6  89
HETATM   89  C   UNK N   1      34.062  15.849  10.000  0.00  0.00     0.144 C 
BRANCH  89  90
HETATM   90  C   UNK N   1      34.796  17.099   9.599  0.00  0.00     0.141 C 
HETATM   91  O   UNK N   1      35.712  17.534  10.276  0.00  0.00    -0.650 OA
BRANCH  90  92
HETATM   92  O   UNK N   1      34.447  17.738   8.471  0.00  0.00    -0.776 OA
HETATM   93  H   UNK N   1      33.655  17.511   8.026  0.00  0.00     0.167 HD
ENDBRANCH  90  92
ENDBRANCH  89  90
ENDBRANCH   6  89
ENDBRANCH   3   6
ENDBRANCH   1   2
BRANCH   1  94
HETATM   94  C   UNK N   1      36.816  11.829   7.383  0.00  0.00     0.073 C 
BRANCH  94  95
HETATM   95  C   UNK N   1      36.072  10.995   6.360  0.00  0.00    -0.056 A 
HETATM   96  C   UNK N   1      36.704  10.635   5.167  0.00  0.00     0.007 A 
HETATM   97  C   UNK N   1      36.028   9.857   4.218  0.00  0.00     0.001 A 
HETATM   98  C   UNK N   1      34.717   9.431   4.461  0.00  0.00     0.000 A 
HETATM   99  C   UNK N   1      34.080   9.780   5.653  0.00  0.00     0.001 A 
HETATM  100  C   UNK N   1      34.756  10.556   6.599  0.00  0.00     0.007 A 
ENDBRANCH  94  95
ENDBRANCH   1  94
BRANCH   1 101
HETATM  101  C   UNK N   1      36.693  14.235   6.097  0.00  0.00     0.241 C 
HETATM  102  O   UNK N   1      37.833  14.510   5.755  0.00  0.00    -0.271 OA
HETATM  103  N   UNK N   1      35.653  14.875   5.523  0.00  0.00    -0.346 N 
HETATM  104  H   UNK N   1      35.835  15.660   4.955  0.00  0.00     0.163 HD
BRANCH 103 105
HETATM  105  C   UNK N   1      34.282  14.453   5.707  0.00  0.00     0.177 C 
BRANCH 105 106
HETATM  106  C   UNK N   1      33.769  13.477   4.616  0.00  0.00     0.045 C 
BRANCH 106 107
HETATM  107  C   UNK N   1      34.642  13.440   3.357  0.00  0.00     0.112 C 
BRANCH 107 108
HETATM  108  C   UNK N   1      34.196  14.428   2.309  0.00  0.00     0.139 C 
HETATM  109  O   UNK N   1      33.165  15.062   2.451  0.00  0.00    -0.650 OA
BRANCH 108 110
HETATM  110  O   UNK N   1      34.922  14.596   1.190  0.00  0.00    -0.776 OA
HETATM  111  H   UNK N   1      35.833  14.608   0.974  0.00  0.00     0.167 HD
ENDBRANCH 108 110
ENDBRANCH 107 108
ENDBRANCH 106 107
ENDBRANCH 105 106
BRANCH 105 112
HETATM  112  C   UNK N   1      33.462  15.700   5.880  0.00  0.00     0.241 C 
HETATM  113  O   UNK N   1      33.987  16.791   5.695  0.00  0.00    -0.271 OA
HETATM  114  N   UNK N   1      32.189  15.621   6.321  0.00  0.00    -0.346 N 
HETATM  115  H   UNK N   1      31.769  14.734   6.384  0.00  0.00     0.163 HD
BRANCH 114 116
HETATM  116  C   UNK N   1      31.419  16.774   6.703  0.00  0.00     0.177 C 
BRANCH 116 117
HETATM  117  C   UNK N   1      30.798  16.496   8.080  0.00  0.00     0.045 C 
BRANCH 117 118
HETATM  118  C   UNK N   1      30.093  17.754   8.618  0.00  0.00     0.112 C 
BRANCH 118 119
HETATM  119  C   UNK N   1      29.072  17.527   9.684  0.00  0.00     0.139 C 
HETATM  120  O   UNK N   1      27.915  17.834   9.467  0.00  0.00    -0.650 OA
BRANCH 119 121
HETATM  121  O   UNK N   1      29.383  16.892  10.828  0.00  0.00    -0.776 OA
HETATM  122  H   UNK N   1      28.783  16.278  11.202  0.00  0.00     0.167 HD
ENDBRANCH 119 121
ENDBRANCH 118 119
ENDBRANCH 117 118
ENDBRANCH 116 117
BRANCH 116 123
HETATM  123  C   UNK N   1      30.317  16.967   5.698  0.00  0.00     0.241 C 
HETATM  124  O   UNK N   1      30.457  17.795   4.810  0.00  0.00    -0.271 OA
HETATM  125  N   UNK N   1      29.188  16.222   5.757  0.00  0.00    -0.346 N 
HETATM  126  H   UNK N   1      29.062  15.614   6.521  0.00  0.00     0.163 HD
BRANCH 125 127
HETATM  127  C   UNK N   1      28.152  16.285   4.733  0.00  0.00     0.180 C 
BRANCH 127 128
HETATM  128  C   UNK N   1      27.892  14.936   4.006  0.00  0.00     0.013 C 
HETATM  129  C   UNK N   1      26.563  14.822   3.276  0.00  0.00     0.012 C 
BRANCH 128 130
HETATM  130  C   UNK N   1      28.016  13.754   4.950  0.00  0.00     0.002 C 
HETATM  131  C   UNK N   1      26.671  13.427   5.566  0.00  0.00     0.005 C 
ENDBRANCH 128 130
ENDBRANCH 127 128
BRANCH 127 132
HETATM  132  C   UNK N   1      27.001  17.181   5.208  0.00  0.00     0.243 C 
HETATM  133  O   UNK N   1      26.332  16.755   6.135  0.00  0.00    -0.271 OA
HETATM  134  N   UNK N   1      26.695  18.413   4.678  0.00  0.00    -0.337 N 
HETATM  135  C   UNK N   1      27.421  19.057   3.630  0.00  0.00     0.127 C 
HETATM  136  C   UNK N   1      25.615  19.211   5.219  0.00  0.00     0.179 C 
HETATM  137  C   UNK N   1      26.684  20.357   3.359  0.00  0.00     0.022 C 
HETATM  138  C   UNK N   1      25.718  20.555   4.522  0.00  0.00     0.037 C 
BRANCH 136 139
HETATM  139  C   UNK N   1      24.260  18.608   4.984  0.00  0.00     0.241 C 
HETATM  140  O   UNK N   1      23.264  19.257   5.268  0.00  0.00    -0.271 OA
HETATM  141  N   UNK N   1      24.148  17.357   4.471  0.00  0.00    -0.346 N 
HETATM  142  H   UNK N   1      24.976  16.905   4.188  0.00  0.00     0.163 HD
BRANCH 141 143
HETATM  143  C   UNK N   1      22.905  16.642   4.310  0.00  0.00     0.177 C 
BRANCH 143 144
HETATM  144  C   UNK N   1      22.338  16.005   5.607  0.00  0.00     0.045 C 
BRANCH 144 145
HETATM  145  C   UNK N   1      20.965  16.574   5.982  0.00  0.00     0.112 C 
BRANCH 145 146
HETATM  146  C   UNK N   1      19.877  15.563   6.012  0.00  0.00     0.139 C 
HETATM  147  O   UNK N   1      19.932  14.603   5.263  0.00  0.00    -0.650 OA
BRANCH 146 148
HETATM  148  O   UNK N   1      18.795  15.750   6.789  0.00  0.00    -0.776 OA
HETATM  149  H   UNK N   1      18.669  15.706   7.717  0.00  0.00     0.167 HD
ENDBRANCH 146 148
ENDBRANCH 145 146
ENDBRANCH 144 145
ENDBRANCH 143 144
BRANCH 143 150
HETATM  150  C   UNK N   1      22.923  15.703   3.141  0.00  0.00     0.241 C 
HETATM  151  O   UNK N   1      23.863  15.692   2.358  0.00  0.00    -0.271 OA
HETATM  152  N   UNK N   1      22.017  14.717   3.139  0.00  0.00    -0.346 N 
HETATM  153  H   UNK N   1      21.108  14.900   3.472  0.00  0.00     0.163 HD
BRANCH 152 154
HETATM  154  C   UNK N   1      22.337  13.401   2.665  0.00  0.00     0.177 C 
BRANCH 154 155
HETATM  155  C   UNK N   1      21.067  12.665   2.196  0.00  0.00     0.045 C 
BRANCH 155 156
HETATM  156  C   UNK N   1      20.343  13.417   1.073  0.00  0.00     0.112 C 
BRANCH 156 157
HETATM  157  C   UNK N   1      19.002  13.928   1.471  0.00  0.00     0.139 C 
HETATM  158  O   UNK N   1      18.054  13.794   0.716  0.00  0.00    -0.650 OA
BRANCH 157 159
HETATM  159  O   UNK N   1      18.820  14.481   2.684  0.00  0.00    -0.776 OA
HETATM  160  H   UNK N   1      18.973  15.312   3.088  0.00  0.00     0.167 HD
ENDBRANCH 157 159
ENDBRANCH 156 157
ENDBRANCH 155 156
ENDBRANCH 154 155
BRANCH 154 161
HETATM  161  C   UNK N   1      22.887  12.699   3.874  0.00  0.00     0.241 C 
HETATM  162  O   UNK N   1      23.985  12.170   3.837  0.00  0.00    -0.271 OA
HETATM  163  N   UNK N   1      22.058  12.547   4.944  0.00  0.00    -0.346 N 
HETATM  164  H   UNK N   1      21.288  13.156   4.994  0.00  0.00     0.163 HD
BRANCH 163 165
HETATM  165  C   UNK N   1      22.190  11.590   6.009  0.00  0.00     0.180 C 
BRANCH 165 166
HETATM  166  C   UNK N   1      21.330  10.329   5.894  0.00  0.00     0.073 C 
BRANCH 166 167
HETATM  167  C   UNK N   1      22.088   9.091   5.578  0.00  0.00    -0.056 A 
HETATM  168  C   UNK N   1      23.325   8.859   6.184  0.00  0.00     0.010 A 
HETATM  169  C   UNK N   1      24.040   7.698   5.893  0.00  0.00     0.037 A 
HETATM  170  C   UNK N   1      23.522   6.768   4.990  0.00  0.00     0.065 A 
HETATM  171  C   UNK N   1      22.297   7.009   4.360  0.00  0.00     0.037 A 
HETATM  172  C   UNK N   1      21.582   8.175   4.648  0.00  0.00     0.010 A 
BRANCH 170 173
HETATM  173  O   UNK N   1      24.205   5.643   4.726  0.00  0.00    -0.361 OA
HETATM  174  H   UNK N   1      24.034   4.991   4.075  0.00  0.00     0.217 HD
ENDBRANCH 170 173
ENDBRANCH 166 167
ENDBRANCH 165 166
BRANCH 165 175
HETATM  175  C   UNK N   1      22.442  12.320   7.294  0.00  0.00     0.241 C 
HETATM  176  O   UNK N   1      23.159  13.308   7.270  0.00  0.00    -0.271 OA
HETATM  177  N   UNK N   1      21.700  12.029   8.393  0.00  0.00    -0.345 N 
HETATM  178  H   UNK N   1      21.235  11.161   8.412  0.00  0.00     0.163 HD
BRANCH 177 179
HETATM  179  C   UNK N   1      21.541  12.902   9.542  0.00  0.00     0.182 C 
BRANCH 179 180
HETATM  180  C   UNK N   1      22.902  13.125  10.207  0.00  0.00     0.040 C 
BRANCH 180 181
HETATM  181  C   UNK N   1      23.357  11.930  11.044  0.00  0.00    -0.020 C 
HETATM  182  C   UNK N   1      24.856  11.979  11.275  0.00  0.00     0.009 C 
HETATM  183  C   UNK N   1      22.664  11.957  12.388  0.00  0.00     0.009 C 
ENDBRANCH 180 181
ENDBRANCH 179 180
BRANCH 179 184
HETATM  184  C   UNK N   1      20.815  14.205   9.308  0.00  0.00     0.163 C 
HETATM  185  O   UNK N   1      21.422  15.240   9.089  0.00  0.00    -0.648 OA
BRANCH 184 186
HETATM  186  O   UNK N   1      19.469  14.220   9.352  0.00  0.00    -0.775 OA
HETATM  187  H   UNK N   1      18.945  14.581  10.038  0.00  0.00     0.167 HD
ENDBRANCH 184 186
ENDBRANCH 179 184
ENDBRANCH 177 179
ENDBRANCH 165 175
ENDBRANCH 163 165
ENDBRANCH 154 161
ENDBRANCH 152 154
ENDBRANCH 143 150
ENDBRANCH 141 143
ENDBRANCH 136 139
ENDBRANCH 127 132
ENDBRANCH 125 127
ENDBRANCH 116 123
ENDBRANCH 114 116
ENDBRANCH 105 112
ENDBRANCH 103 105
ENDBRANCH   1 101
TORSDOF 74
ENDMDL
MODEL 9
REMARK VINA RESULT:      -6.2      3.608     13.423
REMARK WARNING: 32 MAX_TORS EXCEEDED!!!
REMARK  74 active torsions:
REMARK  status: ('A' for Active; 'I' for Inactive)
REMARK       I    between atoms: C_3  and  N_4 
REMARK       I    between atoms: C_3  and  N_5 
REMARK    1  A    between atoms: N_5  and  C_6 
REMARK    2  A    between atoms: C_6  and  C_7 
REMARK    3  A    between atoms: C_7  and  C_8 
REMARK    4  A    between atoms: C_8  and  C_9 
REMARK    5  A    between atoms: C_9  and  N_10 
REMARK    6  A    between atoms: C_9  and  C_29 
REMARK       I    between atoms: N_10  and  C_11 
REMARK    7  A    between atoms: C_13  and  C_11 
REMARK       I    between atoms: N_17  and  C_18 
REMARK    8  A    between atoms: C_18  and  C_20 
REMARK    9  A    between atoms: C_20  and  N_21 
REMARK   10  A    between atoms: C_20  and  C_22 
REMARK   11  A    between atoms: C_22  and  C_23 
REMARK       I    between atoms: C_29  and  N_31 
REMARK   12  A    between atoms: C_35  and  C_36 
REMARK       I    between atoms: C_36  and  N_38 
REMARK   13  A    between atoms: N_38  and  C_39 
REMARK   14  A    between atoms: C_39  and  C_40 
REMARK       I    between atoms: C_40  and  N_42 
REMARK   15  A    between atoms: N_42  and  C_43 
REMARK   16  A    between atoms: C_43  and  C_44 
REMARK       I    between atoms: C_44  and  N_46 
REMARK   17  A    between atoms: N_46  and  C_47 
REMARK   18  A    between atoms: C_47  and  C_48 
REMARK       I    between atoms: C_48  and  N_50 
REMARK   19  A    between atoms: N_50  and  C_51 
REMARK   20  A    between atoms: C_51  and  C_52 
REMARK       I    between atoms: C_52  and  N_54 
REMARK   21  A    between atoms: C_55  and  N_54 
REMARK   22  A    between atoms: C_55  and  C_56 
REMARK   23  A    between atoms: C_55  and  C_60 
REMARK   24  A    between atoms: C_56  and  C_57 
REMARK       I    between atoms: C_57  and  N_58 
REMARK       I    between atoms: C_60  and  N_62 
REMARK   25  A    between atoms: N_62  and  C_63 
REMARK   26  A    between atoms: C_63  and  C_64 
REMARK       I    between atoms: C_64  and  N_66 
REMARK   27  A    between atoms: C_67  and  N_66 
REMARK   28  A    between atoms: C_67  and  C_68 
REMARK   29  A    between atoms: C_67  and  C_72 
REMARK   30  A    between atoms: C_68  and  C_69 
REMARK   31  A    between atoms: C_69  and  O_70 
REMARK       I    between atoms: C_72  and  N_74 
REMARK   32  A    between atoms: C_75  and  N_74 
REMARK   33  A    between atoms: C_75  and  C_76 
REMARK   34  A    between atoms: C_75  and  C_83 
REMARK   35  A    between atoms: C_76  and  C_77 
REMARK       I    between atoms: C_83  and  N_85 
REMARK   36  A    between atoms: C_86  and  N_85 
REMARK   37  A    between atoms: C_86  and  C_87 
REMARK   38  A    between atoms: C_86  and  C_92 
REMARK   39  A    between atoms: C_87  and  C_88 
REMARK   40  A    between atoms: C_88  and  C_89 
REMARK   41  A    between atoms: C_89  and  O_90 
REMARK       I    between atoms: C_92  and  N_94 
REMARK   42  A    between atoms: C_95  and  N_94 
REMARK   43  A    between atoms: C_95  and  C_96 
REMARK   44  A    between atoms: C_95  and  C_101 
REMARK   45  A    between atoms: C_96  and  C_97 
REMARK   46  A    between atoms: C_97  and  C_98 
REMARK   47  A    between atoms: C_98  and  O_99 
REMARK       I    between atoms: C_101  and  N_103 
REMARK   48  A    between atoms: C_104  and  N_103 
REMARK   49  A    between atoms: C_104  and  C_105 
REMARK   50  A    between atoms: C_104  and  C_109 
REMARK   51  A    between atoms: C_105  and  C_107 
REMARK       I    between atoms: C_109  and  N_111 
REMARK   52  A    between atoms: C_115  and  C_116 
REMARK       I    between atoms: C_116  and  N_118 
REMARK   53  A    between atoms: C_119  and  N_118 
REMARK   54  A    between atoms: C_119  and  C_120 
REMARK   55  A    between atoms: C_119  and  C_125 
REMARK   56  A    between atoms: C_120  and  C_121 
REMARK   57  A    between atoms: C_121  and  C_122 
REMARK   58  A    between atoms: C_122  and  O_123 
REMARK       I    between atoms: C_125  and  N_127 
REMARK   59  A    between atoms: C_128  and  N_127 
REMARK   60  A    between atoms: C_128  and  C_129 
REMARK   61  A    between atoms: C_128  and  C_134 
REMARK   62  A    between atoms: C_129  and  C_130 
REMARK   63  A    between atoms: C_130  and  C_131 
REMARK   64  A    between atoms: C_131  and  O_132 
REMARK       I    between atoms: C_134  and  N_136 
REMARK   65  A    between atoms: C_137  and  N_136 
REMARK   66  A    between atoms: C_137  and  C_138 
REMARK   67  A    between atoms: C_137  and  C_146 
REMARK   68  A    between atoms: C_138  and  C_139 
REMARK   69  A    between atoms: C_142  and  O_143 
REMARK       I    between atoms: C_146  and  N_148 
REMARK   70  A    between atoms: C_149  and  N_148 
REMARK   71  A    between atoms: C_149  and  C_150 
REMARK   72  A    between atoms: C_149  and  C_154 
REMARK   73  A    between atoms: C_150  and  C_151 
REMARK   74  A    between atoms: C_154  and  O_155 
ROOT
HETATM    1  C   UNK N   1      35.548  12.308   5.362  0.00  0.00     0.180 C 
ENDROOT
BRANCH   1   2
HETATM    2  N   UNK N   1      35.072  12.461   6.683  0.00  0.00    -0.346 N 
HETATM    3  C   UNK N   1      33.795  12.710   7.025  0.00  0.00     0.241 C 
HETATM    4  O   UNK N   1      32.913  12.867   6.189  0.00  0.00    -0.271 OA
HETATM    5  H   UNK N   1      35.727  12.380   7.413  0.00  0.00     0.163 HD
BRANCH   3   6
HETATM    6  C   UNK N   1      33.554  12.974   8.447  0.00  0.00     0.186 C 
BRANCH   6   7
HETATM    7  N   UNK N   1      32.723  11.877   8.922  0.00  0.00    -0.346 N 
HETATM    8  C   UNK N   1      33.059  11.001   9.910  0.00  0.00     0.236 C 
HETATM    9  O   UNK N   1      32.333  10.043  10.113  0.00  0.00    -0.272 OA
HETATM   10  H   UNK N   1      31.845  11.758   8.493  0.00  0.00     0.163 HD
BRANCH   8  11
HETATM   11  C   UNK N   1      34.296  11.150  10.769  0.00  0.00     0.225 C 
BRANCH  11  12
HETATM   12  N   UNK N   1      34.250  12.259  11.705  0.00  0.00    -0.351 N 
HETATM   13  C   UNK N   1      35.280  13.109  11.980  0.00  0.00     0.241 C 
HETATM   14  O   UNK N   1      35.081  14.054  12.722  0.00  0.00    -0.271 OA
HETATM   15  H   UNK N   1      33.402  12.410  12.183  0.00  0.00     0.163 HD
BRANCH  13  16
HETATM   16  C   UNK N   1      36.618  12.995  11.310  0.00  0.00     0.185 C 
BRANCH  16  17
HETATM   17  N   UNK N   1      37.543  12.686  12.350  0.00  0.00    -0.346 N 
HETATM   18  C   UNK N   1      37.690  11.468  12.873  0.00  0.00     0.236 C 
HETATM   19  O   UNK N   1      37.341  10.473  12.256  0.00  0.00    -0.272 OA
HETATM   20  H   UNK N   1      38.106  13.414  12.702  0.00  0.00     0.163 HD
BRANCH  18  21
HETATM   21  C   UNK N   1      37.922  11.411  14.344  0.00  0.00     0.225 C 
BRANCH  21  22
HETATM   22  N   UNK N   1      37.695  12.729  14.949  0.00  0.00    -0.351 N 
HETATM   23  C   UNK N   1      36.605  13.231  15.633  0.00  0.00     0.235 C 
HETATM   24  O   UNK N   1      36.647  14.393  15.996  0.00  0.00    -0.272 OA
HETATM   25  H   UNK N   1      38.443  13.361  14.850  0.00  0.00     0.163 HD
BRANCH  23  26
HETATM   26  C   UNK N   1      35.335  12.474  15.987  0.00  0.00     0.225 C 
BRANCH  26  27
HETATM   27  N   UNK N   1      35.454  11.571  17.089  0.00  0.00    -0.351 N 
HETATM   28  C   UNK N   1      35.301  10.238  16.955  0.00  0.00     0.235 C 
HETATM   29  O   UNK N   1      35.286   9.551  17.961  0.00  0.00    -0.272 OA
HETATM   30  H   UNK N   1      35.656  11.936  17.980  0.00  0.00     0.163 HD
BRANCH  28  31
HETATM   31  C   UNK N   1      35.025   9.599  15.612  0.00  0.00     0.225 C 
BRANCH  31  32
HETATM   32  N   UNK N   1      35.851   8.435  15.552  0.00  0.00    -0.351 N 
HETATM   33  C   UNK N   1      36.081   7.815  14.385  0.00  0.00     0.235 C 
HETATM   34  O   UNK N   1      35.309   7.944  13.446  0.00  0.00    -0.272 OA
HETATM   35  H   UNK N   1      36.258   8.084  16.377  0.00  0.00     0.163 HD
BRANCH  33  36
HETATM   36  C   UNK N   1      37.488   7.482  14.114  0.00  0.00     0.225 C 
BRANCH  36  37
HETATM   37  N   UNK N   1      37.575   7.511  12.669  0.00  0.00    -0.351 N 
HETATM   38  C   UNK N   1      37.869   6.424  11.917  0.00  0.00     0.241 C 
HETATM   39  O   UNK N   1      37.957   5.316  12.432  0.00  0.00    -0.271 OA
HETATM   40  H   UNK N   1      37.412   8.365  12.209  0.00  0.00     0.163 HD
BRANCH  38  41
HETATM   41  C   UNK N   1      38.110   6.601  10.436  0.00  0.00     0.179 C 
HETATM   42  C   UNK N   1      39.016   5.519   9.867  0.00  0.00     0.037 C 
HETATM   43  C   UNK N   1      38.079   4.436   9.345  0.00  0.00     0.022 C 
HETATM   44  C   UNK N   1      36.754   5.139   9.092  0.00  0.00     0.127 C 
HETATM   45  N   UNK N   1      36.877   6.411   9.746  0.00  0.00    -0.337 N 
HETATM   46  C   UNK N   1      35.928   7.391   9.710  0.00  0.00     0.243 C 
HETATM   47  O   UNK N   1      36.149   8.475  10.227  0.00  0.00    -0.271 OA
BRANCH  46  48
HETATM   48  C   UNK N   1      34.595   7.171   9.067  0.00  0.00     0.176 C 
BRANCH  48  49
HETATM   49  C   UNK N   1      33.538   6.770  10.104  0.00  0.00     0.036 C 
BRANCH  49  50
HETATM   50  C   UNK N   1      33.570   5.277  10.421  0.00  0.00     0.023 C 
BRANCH  50  51
HETATM   51  C   UNK N   1      34.000   5.016  11.858  0.00  0.00     0.138 C 
BRANCH  51  52
HETATM   52  N   UNK N   1      34.984   3.958  11.929  0.00  0.00    -0.227 N 
HETATM   53  C   UNK N   1      35.628   3.631  13.152  0.00  0.00     0.665 C 
HETATM   54  N   UNK N   1      35.394   4.312  14.213  0.00  0.00    -0.235 N 
HETATM   55  N   UNK N   1      36.549   2.562  13.197  0.00  0.00    -0.235 N 
HETATM   56  H   UNK N   1      34.787   4.908  14.708  0.00  0.00     0.174 HD
ATOM     57  HN  UNK N   1      36.205   4.173  14.818  1.00  0.00     0.174 HD
HETATM   58  H   UNK N   1      37.520   2.627  13.343  0.00  0.00     0.174 HD
HETATM   59  H   UNK N   1      36.182   1.658  13.068  0.00  0.00     0.174 HD
HETATM   60  H   UNK N   1      35.211   3.456  11.113  0.00  0.00     0.177 HD
ENDBRANCH  51  52
ENDBRANCH  50  51
ENDBRANCH  49  50
ENDBRANCH  48  49
BRANCH  48  61
HETATM   61  N   UNK N   1      34.212   8.363   8.356  0.00  0.00    -0.346 N 
HETATM   62  C   UNK N   1      33.602   8.318   7.149  0.00  0.00     0.241 C 
HETATM   63  O   UNK N   1      33.181   9.356   6.665  0.00  0.00    -0.271 OA
HETATM   64  H   UNK N   1      34.401   9.240   8.762  0.00  0.00     0.163 HD
BRANCH  62  65
HETATM   65  C   UNK N   1      33.451   7.014   6.383  0.00  0.00     0.179 C 
HETATM   66  C   UNK N   1      31.992   6.582   6.403  0.00  0.00     0.037 C 
HETATM   67  C   UNK N   1      31.397   6.954   5.039  0.00  0.00     0.022 C 
HETATM   68  C   UNK N   1      32.508   7.630   4.259  0.00  0.00     0.127 C 
HETATM   69  N   UNK N   1      33.687   7.294   4.989  0.00  0.00    -0.337 N 
HETATM   70  C   UNK N   1      34.871   7.082   4.364  0.00  0.00     0.243 C 
HETATM   71  O   UNK N   1      34.984   7.406   3.181  0.00  0.00    -0.271 OA
BRANCH  70  72
HETATM   72  C   UNK N   1      36.034   6.437   5.061  0.00  0.00     0.171 C 
BRANCH  72  73
HETATM   73  N   UNK N   1      35.598   5.227   5.722  0.00  0.00    -0.418 N 
HETATM   74  H   UNK N   1      36.117   4.637   6.374  0.00  0.00     0.150 HD
HETATM   75  H   UNK N   1      34.648   4.924   5.511  0.00  0.00     0.150 HD
ENDBRANCH  72  73
BRANCH  72  76
HETATM   76  C   UNK N   1      36.696   7.397   6.072  0.00  0.00     0.072 C 
BRANCH  76  77
HETATM   77  C   UNK N   1      38.192   7.405   5.958  0.00  0.00    -0.056 A 
HETATM   78  C   UNK N   1      38.959   7.840   7.047  0.00  0.00     0.007 A 
HETATM   79  C   UNK N   1      40.351   7.724   7.016  0.00  0.00     0.001 A 
HETATM   80  C   UNK N   1      40.981   7.177   5.894  0.00  0.00     0.000 A 
HETATM   81  C   UNK N   1      40.220   6.756   4.799  0.00  0.00     0.001 A 
HETATM   82  C   UNK N   1      38.826   6.860   4.834  0.00  0.00     0.007 A 
ENDBRANCH  76  77
ENDBRANCH  72  76
ENDBRANCH  70  72
ENDBRANCH  62  65
ENDBRANCH  48  61
ENDBRANCH  46  48
ENDBRANCH  38  41
ENDBRANCH  36  37
ENDBRANCH  33  36
ENDBRANCH  31  32
ENDBRANCH  28  31
ENDBRANCH  26  27
ENDBRANCH  23  26
ENDBRANCH  21  22
ENDBRANCH  18  21
ENDBRANCH  16  17
BRANCH  16  83
HETATM   83  C   UNK N   1      37.044  14.133  10.388  0.00  0.00     0.137 C 
BRANCH  83  84
HETATM   84  C   UNK N   1      37.826  13.618   9.215  0.00  0.00     0.217 C 
HETATM   85  N   UNK N   1      39.022  13.036   9.415  0.00  0.00    -0.370 N 
HETATM   86  H   UNK N   1      39.089  12.200   9.931  0.00  0.00     0.159 HD
HETATM   87  H   UNK N   1      39.835  13.449   9.043  0.00  0.00     0.159 HD
HETATM   88  O   UNK N   1      37.394  13.732   8.078  0.00  0.00    -0.274 OA
ENDBRANCH  83  84
ENDBRANCH  16  83
ENDBRANCH  13  16
ENDBRANCH  11  12
ENDBRANCH   8  11
ENDBRANCH   6   7
BRANCH   6  89
HETATM   89  C   UNK N   1      32.813  14.315   8.566  0.00  0.00     0.144 C 
BRANCH  89  90
HETATM   90  C   UNK N   1      33.266  15.203   9.693  0.00  0.00     0.141 C 
HETATM   91  O   UNK N   1      34.038  16.125   9.494  0.00  0.00    -0.650 OA
BRANCH  90  92
HETATM   92  O   UNK N   1      32.802  14.985  10.933  0.00  0.00    -0.776 OA
HETATM   93  H   UNK N   1      32.545  14.124  11.197  0.00  0.00     0.167 HD
ENDBRANCH  90  92
ENDBRANCH  89  90
ENDBRANCH   6  89
ENDBRANCH   3   6
ENDBRANCH   1   2
BRANCH   1  94
HETATM   94  C   UNK N   1      35.980  10.885   4.997  0.00  0.00     0.073 C 
BRANCH  94  95
HETATM   95  C   UNK N   1      37.480  10.791   4.804  0.00  0.00    -0.056 A 
HETATM   96  C   UNK N   1      37.995  10.282   3.608  0.00  0.00     0.007 A 
HETATM   97  C   UNK N   1      39.380  10.198   3.417  0.00  0.00     0.001 A 
HETATM   98  C   UNK N   1      40.258  10.628   4.418  0.00  0.00     0.000 A 
HETATM   99  C   UNK N   1      39.753  11.145   5.613  0.00  0.00     0.001 A 
HETATM  100  C   UNK N   1      38.370  11.228   5.803  0.00  0.00     0.007 A 
ENDBRANCH  94  95
ENDBRANCH   1  94
BRANCH   1 101
HETATM  101  C   UNK N   1      35.874  13.591   4.652  0.00  0.00     0.241 C 
HETATM  102  O   UNK N   1      36.880  14.215   4.953  0.00  0.00    -0.271 OA
HETATM  103  N   UNK N   1      34.987  14.133   3.790  0.00  0.00    -0.346 N 
HETATM  104  H   UNK N   1      35.086  15.081   3.542  0.00  0.00     0.163 HD
BRANCH 103 105
HETATM  105  C   UNK N   1      33.898  13.374   3.216  0.00  0.00     0.177 C 
BRANCH 105 106
HETATM  106  C   UNK N   1      34.259  12.657   1.888  0.00  0.00     0.045 C 
BRANCH 106 107
HETATM  107  C   UNK N   1      35.739  12.768   1.505  0.00  0.00     0.112 C 
BRANCH 107 108
HETATM  108  C   UNK N   1      36.009  13.896   0.542  0.00  0.00     0.139 C 
HETATM  109  O   UNK N   1      35.314  14.898   0.548  0.00  0.00    -0.650 OA
BRANCH 108 110
HETATM  110  O   UNK N   1      37.004  13.792  -0.355  0.00  0.00    -0.776 OA
HETATM  111  H   UNK N   1      37.932  13.919  -0.349  0.00  0.00     0.167 HD
ENDBRANCH 108 110
ENDBRANCH 107 108
ENDBRANCH 106 107
ENDBRANCH 105 106
BRANCH 105 112
HETATM  112  C   UNK N   1      32.717  14.299   3.137  0.00  0.00     0.241 C 
HETATM  113  O   UNK N   1      32.034  14.312   2.121  0.00  0.00    -0.271 OA
HETATM  114  N   UNK N   1      32.467  15.169   4.139  0.00  0.00    -0.346 N 
HETATM  115  H   UNK N   1      32.980  15.083   4.973  0.00  0.00     0.163 HD
BRANCH 114 116
HETATM  116  C   UNK N   1      31.486  16.216   4.041  0.00  0.00     0.177 C 
BRANCH 116 117
HETATM  117  C   UNK N   1      32.135  17.523   4.522  0.00  0.00     0.045 C 
BRANCH 117 118
HETATM  118  C   UNK N   1      32.481  17.436   6.019  0.00  0.00     0.112 C 
BRANCH 118 119
HETATM  119  C   UNK N   1      33.933  17.323   6.350  0.00  0.00     0.139 C 
HETATM  120  O   UNK N   1      34.594  16.456   5.810  0.00  0.00    -0.650 OA
BRANCH 119 121
HETATM  121  O   UNK N   1      34.543  18.223   7.141  0.00  0.00    -0.776 OA
HETATM  122  H   UNK N   1      35.439  18.103   7.384  0.00  0.00     0.167 HD
ENDBRANCH 119 121
ENDBRANCH 118 119
ENDBRANCH 117 118
ENDBRANCH 116 117
BRANCH 116 123
HETATM  123  C   UNK N   1      30.335  15.878   4.948  0.00  0.00     0.241 C 
HETATM  124  O   UNK N   1      30.479  15.012   5.799  0.00  0.00    -0.271 OA
HETATM  125  N   UNK N   1      29.155  16.535   4.844  0.00  0.00    -0.346 N 
HETATM  126  H   UNK N   1      29.035  17.175   4.106  0.00  0.00     0.163 HD
BRANCH 125 127
HETATM  127  C   UNK N   1      28.057  16.331   5.782  0.00  0.00     0.180 C 
BRANCH 127 128
HETATM  128  C   UNK N   1      27.931  17.439   6.865  0.00  0.00     0.013 C 
HETATM  129  C   UNK N   1      28.154  18.864   6.384  0.00  0.00     0.012 C 
BRANCH 128 130
HETATM  130  C   UNK N   1      28.858  17.185   8.040  0.00  0.00     0.002 C 
HETATM  131  C   UNK N   1      28.188  17.590   9.337  0.00  0.00     0.005 C 
ENDBRANCH 128 130
ENDBRANCH 127 128
BRANCH 127 132
HETATM  132  C   UNK N   1      26.832  15.783   5.039  0.00  0.00     0.243 C 
HETATM  133  O   UNK N   1      25.928  16.574   4.830  0.00  0.00    -0.271 OA
HETATM  134  N   UNK N   1      26.700  14.489   4.590  0.00  0.00    -0.337 N 
HETATM  135  C   UNK N   1      27.696  13.472   4.718  0.00  0.00     0.127 C 
HETATM  136  C   UNK N   1      25.523  14.069   3.860  0.00  0.00     0.179 C 
HETATM  137  C   UNK N   1      27.078  12.218   4.125  0.00  0.00     0.022 C 
HETATM  138  C   UNK N   1      25.832  12.666   3.370  0.00  0.00     0.037 C 
BRANCH 136 139
HETATM  139  C   UNK N   1      24.277  14.062   4.699  0.00  0.00     0.241 C 
HETATM  140  O   UNK N   1      23.316  14.726   4.340  0.00  0.00    -0.271 OA
HETATM  141  N   UNK N   1      24.228  13.335   5.843  0.00  0.00    -0.346 N 
HETATM  142  H   UNK N   1      24.999  12.759   6.050  0.00  0.00     0.163 HD
BRANCH 141 143
HETATM  143  C   UNK N   1      23.128  13.346   6.777  0.00  0.00     0.177 C 
BRANCH 143 144
HETATM  144  C   UNK N   1      23.536  13.336   8.275  0.00  0.00     0.045 C 
BRANCH 144 145
HETATM  145  C   UNK N   1      22.391  13.788   9.191  0.00  0.00     0.112 C 
BRANCH 145 146
HETATM  146  C   UNK N   1      22.239  12.967  10.419  0.00  0.00     0.139 C 
HETATM  147  O   UNK N   1      21.125  12.615  10.769  0.00  0.00    -0.650 OA
BRANCH 146 148
HETATM  148  O   UNK N   1      23.305  12.691  11.191  0.00  0.00    -0.776 OA
HETATM  149  H   UNK N   1      24.212  12.565  10.992  0.00  0.00     0.167 HD
ENDBRANCH 146 148
ENDBRANCH 145 146
ENDBRANCH 144 145
ENDBRANCH 143 144
BRANCH 143 150
HETATM  150  C   UNK N   1      22.071  12.338   6.439  0.00  0.00     0.241 C 
HETATM  151  O   UNK N   1      21.705  11.510   7.262  0.00  0.00    -0.271 OA
HETATM  152  N   UNK N   1      21.372  12.545   5.316  0.00  0.00    -0.346 N 
HETATM  153  H   UNK N   1      21.834  12.900   4.521  0.00  0.00     0.163 HD
BRANCH 152 154
HETATM  154  C   UNK N   1      19.967  12.262   5.240  0.00  0.00     0.177 C 
BRANCH 154 155
HETATM  155  C   UNK N   1      19.695  11.098   4.268  0.00  0.00     0.045 C 
BRANCH 155 156
HETATM  156  C   UNK N   1      19.732   9.735   4.970  0.00  0.00     0.112 C 
BRANCH 156 157
HETATM  157  C   UNK N   1      20.990   8.976   4.724  0.00  0.00     0.139 C 
HETATM  158  O   UNK N   1      21.017   7.772   4.914  0.00  0.00    -0.650 OA
BRANCH 157 159
HETATM  159  O   UNK N   1      22.075   9.603   4.233  0.00  0.00    -0.776 OA
HETATM  160  H   UNK N   1      22.767  10.137   4.569  0.00  0.00     0.167 HD
ENDBRANCH 157 159
ENDBRANCH 156 157
ENDBRANCH 155 156
ENDBRANCH 154 155
BRANCH 154 161
HETATM  161  C   UNK N   1      19.370  13.519   4.673  0.00  0.00     0.241 C 
HETATM  162  O   UNK N   1      18.179  13.748   4.794  0.00  0.00    -0.271 OA
HETATM  163  N   UNK N   1      20.171  14.301   3.898  0.00  0.00    -0.346 N 
HETATM  164  H   UNK N   1      21.141  14.182   4.007  0.00  0.00     0.163 HD
BRANCH 163 165
HETATM  165  C   UNK N   1      19.749  15.284   2.937  0.00  0.00     0.180 C 
BRANCH 165 166
HETATM  166  C   UNK N   1      19.882  14.889   1.464  0.00  0.00     0.073 C 
BRANCH 166 167
HETATM  167  C   UNK N   1      21.046  14.017   1.160  0.00  0.00    -0.056 A 
HETATM  168  C   UNK N   1      22.312  14.583   0.990  0.00  0.00     0.010 A 
HETATM  169  C   UNK N   1      23.408  13.771   0.706  0.00  0.00     0.037 A 
HETATM  170  C   UNK N   1      23.241  12.390   0.585  0.00  0.00     0.065 A 
HETATM  171  C   UNK N   1      21.970  11.822   0.728  0.00  0.00     0.037 A 
HETATM  172  C   UNK N   1      20.869  12.638   1.008  0.00  0.00     0.010 A 
BRANCH 170 173
HETATM  173  O   UNK N   1      24.301  11.609   0.329  0.00  0.00    -0.361 OA
HETATM  174  H   UNK N   1      24.445  11.030  -0.394  0.00  0.00     0.217 HD
ENDBRANCH 170 173
ENDBRANCH 166 167
ENDBRANCH 165 166
BRANCH 165 175
HETATM  175  C   UNK N   1      20.053  16.651   3.471  0.00  0.00     0.241 C 
HETATM  176  O   UNK N   1      19.251  17.169   4.232  0.00  0.00    -0.271 OA
HETATM  177  N   UNK N   1      21.290  17.183   3.301  0.00  0.00    -0.345 N 
HETATM  178  H   UNK N   1      21.854  16.804   2.588  0.00  0.00     0.163 HD
BRANCH 177 179
HETATM  179  C   UNK N   1      21.843  18.269   4.091  0.00  0.00     0.182 C 
BRANCH 179 180
HETATM  180  C   UNK N   1      20.975  19.518   3.921  0.00  0.00     0.040 C 
BRANCH 180 181
HETATM  181  C   UNK N   1      21.552  20.509   2.910  0.00  0.00    -0.020 C 
HETATM  182  C   UNK N   1      23.063  20.391   2.848  0.00  0.00     0.009 C 
HETATM  183  C   UNK N   1      20.991  20.218   1.536  0.00  0.00     0.009 C 
ENDBRANCH 180 181
ENDBRANCH 179 180
BRANCH 179 184
HETATM  184  C   UNK N   1      22.119  17.975   5.546  0.00  0.00     0.163 C 
HETATM  185  O   UNK N   1      21.423  18.444   6.432  0.00  0.00    -0.648 OA
BRANCH 184 186
HETATM  186  O   UNK N   1      23.162  17.185   5.867  0.00  0.00    -0.775 OA
HETATM  187  H   UNK N   1      23.162  16.248   5.868  0.00  0.00     0.167 HD
ENDBRANCH 184 186
ENDBRANCH 179 184
ENDBRANCH 177 179
ENDBRANCH 165 175
ENDBRANCH 163 165
ENDBRANCH 154 161
ENDBRANCH 152 154
ENDBRANCH 143 150
ENDBRANCH 141 143
ENDBRANCH 136 139
ENDBRANCH 127 132
ENDBRANCH 125 127
ENDBRANCH 116 123
ENDBRANCH 114 116
ENDBRANCH 105 112
ENDBRANCH 103 105
ENDBRANCH   1 101
TORSDOF 74
ENDMDL
