MODEL 1
REMARK VINA RESULT:      -6.7      0.000      0.000
REMARK  3 active torsions:
REMARK  status: ('A' for Active; 'I' for Inactive)
REMARK    1  A    between atoms: C_10  and  O_15 
REMARK    2  A    between atoms: N_13  and  C_16 
REMARK    3  A    between atoms: C_16  and  C_17 
ROOT
HETATM    1  C   UNK N   1      36.116  10.794  16.037  0.00  0.00    -0.009 C 
HETATM    2  C   UNK N   1      35.742  11.697  17.206  0.00  0.00    -0.040 A 
HETATM    3  C   UNK N   1      37.014  11.571  15.058  0.00  0.00     0.028 C 
HETATM    4  C   UNK N   1      36.860   9.556  16.529  0.00  0.00     0.021 C 
HETATM    5  C   UNK N   1      34.835  10.367  15.311  0.00  0.00     0.044 C 
HETATM    6  C   UNK N   1      35.409  11.138  18.453  0.00  0.00     0.045 A 
HETATM    7  C   UNK N   1      35.684  13.104  17.041  0.00  0.00    -0.049 A 
HETATM    8  C   UNK N   1      36.231  12.790  14.549  0.00  0.00     0.232 C 
HETATM    9  C   UNK N   1      34.089  11.594  14.757  0.00  0.00     0.274 C 
HETATM   10  C   UNK N   1      35.053  11.956  19.526  0.00  0.00     0.066 A 
HETATM   11  C   UNK N   1      36.004  13.766  15.719  0.00  0.00     0.075 C 
HETATM   12  C   UNK N   1      35.326  13.912  18.126  0.00  0.00     0.010 A 
HETATM   13  N   UNK N   1      34.942  12.432  13.902  0.00  0.00     0.097 N 
HETATM   14  C   UNK N   1      35.014  13.342  19.363  0.00  0.00     0.037 A 
HETATM   15  C   UNK N   1      37.561  10.723  13.911  0.00  0.00     0.013 C 
ENDROOT
BRANCH  13  16
HETATM   16  C   UNK N   1      35.095  11.749  12.612  0.00  0.00     0.300 C 
BRANCH  16  17
HETATM   17  C   UNK N   1      34.901  12.651  11.421  0.00  0.00     0.005 C 
HETATM   18  C   UNK N   1      35.896  13.241  10.750  0.00  0.00    -0.090 C 
HETATM   19  C   UNK N   1      35.562  14.136   9.609  0.00  0.00     0.042 C 
HETATM   20  C   UNK N   1      37.329  13.038  11.122  0.00  0.00     0.042 C 
ENDBRANCH  16  17
ENDBRANCH  13  16
BRANCH  10  21
HETATM   21  O   UNK N   1      34.752  11.409  20.714  0.00  0.00    -0.361 OA
HETATM   22  H   UNK N   1      35.408  11.196  21.347  0.00  0.00     0.217 HD
ENDBRANCH  10  21
TORSDOF 3
ENDMDL
MODEL 2
REMARK VINA RESULT:      -6.6     21.857     25.207
REMARK  3 active torsions:
REMARK  status: ('A' for Active; 'I' for Inactive)
REMARK    1  A    between atoms: C_10  and  O_15 
REMARK    2  A    between atoms: N_13  and  C_16 
REMARK    3  A    between atoms: C_16  and  C_17 
ROOT
HETATM    1  C   UNK N   1      28.201  23.957  -4.236  0.00  0.00    -0.009 C 
HETATM    2  C   UNK N   1      29.291  22.896  -4.317  0.00  0.00    -0.040 A 
HETATM    3  C   UNK N   1      27.079  23.616  -5.233  0.00  0.00     0.028 C 
HETATM    4  C   UNK N   1      27.619  24.024  -2.826  0.00  0.00     0.021 C 
HETATM    5  C   UNK N   1      28.804  25.317  -4.606  0.00  0.00     0.044 C 
HETATM    6  C   UNK N   1      30.124  22.651  -3.211  0.00  0.00     0.045 A 
HETATM    7  C   UNK N   1      29.506  22.174  -5.519  0.00  0.00    -0.049 A 
HETATM    8  C   UNK N   1      27.681  23.591  -6.645  0.00  0.00     0.232 C 
HETATM    9  C   UNK N   1      29.353  25.295  -6.043  0.00  0.00     0.274 C 
HETATM   10  C   UNK N   1      31.133  21.689  -3.281  0.00  0.00     0.066 A 
HETATM   11  C   UNK N   1      28.663  22.409  -6.753  0.00  0.00     0.075 C 
HETATM   12  C   UNK N   1      30.522  21.213  -5.574  0.00  0.00     0.010 A 
HETATM   13  N   UNK N   1      28.345  24.866  -7.024  0.00  0.00     0.097 N 
HETATM   14  C   UNK N   1      31.330  20.969  -4.461  0.00  0.00     0.037 A 
HETATM   15  C   UNK N   1      25.867  24.542  -5.144  0.00  0.00     0.013 C 
ENDROOT
BRANCH  13  16
HETATM   16  C   UNK N   1      27.414  25.981  -7.231  0.00  0.00     0.300 C 
BRANCH  16  17
HETATM   17  C   UNK N   1      28.083  27.331  -7.271  0.00  0.00     0.005 C 
HETATM   18  C   UNK N   1      27.725  28.373  -6.514  0.00  0.00    -0.090 C 
HETATM   19  C   UNK N   1      28.451  29.663  -6.678  0.00  0.00     0.042 C 
HETATM   20  C   UNK N   1      26.614  28.284  -5.520  0.00  0.00     0.042 C 
ENDBRANCH  16  17
ENDBRANCH  13  16
BRANCH  10  21
HETATM   21  O   UNK N   1      31.911  21.456  -2.212  0.00  0.00    -0.361 OA
HETATM   22  H   UNK N   1      31.563  21.391  -1.345  0.00  0.00     0.217 HD
ENDBRANCH  10  21
TORSDOF 3
ENDMDL
MODEL 3
REMARK VINA RESULT:      -6.5      1.717      2.276
REMARK  3 active torsions:
REMARK  status: ('A' for Active; 'I' for Inactive)
REMARK    1  A    between atoms: C_10  and  O_15 
REMARK    2  A    between atoms: N_13  and  C_16 
REMARK    3  A    between atoms: C_16  and  C_17 
ROOT
HETATM    1  C   UNK N   1      36.328  10.391  15.801  0.00  0.00    -0.009 C 
HETATM    2  C   UNK N   1      35.885  11.434  16.819  0.00  0.00    -0.040 A 
HETATM    3  C   UNK N   1      37.120  11.079  14.674  0.00  0.00     0.028 C 
HETATM    4  C   UNK N   1      37.207   9.332  16.461  0.00  0.00     0.021 C 
HETATM    5  C   UNK N   1      35.084   9.723  15.202  0.00  0.00     0.044 C 
HETATM    6  C   UNK N   1      35.638  11.060  18.152  0.00  0.00     0.045 A 
HETATM    7  C   UNK N   1      35.677  12.781  16.428  0.00  0.00    -0.049 A 
HETATM    8  C   UNK N   1      36.204  12.112  14.003  0.00  0.00     0.232 C 
HETATM    9  C   UNK N   1      34.203  10.760  14.484  0.00  0.00     0.274 C 
HETATM   10  C   UNK N   1      35.220  12.007  19.089  0.00  0.00     0.066 A 
HETATM   11  C   UNK N   1      35.899  13.242  15.004  0.00  0.00     0.075 C 
HETATM   12  C   UNK N   1      35.259  13.719  17.378  0.00  0.00     0.010 A 
HETATM   13  N   UNK N   1      34.946  11.525  13.471  0.00  0.00     0.097 N 
HETATM   14  C   UNK N   1      35.034  13.336  18.703  0.00  0.00     0.037 A 
HETATM   15  C   UNK N   1      37.729  10.110  13.663  0.00  0.00     0.013 C 
ENDROOT
BRANCH  13  16
HETATM   16  C   UNK N   1      35.144  10.655  12.306  0.00  0.00     0.300 C 
BRANCH  16  17
HETATM   17  C   UNK N   1      33.878  10.368  11.540  0.00  0.00     0.005 C 
HETATM   18  C   UNK N   1      33.548   9.168  11.050  0.00  0.00    -0.090 C 
HETATM   19  C   UNK N   1      32.279   9.030  10.283  0.00  0.00     0.042 C 
HETATM   20  C   UNK N   1      34.418   7.970  11.241  0.00  0.00     0.042 C 
ENDBRANCH  16  17
ENDBRANCH  13  16
BRANCH  10  21
HETATM   21  O   UNK N   1      35.002  11.639  20.361  0.00  0.00    -0.361 OA
HETATM   22  H   UNK N   1      35.208  10.781  20.676  0.00  0.00     0.217 HD
ENDBRANCH  10  21
TORSDOF 3
ENDMDL
MODEL 4
REMARK VINA RESULT:      -6.4      6.818     11.086
REMARK  3 active torsions:
REMARK  status: ('A' for Active; 'I' for Inactive)
REMARK    1  A    between atoms: C_10  and  O_15 
REMARK    2  A    between atoms: N_13  and  C_16 
REMARK    3  A    between atoms: C_16  and  C_17 
ROOT
HETATM    1  C   UNK N   1      32.334  16.245   6.265  0.00  0.00    -0.009 C 
HETATM    2  C   UNK N   1      30.981  16.943   6.283  0.00  0.00    -0.040 A 
HETATM    3  C   UNK N   1      32.450  15.321   7.491  0.00  0.00     0.028 C 
HETATM    4  C   UNK N   1      32.497  15.417   4.993  0.00  0.00     0.021 C 
HETATM    5  C   UNK N   1      33.441  17.305   6.331  0.00  0.00     0.044 C 
HETATM    6  C   UNK N   1      30.402  17.395   5.084  0.00  0.00     0.045 A 
HETATM    7  C   UNK N   1      30.309  17.183   7.508  0.00  0.00    -0.049 A 
HETATM    8  C   UNK N   1      32.320  16.180   8.756  0.00  0.00     0.232 C 
HETATM    9  C   UNK N   1      33.333  18.122   7.631  0.00  0.00     0.274 C 
HETATM   10  C   UNK N   1      29.168  18.047   5.092  0.00  0.00     0.066 A 
HETATM   11  C   UNK N   1      30.890  16.747   8.836  0.00  0.00     0.075 C 
HETATM   12  C   UNK N   1      29.072  17.837   7.501  0.00  0.00     0.010 A 
HETATM   13  N   UNK N   1      33.326  17.272   8.831  0.00  0.00     0.097 N 
HETATM   14  C   UNK N   1      28.502  18.266   6.299  0.00  0.00     0.037 A 
HETATM   15  C   UNK N   1      33.716  14.466   7.506  0.00  0.00     0.013 C 
ENDROOT
BRANCH  13  16
HETATM   16  C   UNK N   1      34.697  16.801   9.057  0.00  0.00     0.300 C 
BRANCH  16  17
HETATM   17  C   UNK N   1      34.981  16.421  10.487  0.00  0.00     0.005 C 
HETATM   18  C   UNK N   1      35.830  15.457  10.858  0.00  0.00    -0.090 C 
HETATM   19  C   UNK N   1      35.993  15.162  12.308  0.00  0.00     0.042 C 
HETATM   20  C   UNK N   1      36.609  14.663   9.861  0.00  0.00     0.042 C 
ENDBRANCH  16  17
ENDBRANCH  13  16
BRANCH  10  21
HETATM   21  O   UNK N   1      28.622  18.460   3.938  0.00  0.00    -0.361 OA
HETATM   22  H   UNK N   1      27.875  18.038   3.558  0.00  0.00     0.217 HD
ENDBRANCH  10  21
TORSDOF 3
ENDMDL
MODEL 5
REMARK VINA RESULT:      -6.3     24.660     27.437
REMARK  3 active torsions:
REMARK  status: ('A' for Active; 'I' for Inactive)
REMARK    1  A    between atoms: C_10  and  O_15 
REMARK    2  A    between atoms: N_13  and  C_16 
REMARK    3  A    between atoms: C_16  and  C_17 
ROOT
HETATM    1  C   UNK N   1      27.605  27.138  -7.220  0.00  0.00    -0.009 C 
HETATM    2  C   UNK N   1      27.141  28.005  -6.057  0.00  0.00    -0.040 A 
HETATM    3  C   UNK N   1      26.401  26.379  -7.805  0.00  0.00     0.028 C 
HETATM    4  C   UNK N   1      28.239  27.996  -8.312  0.00  0.00     0.021 C 
HETATM    5  C   UNK N   1      28.634  26.125  -6.704  0.00  0.00     0.044 C 
HETATM    6  C   UNK N   1      27.864  29.157  -5.701  0.00  0.00     0.045 A 
HETATM    7  C   UNK N   1      26.002  27.640  -5.294  0.00  0.00    -0.049 A 
HETATM    8  C   UNK N   1      25.804  25.496  -6.700  0.00  0.00     0.232 C 
HETATM    9  C   UNK N   1      28.007  25.210  -5.637  0.00  0.00     0.274 C 
HETATM   10  C   UNK N   1      27.453  29.950  -4.628  0.00  0.00     0.066 A 
HETATM   11  C   UNK N   1      25.197  26.398  -5.608  0.00  0.00     0.075 C 
HETATM   12  C   UNK N   1      25.602  28.445  -4.223  0.00  0.00     0.010 A 
HETATM   13  N   UNK N   1      26.785  24.545  -6.113  0.00  0.00     0.097 N 
HETATM   14  C   UNK N   1      26.321  29.596  -3.892  0.00  0.00     0.037 A 
HETATM   15  C   UNK N   1      26.725  25.578  -9.065  0.00  0.00     0.013 C 
ENDROOT
BRANCH  13  16
HETATM   16  C   UNK N   1      27.185  23.468  -7.026  0.00  0.00     0.300 C 
BRANCH  16  17
HETATM   17  C   UNK N   1      28.357  22.659  -6.534  0.00  0.00     0.005 C 
HETATM   18  C   UNK N   1      28.740  21.489  -7.057  0.00  0.00    -0.090 C 
HETATM   19  C   UNK N   1      29.899  20.776  -6.451  0.00  0.00     0.042 C 
HETATM   20  C   UNK N   1      28.032  20.874  -8.219  0.00  0.00     0.042 C 
ENDBRANCH  16  17
ENDBRANCH  13  16
BRANCH  10  21
HETATM   21  O   UNK N   1      28.144  31.055  -4.309  0.00  0.00    -0.361 OA
HETATM   22  H   UNK N   1      27.948  31.567  -3.550  0.00  0.00     0.217 HD
ENDBRANCH  10  21
TORSDOF 3
ENDMDL
MODEL 6
REMARK VINA RESULT:      -6.2     16.090     19.087
REMARK  3 active torsions:
REMARK  status: ('A' for Active; 'I' for Inactive)
REMARK    1  A    between atoms: C_10  and  O_15 
REMARK    2  A    between atoms: N_13  and  C_16 
REMARK    3  A    between atoms: C_16  and  C_17 
ROOT
HETATM    1  C   UNK N   1      22.745  17.067   4.290  0.00  0.00    -0.009 C 
HETATM    2  C   UNK N   1      21.829  18.098   3.643  0.00  0.00    -0.040 A 
HETATM    3  C   UNK N   1      22.351  15.658   3.811  0.00  0.00     0.028 C 
HETATM    4  C   UNK N   1      24.202  17.336   3.922  0.00  0.00     0.021 C 
HETATM    5  C   UNK N   1      22.580  17.143   5.813  0.00  0.00     0.044 C 
HETATM    6  C   UNK N   1      22.266  19.422   3.467  0.00  0.00     0.045 A 
HETATM    7  C   UNK N   1      20.513  17.746   3.249  0.00  0.00    -0.049 A 
HETATM    8  C   UNK N   1      20.896  15.398   4.224  0.00  0.00     0.232 C 
HETATM    9  C   UNK N   1      21.129  16.825   6.217  0.00  0.00     0.274 C 
HETATM   10  C   UNK N   1      21.429  20.375   2.885  0.00  0.00     0.066 A 
HETATM   11  C   UNK N   1      19.971  16.345   3.436  0.00  0.00     0.075 C 
HETATM   12  C   UNK N   1      19.684  18.712   2.667  0.00  0.00     0.010 A 
HETATM   13  N   UNK N   1      20.667  15.534   5.687  0.00  0.00     0.097 N 
HETATM   14  C   UNK N   1      20.140  20.020   2.484  0.00  0.00     0.037 A 
HETATM   15  C   UNK N   1      23.290  14.554   4.293  0.00  0.00     0.013 C 
ENDROOT
BRANCH  13  16
HETATM   16  C   UNK N   1      21.288  14.471   6.486  0.00  0.00     0.300 C 
BRANCH  16  17
HETATM   17  C   UNK N   1      20.785  14.404   7.904  0.00  0.00     0.005 C 
HETATM   18  C   UNK N   1      21.156  13.478   8.794  0.00  0.00    -0.090 C 
HETATM   19  C   UNK N   1      20.556  13.509  10.156  0.00  0.00     0.042 C 
HETATM   20  C   UNK N   1      22.145  12.410   8.458  0.00  0.00     0.042 C 
ENDBRANCH  16  17
ENDBRANCH  13  16
BRANCH  10  21
HETATM   21  O   UNK N   1      21.866  21.632   2.710  0.00  0.00    -0.361 OA
HETATM   22  H   UNK N   1      22.275  22.120   3.398  0.00  0.00     0.217 HD
ENDBRANCH  10  21
TORSDOF 3
ENDMDL
MODEL 7
REMARK VINA RESULT:      -6.1     10.637     12.363
REMARK  3 active torsions:
REMARK  status: ('A' for Active; 'I' for Inactive)
REMARK    1  A    between atoms: C_10  and  O_15 
REMARK    2  A    between atoms: N_13  and  C_16 
REMARK    3  A    between atoms: C_16  and  C_17 
ROOT
HETATM    1  C   UNK N   1      31.597  17.005   6.226  0.00  0.00    -0.009 C 
HETATM    2  C   UNK N   1      30.448  17.555   7.061  0.00  0.00    -0.040 A 
HETATM    3  C   UNK N   1      31.434  17.464   4.765  0.00  0.00     0.028 C 
HETATM    4  C   UNK N   1      32.938  17.498   6.762  0.00  0.00     0.021 C 
HETATM    5  C   UNK N   1      31.558  15.472   6.276  0.00  0.00     0.044 C 
HETATM    6  C   UNK N   1      30.611  17.753   8.443  0.00  0.00     0.045 A 
HETATM    7  C   UNK N   1      29.192  17.834   6.465  0.00  0.00    -0.049 A 
HETATM    8  C   UNK N   1      30.097  16.925   4.237  0.00  0.00     0.232 C 
HETATM    9  C   UNK N   1      30.235  14.944   5.692  0.00  0.00     0.274 C 
HETATM   10  C   UNK N   1      29.560  18.246   9.219  0.00  0.00     0.066 A 
HETATM   11  C   UNK N   1      28.943  17.616   4.989  0.00  0.00     0.075 C 
HETATM   12  C   UNK N   1      28.148  18.327   7.255  0.00  0.00     0.010 A 
HETATM   13  N   UNK N   1      29.979  15.446   4.334  0.00  0.00     0.097 N 
HETATM   14  C   UNK N   1      28.330  18.535   8.625  0.00  0.00     0.037 A 
HETATM   15  C   UNK N   1      32.603  17.080   3.860  0.00  0.00     0.013 C 
ENDROOT
BRANCH  13  16
HETATM   16  C   UNK N   1      30.858  14.719   3.412  0.00  0.00     0.300 C 
BRANCH  16  17
HETATM   17  C   UNK N   1      30.269  13.431   2.900  0.00  0.00     0.005 C 
HETATM   18  C   UNK N   1      29.198  13.354   2.102  0.00  0.00    -0.090 C 
HETATM   19  C   UNK N   1      28.699  12.012   1.696  0.00  0.00     0.042 C 
HETATM   20  C   UNK N   1      28.485  14.574   1.618  0.00  0.00     0.042 C 
ENDBRANCH  16  17
ENDBRANCH  13  16
BRANCH  10  21
HETATM   21  O   UNK N   1      29.735  18.444  10.535  0.00  0.00    -0.361 OA
HETATM   22  H   UNK N   1      30.245  17.863  11.065  0.00  0.00     0.217 HD
ENDBRANCH  10  21
TORSDOF 3
ENDMDL
MODEL 8
REMARK VINA RESULT:      -6.1      9.874     11.631
REMARK  3 active torsions:
REMARK  status: ('A' for Active; 'I' for Inactive)
REMARK    1  A    between atoms: C_10  and  O_15 
REMARK    2  A    between atoms: N_13  and  C_16 
REMARK    3  A    between atoms: C_16  and  C_17 
ROOT
HETATM    1  C   UNK N   1      31.866  16.995   7.378  0.00  0.00    -0.009 C 
HETATM    2  C   UNK N   1      30.402  17.374   7.190  0.00  0.00    -0.040 A 
HETATM    3  C   UNK N   1      32.660  17.380   6.117  0.00  0.00     0.028 C 
HETATM    4  C   UNK N   1      32.458  17.714   8.586  0.00  0.00     0.021 C 
HETATM    5  C   UNK N   1      31.962  15.478   7.587  0.00  0.00     0.044 C 
HETATM    6  C   UNK N   1      29.590  17.634   8.308  0.00  0.00     0.045 A 
HETATM    7  C   UNK N   1      29.832  17.428   5.893  0.00  0.00    -0.049 A 
HETATM    8  C   UNK N   1      32.070  16.616   4.923  0.00  0.00     0.232 C 
HETATM    9  C   UNK N   1      31.419  14.725   6.359  0.00  0.00     0.274 C 
HETATM   10  C   UNK N   1      28.245  17.971   8.145  0.00  0.00     0.066 A 
HETATM   11  C   UNK N   1      30.644  17.131   4.651  0.00  0.00     0.075 C 
HETATM   12  C   UNK N   1      28.482  17.766   5.746  0.00  0.00     0.010 A 
HETATM   13  N   UNK N   1      32.072  15.141   5.109  0.00  0.00     0.097 N 
HETATM   14  C   UNK N   1      27.692  18.039   6.865  0.00  0.00     0.037 A 
HETATM   15  C   UNK N   1      34.168  17.167   6.245  0.00  0.00     0.013 C 
ENDROOT
BRANCH  13  16
HETATM   16  C   UNK N   1      33.411  14.542   5.079  0.00  0.00     0.300 C 
BRANCH  16  17
HETATM   17  C   UNK N   1      34.092  14.644   3.739  0.00  0.00     0.005 C 
HETATM   18  C   UNK N   1      34.051  13.695   2.798  0.00  0.00    -0.090 C 
HETATM   19  C   UNK N   1      34.798  13.910   1.528  0.00  0.00     0.042 C 
HETATM   20  C   UNK N   1      33.290  12.424   2.989  0.00  0.00     0.042 C 
ENDBRANCH  16  17
ENDBRANCH  13  16
BRANCH  10  21
HETATM   21  O   UNK N   1      27.486  18.231   9.221  0.00  0.00    -0.361 OA
HETATM   22  H   UNK N   1      27.820  18.679   9.973  0.00  0.00     0.217 HD
ENDBRANCH  10  21
TORSDOF 3
ENDMDL
MODEL 9
REMARK VINA RESULT:      -6.0     10.517     11.979
REMARK  3 active torsions:
REMARK  status: ('A' for Active; 'I' for Inactive)
REMARK    1  A    between atoms: C_10  and  O_15 
REMARK    2  A    between atoms: N_13  and  C_16 
REMARK    3  A    between atoms: C_16  and  C_17 
ROOT
HETATM    1  C   UNK N   1      29.484  15.955   5.661  0.00  0.00    -0.009 C 
HETATM    2  C   UNK N   1      29.596  16.861   6.881  0.00  0.00    -0.040 A 
HETATM    3  C   UNK N   1      30.576  14.872   5.725  0.00  0.00     0.028 C 
HETATM    4  C   UNK N   1      28.113  15.286   5.612  0.00  0.00     0.021 C 
HETATM    5  C   UNK N   1      29.687  16.797   4.396  0.00  0.00     0.044 C 
HETATM    6  C   UNK N   1      28.469  17.556   7.352  0.00  0.00     0.045 A 
HETATM    7  C   UNK N   1      30.844  17.047   7.528  0.00  0.00    -0.049 A 
HETATM    8  C   UNK N   1      31.944  15.567   5.737  0.00  0.00     0.232 C 
HETATM    9  C   UNK N   1      31.084  17.443   4.394  0.00  0.00     0.274 C 
HETATM   10  C   UNK N   1      28.566  18.398   8.461  0.00  0.00     0.066 A 
HETATM   11  C   UNK N   1      32.101  16.350   7.054  0.00  0.00     0.075 C 
HETATM   12  C   UNK N   1      30.926  17.894   8.639  0.00  0.00     0.010 A 
HETATM   13  N   UNK N   1      32.161  16.457   4.565  0.00  0.00     0.097 N 
HETATM   14  C   UNK N   1      29.793  18.565   9.105  0.00  0.00     0.037 A 
HETATM   15  C   UNK N   1      30.475  13.823   4.619  0.00  0.00     0.013 C 
ENDROOT
BRANCH  13  16
HETATM   16  C   UNK N   1      32.320  15.738   3.296  0.00  0.00     0.300 C 
BRANCH  16  17
HETATM   17  C   UNK N   1      33.708  15.195   3.075  0.00  0.00     0.005 C 
HETATM   18  C   UNK N   1      33.976  14.023   2.489  0.00  0.00    -0.090 C 
HETATM   19  C   UNK N   1      35.395  13.590   2.363  0.00  0.00     0.042 C 
HETATM   20  C   UNK N   1      32.894  13.133   1.971  0.00  0.00     0.042 C 
ENDBRANCH  16  17
ENDBRANCH  13  16
BRANCH  10  21
HETATM   21  O   UNK N   1      27.478  19.044   8.908  0.00  0.00    -0.361 OA
HETATM   22  H   UNK N   1      27.323  19.950   8.725  0.00  0.00     0.217 HD
ENDBRANCH  10  21
TORSDOF 3
ENDMDL
