MODEL 1
REMARK VINA RESULT:      -4.3      0.000      0.000
REMARK  2 active torsions:
REMARK  status: ('A' for Active; 'I' for Inactive)
REMARK    1  A    between atoms: C_2  and  C_3 
REMARK    2  A    between atoms: C_3  and  C_4 
ROOT
HETATM    1  C   UNK N   1      25.957  27.636  -4.769  0.00  0.00     0.434 C 
HETATM    2  F   UNK N   1      25.158  28.114  -3.743  0.00  0.00    -0.186 F 
HETATM    3  F   UNK N   1      26.526  28.716  -5.421  0.00  0.00    -0.186 F 
ENDROOT
BRANCH   1   4
HETATM    4  C   UNK N   1      27.082  26.786  -4.157  0.00  0.00     0.464 C 
HETATM    5  F   UNK N   1      26.589  25.959  -3.162  0.00  0.00    -0.165 F 
HETATM    6  F   UNK N   1      27.695  26.012  -5.126  0.00  0.00    -0.165 F 
HETATM    7  F   UNK N   1      28.031  27.625  -3.601  0.00  0.00    -0.165 F 
ENDBRANCH   1   4
BRANCH   1   8
HETATM    8  C   UNK N   1      25.069  26.874  -5.765  0.00  0.00     0.464 C 
HETATM    9  F   UNK N   1      23.823  27.475  -5.810  0.00  0.00    -0.165 F 
HETATM   10  F   UNK N   1      24.907  25.557  -5.372  0.00  0.00    -0.165 F 
HETATM   11  F   UNK N   1      25.616  26.904  -7.036  0.00  0.00    -0.165 F 
ENDBRANCH   1   8
TORSDOF 2
ENDMDL
MODEL 2
REMARK VINA RESULT:      -4.3      0.026      3.224
REMARK  2 active torsions:
REMARK  status: ('A' for Active; 'I' for Inactive)
REMARK    1  A    between atoms: C_2  and  C_3 
REMARK    2  A    between atoms: C_3  and  C_4 
ROOT
HETATM    1  C   UNK N   1      25.959  27.640  -4.769  0.00  0.00     0.434 C 
HETATM    2  F   UNK N   1      26.548  28.700  -5.440  0.00  0.00    -0.186 F 
HETATM    3  F   UNK N   1      25.177  28.149  -3.747  0.00  0.00    -0.186 F 
ENDROOT
BRANCH   1   4
HETATM    4  C   UNK N   1      25.049  26.886  -5.752  0.00  0.00     0.464 C 
HETATM    5  F   UNK N   1      24.905  25.562  -5.374  0.00  0.00    -0.165 F 
HETATM    6  F   UNK N   1      23.800  27.478  -5.818  0.00  0.00    -0.165 F 
HETATM    7  F   UNK N   1      25.618  26.923  -7.013  0.00  0.00    -0.165 F 
ENDBRANCH   1   4
BRANCH   1   8
HETATM    8  C   UNK N   1      27.069  26.774  -4.154  0.00  0.00     0.464 C 
HETATM    9  F   UNK N   1      28.024  27.601  -3.587  0.00  0.00    -0.165 F 
HETATM   10  F   UNK N   1      27.680  25.997  -5.122  0.00  0.00    -0.165 F 
HETATM   11  F   UNK N   1      26.559  25.951  -3.166  0.00  0.00    -0.165 F 
ENDBRANCH   1   8
TORSDOF 2
ENDMDL
MODEL 3
REMARK VINA RESULT:      -4.3      0.953      3.197
REMARK  2 active torsions:
REMARK  status: ('A' for Active; 'I' for Inactive)
REMARK    1  A    between atoms: C_2  and  C_3 
REMARK    2  A    between atoms: C_3  and  C_4 
ROOT
HETATM    1  C   UNK N   1      26.453  27.513  -5.357  0.00  0.00     0.434 C 
HETATM    2  F   UNK N   1      27.463  26.573  -5.230  0.00  0.00    -0.186 F 
HETATM    3  F   UNK N   1      26.862  28.476  -6.262  0.00  0.00    -0.186 F 
ENDROOT
BRANCH   1   4
HETATM    4  C   UNK N   1      25.203  26.814  -5.917  0.00  0.00     0.464 C 
HETATM    5  F   UNK N   1      25.030  25.572  -5.334  0.00  0.00    -0.165 F 
HETATM    6  F   UNK N   1      24.072  27.581  -5.696  0.00  0.00    -0.165 F 
HETATM    7  F   UNK N   1      25.355  26.642  -7.281  0.00  0.00    -0.165 F 
ENDBRANCH   1   4
BRANCH   1   8
HETATM    8  C   UNK N   1      26.235  28.183  -3.992  0.00  0.00     0.464 C 
HETATM    9  F   UNK N   1      27.436  28.203  -3.303  0.00  0.00    -0.165 F 
HETATM   10  F   UNK N   1      25.310  27.481  -3.241  0.00  0.00    -0.165 F 
HETATM   11  F   UNK N   1      25.798  29.487  -4.148  0.00  0.00    -0.165 F 
ENDBRANCH   1   8
TORSDOF 2
ENDMDL
MODEL 4
REMARK VINA RESULT:      -4.3      0.907      2.636
REMARK  2 active torsions:
REMARK  status: ('A' for Active; 'I' for Inactive)
REMARK    1  A    between atoms: C_2  and  C_3 
REMARK    2  A    between atoms: C_3  and  C_4 
ROOT
HETATM    1  C   UNK N   1      26.045  25.860  -5.215  0.00  0.00     0.434 C 
HETATM    2  F   UNK N   1      27.122  25.359  -5.930  0.00  0.00    -0.186 F 
HETATM    3  F   UNK N   1      25.107  24.852  -5.073  0.00  0.00    -0.186 F 
ENDROOT
BRANCH   1   4
HETATM    4  C   UNK N   1      26.536  26.272  -3.818  0.00  0.00     0.464 C 
HETATM    5  F   UNK N   1      27.770  26.893  -3.892  0.00  0.00    -0.165 F 
HETATM    6  F   UNK N   1      25.633  27.130  -3.214  0.00  0.00    -0.165 F 
HETATM    7  F   UNK N   1      26.660  25.142  -3.030  0.00  0.00    -0.165 F 
ENDBRANCH   1   4
BRANCH   1   8
HETATM    8  C   UNK N   1      25.416  27.007  -6.021  0.00  0.00     0.464 C 
HETATM    9  F   UNK N   1      25.431  26.675  -7.365  0.00  0.00    -0.165 F 
HETATM   10  F   UNK N   1      26.131  28.179  -5.849  0.00  0.00    -0.165 F 
HETATM   11  F   UNK N   1      24.103  27.215  -5.636  0.00  0.00    -0.165 F 
ENDBRANCH   1   8
TORSDOF 2
ENDMDL
MODEL 5
REMARK VINA RESULT:      -4.3      0.958      2.222
REMARK  2 active torsions:
REMARK  status: ('A' for Active; 'I' for Inactive)
REMARK    1  A    between atoms: C_2  and  C_3 
REMARK    2  A    between atoms: C_3  and  C_4 
ROOT
HETATM    1  C   UNK N   1      26.465  27.521  -5.359  0.00  0.00     0.434 C 
HETATM    2  F   UNK N   1      26.876  28.498  -6.252  0.00  0.00    -0.186 F 
HETATM    3  F   UNK N   1      27.474  26.581  -5.244  0.00  0.00    -0.186 F 
ENDROOT
BRANCH   1   4
HETATM    4  C   UNK N   1      26.246  28.175  -3.986  0.00  0.00     0.464 C 
HETATM    5  F   UNK N   1      25.297  27.482  -3.255  0.00  0.00    -0.165 F 
HETATM    6  F   UNK N   1      27.429  28.217  -3.268  0.00  0.00    -0.165 F 
HETATM    7  F   UNK N   1      25.799  29.472  -4.169  0.00  0.00    -0.165 F 
ENDBRANCH   1   4
BRANCH   1   8
HETATM    8  C   UNK N   1      25.216  26.832  -5.930  0.00  0.00     0.464 C 
HETATM    9  F   UNK N   1      25.062  25.599  -5.321  0.00  0.00    -0.165 F 
HETATM   10  F   UNK N   1      25.342  26.636  -7.294  0.00  0.00    -0.165 F 
HETATM   11  F   UNK N   1      24.083  27.587  -5.683  0.00  0.00    -0.165 F 
ENDBRANCH   1   8
TORSDOF 2
ENDMDL
MODEL 6
REMARK VINA RESULT:      -4.2      0.898      3.385
REMARK  2 active torsions:
REMARK  status: ('A' for Active; 'I' for Inactive)
REMARK    1  A    between atoms: C_2  and  C_3 
REMARK    2  A    between atoms: C_3  and  C_4 
ROOT
HETATM    1  C   UNK N   1      26.058  25.855  -5.207  0.00  0.00     0.434 C 
HETATM    2  F   UNK N   1      25.140  24.826  -5.072  0.00  0.00    -0.186 F 
HETATM    3  F   UNK N   1      27.158  25.373  -5.894  0.00  0.00    -0.186 F 
ENDROOT
BRANCH   1   4
HETATM    4  C   UNK N   1      25.415  26.977  -6.037  0.00  0.00     0.464 C 
HETATM    5  F   UNK N   1      25.422  26.660  -7.384  0.00  0.00    -0.165 F 
HETATM    6  F   UNK N   1      24.112  27.203  -5.631  0.00  0.00    -0.165 F 
HETATM    7  F   UNK N   1      26.138  28.143  -5.857  0.00  0.00    -0.165 F 
ENDBRANCH   1   4
BRANCH   1   8
HETATM    8  C   UNK N   1      26.508  26.294  -3.805  0.00  0.00     0.464 C 
HETATM    9  F   UNK N   1      27.737  26.923  -3.902  0.00  0.00    -0.165 F 
HETATM   10  F   UNK N   1      26.639  25.202  -2.965  0.00  0.00    -0.165 F 
HETATM   11  F   UNK N   1      25.603  27.184  -3.254  0.00  0.00    -0.165 F 
ENDBRANCH   1   8
TORSDOF 2
ENDMDL
MODEL 7
REMARK VINA RESULT:      -4.2     19.798     21.237
REMARK  2 active torsions:
REMARK  status: ('A' for Active; 'I' for Inactive)
REMARK    1  A    between atoms: C_2  and  C_3 
REMARK    2  A    between atoms: C_3  and  C_4 
ROOT
HETATM    1  C   UNK N   1      22.905  12.180  10.553  0.00  0.00     0.434 C 
HETATM    2  F   UNK N   1      22.794  10.799  10.531  0.00  0.00    -0.186 F 
HETATM    3  F   UNK N   1      23.156  12.578  11.854  0.00  0.00    -0.186 F 
ENDROOT
BRANCH   1   4
HETATM    4  C   UNK N   1      24.098  12.589   9.676  0.00  0.00     0.464 C 
HETATM    5  F   UNK N   1      23.784  13.688   8.895  0.00  0.00    -0.165 F 
HETATM    6  F   UNK N   1      25.201  12.889  10.457  0.00  0.00    -0.165 F 
HETATM    7  F   UNK N   1      24.427  11.536   8.841  0.00  0.00    -0.165 F 
ENDBRANCH   1   4
BRANCH   1   8
HETATM    8  C   UNK N   1      21.564  12.784  10.106  0.00  0.00     0.464 C 
HETATM    9  F   UNK N   1      20.567  12.355  10.965  0.00  0.00    -0.165 F 
HETATM   10  F   UNK N   1      21.244  12.375   8.824  0.00  0.00    -0.165 F 
HETATM   11  F   UNK N   1      21.610  14.167  10.144  0.00  0.00    -0.165 F 
ENDBRANCH   1   8
TORSDOF 2
ENDMDL
MODEL 8
REMARK VINA RESULT:      -4.2     19.728     21.296
REMARK  2 active torsions:
REMARK  status: ('A' for Active; 'I' for Inactive)
REMARK    1  A    between atoms: C_2  and  C_3 
REMARK    2  A    between atoms: C_3  and  C_4 
ROOT
HETATM    1  C   UNK N   1      22.900  12.208  10.503  0.00  0.00     0.434 C 
HETATM    2  F   UNK N   1      23.180  12.605  11.801  0.00  0.00    -0.186 F 
HETATM    3  F   UNK N   1      22.797  10.828  10.479  0.00  0.00    -0.186 F 
ENDROOT
BRANCH   1   4
HETATM    4  C   UNK N   1      21.546  12.807  10.090  0.00  0.00     0.464 C 
HETATM    5  F   UNK N   1      21.586  14.190  10.131  0.00  0.00    -0.165 F 
HETATM    6  F   UNK N   1      21.199  12.401   8.814  0.00  0.00    -0.165 F 
HETATM    7  F   UNK N   1      20.572  12.369  10.969  0.00  0.00    -0.165 F 
ENDBRANCH   1   4
BRANCH   1   8
HETATM    8  C   UNK N   1      24.071  12.628   9.601  0.00  0.00     0.464 C 
HETATM    9  F   UNK N   1      25.142  13.000  10.395  0.00  0.00    -0.165 F 
HETATM   10  F   UNK N   1      23.719  13.705   8.807  0.00  0.00    -0.165 F 
HETATM   11  F   UNK N   1      24.469  11.579   8.791  0.00  0.00    -0.165 F 
ENDBRANCH   1   8
TORSDOF 2
ENDMDL
MODEL 9
REMARK VINA RESULT:      -4.0     19.407     21.003
REMARK  2 active torsions:
REMARK  status: ('A' for Active; 'I' for Inactive)
REMARK    1  A    between atoms: C_2  and  C_3 
REMARK    2  A    between atoms: C_3  and  C_4 
ROOT
HETATM    1  C   UNK N   1      22.702  13.166   9.788  0.00  0.00     0.434 C 
HETATM    2  F   UNK N   1      24.022  13.554   9.956  0.00  0.00    -0.186 F 
HETATM    3  F   UNK N   1      21.891  14.263  10.017  0.00  0.00    -0.186 F 
ENDROOT
BRANCH   1   4
HETATM    4  C   UNK N   1      22.510  12.709   8.333  0.00  0.00     0.464 C 
HETATM    5  F   UNK N   1      23.518  11.842   7.950  0.00  0.00    -0.165 F 
HETATM    6  F   UNK N   1      21.287  12.080   8.174  0.00  0.00    -0.165 F 
HETATM    7  F   UNK N   1      22.543  13.816   7.503  0.00  0.00    -0.165 F 
ENDBRANCH   1   4
BRANCH   1   8
HETATM    8  C   UNK N   1      22.375  12.086  10.831  0.00  0.00     0.464 C 
HETATM    9  F   UNK N   1      23.024  12.391  12.015  0.00  0.00    -0.165 F 
HETATM   10  F   UNK N   1      22.803  10.842  10.403  0.00  0.00    -0.165 F 
HETATM   11  F   UNK N   1      21.014  12.038  11.078  0.00  0.00    -0.165 F 
ENDBRANCH   1   8
TORSDOF 2
ENDMDL
