MODEL 1
REMARK VINA RESULT:      -7.1      0.000      0.000
REMARK WARNING: 32 MAX_TORS EXCEEDED!!!
REMARK  42 active torsions:
REMARK  status: ('A' for Active; 'I' for Inactive)
REMARK    1  A    between atoms: C_5  and  C_3 
REMARK    2  A    between atoms: C_96  and  C_5 
REMARK    3  A    between atoms: C_10  and  C_7 
REMARK    4  A    between atoms: O_14  and  C_7 
REMARK    5  A    between atoms: C_12  and  C_10 
REMARK    6  A    between atoms: C_13  and  C_12 
REMARK    7  A    between atoms: C_21  and  C_18 
REMARK    8  A    between atoms: O_22  and  C_21 
REMARK    9  A    between atoms: C_32  and  O_27 
REMARK   10  A    between atoms: C_34  and  C_31 
REMARK   11  A    between atoms: C_34  and  C_32 
REMARK   12  A    between atoms: C_45  and  O_40 
REMARK   13  A    between atoms: C_47  and  C_44 
REMARK   14  A    between atoms: C_47  and  C_45 
REMARK   15  A    between atoms: C_50  and  C_48 
REMARK   16  A    between atoms: C_51  and  C_48 
REMARK   17  A    between atoms: C_53  and  C_50 
REMARK   18  A    between atoms: N_54  and  C_53 
REMARK   19  A    between atoms: C_60  and  N_64 
REMARK       I    between atoms: C_72  and  N_64 
REMARK   20  A    between atoms: C_71  and  O_66 
REMARK   21  A    between atoms: C_70  and  N_67 
REMARK       I    between atoms: C_75  and  N_67 
REMARK   22  A    between atoms: C_72  and  C_70 
REMARK   23  A    between atoms: C_73  and  C_70 
REMARK   24  A    between atoms: C_73  and  C_71 
REMARK   25  A    between atoms: C_76  and  C_74 
REMARK   26  A    between atoms: C_77  and  C_74 
REMARK   27  A    between atoms: C_77  and  C_75 
REMARK       I    between atoms: N_80  and  C_76 
REMARK   28  A    between atoms: C_77  and  N_81 
REMARK       I    between atoms: C_82  and  N_81 
REMARK   29  A    between atoms: C_84  and  C_82 
REMARK   30  A    between atoms: C_85  and  C_84 
REMARK   31  A    between atoms: C_84  and  N_86 
REMARK   32  A    between atoms: C_98  and  C_85 
REMARK       I    between atoms: C_87  and  N_86 
REMARK   33  A    between atoms: C_88  and  C_87 
REMARK   34  A    between atoms: C_108  and  C_88 
REMARK   35  A    between atoms: C_96  and  C_89 
REMARK   36  A    between atoms: N_95  and  C_90 
REMARK   37  A    between atoms: C_109  and  C_108 
REMARK   38  A    between atoms: C_110  and  C_109 
REMARK   39  A    between atoms: C_111  and  C_110 
REMARK   40  A    between atoms: C_112  and  C_111 
REMARK   41  A    between atoms: C_113  and  C_112 
REMARK   42  A    between atoms: C_114  and  C_113 
ROOT
HETATM    1  C   UNK N   1      25.460  13.478   3.287  0.00  0.00     0.282 C 
HETATM    2  O   UNK N   1      24.734  12.779   2.597  0.00  0.00    -0.263 OA
HETATM    3  C   UNK N   1      25.029  14.893   3.594  0.00  0.00     0.191 C 
HETATM    4  N   UNK N   1      23.876  15.225   2.781  0.00  0.00    -0.345 N 
HETATM    5  O   UNK N   1      26.634  12.947   3.740  0.00  0.00    -0.312 OA
HETATM    6  C   UNK N   1      22.784  15.918   3.187  0.00  0.00     0.241 C 
HETATM    7  O   UNK N   1      21.881  16.087   2.385  0.00  0.00    -0.271 OA
HETATM    8  C   UNK N   1      22.682  16.544   4.570  0.00  0.00     0.180 C 
HETATM    9  N   UNK N   1      22.192  15.690   5.632  0.00  0.00    -0.346 N 
HETATM   10  C   UNK N   1      20.987  15.069   5.670  0.00  0.00     0.243 C 
HETATM   11  C   UNK N   1      20.111  14.946   4.439  0.00  0.00     0.200 C 
HETATM   12  O   UNK N   1      20.584  14.662   6.746  0.00  0.00    -0.271 OA
HETATM   13  N   UNK N   1      19.867  13.611   3.896  0.00  0.00    -0.344 N 
HETATM   14  C   UNK N   1      19.865  12.396   4.517  0.00  0.00     0.236 C 
HETATM   15  O   UNK N   1      19.576  11.405   3.867  0.00  0.00    -0.272 OA
HETATM   16  N   UNK N   1      21.452  11.760   6.372  0.00  0.00    -0.351 N 
HETATM   17  C   UNK N   1      20.125  12.228   5.987  0.00  0.00     0.225 C 
HETATM   18  N   UNK N   1      24.068   9.471   5.486  0.00  0.00    -0.346 N 
HETATM   19  O   UNK N   1      22.237  11.108   4.370  0.00  0.00    -0.271 OA
HETATM   20  C   UNK N   1      23.661  10.664   6.209  0.00  0.00     0.186 C 
HETATM   21  C   UNK N   1      22.425  11.250   5.570  0.00  0.00     0.241 C 
HETATM   22  C   UNK N   1      24.728   9.529   4.300  0.00  0.00     0.240 C 
HETATM   23  O   UNK N   1      25.142  10.589   3.878  0.00  0.00    -0.271 OA
HETATM   24  C   UNK N   1      24.932   8.312   3.472  0.00  0.00     0.172 C 
HETATM   25  N   UNK N   1      25.687   7.334   4.203  0.00  0.00    -0.346 N 
HETATM   26  C   UNK N   1      23.603   7.737   3.022  0.00  0.00     0.042 C 
HETATM   27  N   UNK N   1      29.002   7.076   2.670  0.00  0.00    -0.346 N 
HETATM   28  O   UNK N   1      27.541   6.279   4.777  0.00  0.00    -0.271 OA
HETATM   29  C   UNK N   1      27.928   7.920   3.122  0.00  0.00     0.186 C 
HETATM   30  C   UNK N   1      27.022   7.121   4.062  0.00  0.00     0.241 C 
HETATM   31  C   UNK N   1      30.312   7.416   2.714  0.00  0.00     0.241 C 
HETATM   32  C   UNK N   1      30.784   8.815   3.087  0.00  0.00     0.176 C 
HETATM   33  N   UNK N   1      30.464   9.761   2.020  0.00  0.00    -0.346 N 
HETATM   34  O   UNK N   1      31.137   6.556   2.448  0.00  0.00    -0.271 OA
HETATM   35  C   UNK N   1      30.925  11.042   2.011  0.00  0.00     0.236 C 
HETATM   36  O   UNK N   1      31.674  11.429   2.895  0.00  0.00    -0.272 OA
HETATM   37  N   UNK N   1      29.401  12.571   0.694  0.00  0.00    -0.350 N 
HETATM   38  C   UNK N   1      30.703  11.940   0.833  0.00  0.00     0.225 C 
HETATM   39  C   UNK N   1      28.939  13.117   3.142  0.00  0.00     0.205 C 
HETATM   40  C   UNK N   1      28.654  13.210   1.641  0.00  0.00     0.243 C 
HETATM   41  O   UNK N   1      27.667  13.825   1.269  0.00  0.00    -0.271 OA
HETATM   42  C   UNK N   1      27.787  13.655   4.027  0.00  0.00     0.159 C 
HETATM   43  C   UNK N   1      28.109  13.511   5.505  0.00  0.00     0.042 C 
HETATM   44  H   UNK N   1      23.888  14.919   1.845  0.00  0.00     0.163 HD
HETATM   45  H   UNK N   1      22.791  15.548   6.401  0.00  0.00     0.163 HD
HETATM   46  H   UNK N   1      19.674  13.583   2.931  0.00  0.00     0.163 HD
HETATM   47  H   UNK N   1      21.671  11.820   7.330  0.00  0.00     0.163 HD
HETATM   48  H   UNK N   1      23.859   8.589   5.871  0.00  0.00     0.163 HD
HETATM   49  H   UNK N   1      25.201   6.778   4.854  0.00  0.00     0.163 HD
HETATM   50  H   UNK N   1      28.767   6.192   2.305  0.00  0.00     0.163 HD
HETATM   51  H   UNK N   1      29.892   9.460   1.277  0.00  0.00     0.163 HD
HETATM   52  H   UNK N   1      29.004  12.532  -0.206  0.00  0.00     0.163 HD
ENDROOT
BRANCH  39  53
HETATM   53  N   UNK N   1      30.223  13.611   3.607  0.00  0.00    -0.344 N 
HETATM   54  C   UNK N   1      30.798  14.809   3.363  0.00  0.00     0.241 C 
HETATM   55  O   UNK N   1      30.215  15.687   2.745  0.00  0.00    -0.271 OA
HETATM   56  H   UNK N   1      30.741  12.993   4.172  0.00  0.00     0.163 HD
BRANCH  54  57
HETATM   57  C   UNK N   1      32.146  15.075   3.956  0.00  0.00     0.186 C 
BRANCH  57  58
HETATM   58  N   UNK N   1      32.008  15.105   5.385  0.00  0.00    -0.345 N 
HETATM   59  C   UNK N   1      32.836  14.397   6.201  0.00  0.00     0.241 C 
HETATM   60  O   UNK N   1      33.818  13.826   5.748  0.00  0.00    -0.271 OA
HETATM   61  H   UNK N   1      31.295  15.654   5.784  0.00  0.00     0.163 HD
BRANCH  59  62
HETATM   62  C   UNK N   1      32.530  14.296   7.669  0.00  0.00     0.185 C 
BRANCH  62  63
HETATM   63  C   UNK N   1      32.089  15.616   8.324  0.00  0.00     0.137 C 
BRANCH  63  64
HETATM   64  C   UNK N   1      33.152  16.657   8.476  0.00  0.00     0.217 C 
HETATM   65  O   UNK N   1      34.214  16.384   9.012  0.00  0.00    -0.274 OA
HETATM   66  N   UNK N   1      32.939  17.898   8.002  0.00  0.00    -0.370 N 
HETATM   67  H   UNK N   1      32.696  18.806   8.296  0.00  0.00     0.159 HD
HETATM   68  H   UNK N   1      33.073  17.899   7.026  0.00  0.00     0.159 HD
ENDBRANCH  63  64
ENDBRANCH  62  63
BRANCH  62  69
HETATM   69  N   UNK N   1      33.588  13.601   8.379  0.00  0.00    -0.346 N 
HETATM   70  C   UNK N   1      33.554  12.306   8.804  0.00  0.00     0.241 C 
HETATM   71  O   UNK N   1      32.623  11.572   8.517  0.00  0.00    -0.271 OA
HETATM   72  H   UNK N   1      34.407  14.112   8.571  0.00  0.00     0.163 HD
BRANCH  70  73
HETATM   73  C   UNK N   1      34.528  11.852   9.846  0.00  0.00     0.180 C 
BRANCH  73  74
HETATM   74  C   UNK N   1      35.623  12.901  10.005  0.00  0.00     0.075 C 
BRANCH  74  75
HETATM   75  C   UNK N   1      35.816  13.296  11.423  0.00  0.00    -0.028 A 
HETATM   76  C   UNK N   1      35.291  14.418  12.057  0.00  0.00     0.096 A 
HETATM   77  N   UNK N   1      35.678  14.426  13.355  0.00  0.00    -0.365 N 
HETATM   78  C   UNK N   1      36.435  13.318  13.529  0.00  0.00     0.042 A 
HETATM   79  H   UNK N   1      35.453  15.102  14.035  0.00  0.00     0.165 HD
HETATM   80  C   UNK N   1      36.530  12.615  12.366  0.00  0.00    -0.002 A 
HETATM   81  C   UNK N   1      37.050  12.902  14.701  0.00  0.00     0.030 A 
HETATM   82  C   UNK N   1      37.257  11.424  12.290  0.00  0.00     0.014 A 
HETATM   83  C   UNK N   1      37.898  10.973  13.456  0.00  0.00     0.001 A 
HETATM   84  C   UNK N   1      37.796  11.708  14.658  0.00  0.00     0.002 A 
ENDBRANCH  74  75
ENDBRANCH  73  74
BRANCH  73  85
HETATM   85  N   UNK N   1      35.061  10.509   9.680  0.00  0.00    -0.347 N 
HETATM   86  C   UNK N   1      34.686   9.394  10.361  0.00  0.00     0.218 C 
HETATM   87  O   UNK N   1      35.173   8.319  10.049  0.00  0.00    -0.274 OA
HETATM   88  H   UNK N   1      35.767  10.396   9.003  0.00  0.00     0.163 HD
BRANCH  86  89
HETATM   89  C   UNK N   1      33.709   9.443  11.496  0.00  0.00     0.103 C 
BRANCH  89  90
HETATM   90  C   UNK N   1      34.432   9.621  12.830  0.00  0.00     0.009 C 
BRANCH  90  91
HETATM   91  C   UNK N   1      33.755  10.672  13.706  0.00  0.00     0.000 C 
BRANCH  91  92
HETATM   92  C   UNK N   1      34.163  10.504  15.156  0.00  0.00     0.000 C 
BRANCH  92  93
HETATM   93  C   UNK N   1      35.112   9.330  15.298  0.00  0.00     0.000 C 
BRANCH  93  94
HETATM   94  C   UNK N   1      35.783   9.373  16.657  0.00  0.00     0.000 C 
BRANCH  94  95
HETATM   95  C   UNK N   1      34.895  10.042  17.691  0.00  0.00    -0.000 C 
BRANCH  95  96
HETATM   96  C   UNK N   1      35.683  11.054  18.499  0.00  0.00    -0.005 C 
HETATM   97  C   UNK N   1      36.509  10.333  19.545  0.00  0.00     0.005 C 
ENDBRANCH  95  96
ENDBRANCH  94  95
ENDBRANCH  93  94
ENDBRANCH  92  93
ENDBRANCH  91  92
ENDBRANCH  90  91
ENDBRANCH  89  90
ENDBRANCH  86  89
ENDBRANCH  73  85
ENDBRANCH  70  73
ENDBRANCH  62  69
ENDBRANCH  59  62
ENDBRANCH  57  58
BRANCH  57  98
HETATM   98  C   UNK N   1      32.877  16.320   3.422  0.00  0.00     0.144 C 
BRANCH  98  99
HETATM   99  C   UNK N   1      32.697  17.606   4.181  0.00  0.00     0.141 C 
HETATM  100  O   UNK N   1      33.488  17.929   5.053  0.00  0.00    -0.650 OA
BRANCH  99 101
HETATM  101  O   UNK N   1      31.683  18.430   3.857  0.00  0.00    -0.776 OA
HETATM  102  H   UNK N   1      31.344  18.505   2.987  0.00  0.00     0.167 HD
ENDBRANCH  99 101
ENDBRANCH  98  99
ENDBRANCH  57  98
ENDBRANCH  54  57
ENDBRANCH  39  53
BRANCH   3 103
HETATM  103  C   UNK N   1      26.154  15.826   3.244  0.00  0.00     0.119 C 
BRANCH 103 104
HETATM  104  C   UNK N   1      26.155  17.001   4.153  0.00  0.00     0.164 C 
HETATM  105  O   UNK N   1      25.333  17.891   3.985  0.00  0.00    -0.292 OA
BRANCH 104 106
HETATM  106  C   UNK N   1      27.111  17.040   5.274  0.00  0.00     0.036 A 
HETATM  107  C   UNK N   1      26.681  16.602   6.538  0.00  0.00     0.017 A 
HETATM  108  C   UNK N   1      27.536  16.638   7.635  0.00  0.00     0.001 A 
HETATM  109  C   UNK N   1      28.834  17.116   7.481  0.00  0.00     0.002 A 
HETATM  110  C   UNK N   1      29.277  17.547   6.230  0.00  0.00     0.030 A 
HETATM  111  C   UNK N   1      28.431  17.516   5.125  0.00  0.00     0.039 A 
BRANCH 111 112
HETATM  112  N   UNK N   1      28.919  17.963   3.877  0.00  0.00    -0.398 N 
HETATM  113  H   UNK N   1      29.019  18.308   2.960  0.00  0.00     0.156 HD
HETATM  114  H   UNK N   1      29.876  17.826   4.062  0.00  0.00     0.156 HD
ENDBRANCH 111 112
ENDBRANCH 104 106
ENDBRANCH 103 104
ENDBRANCH   3 103
BRANCH  32 115
HETATM  115  C   UNK N   1      32.297   8.811   3.394  0.00  0.00     0.036 C 
BRANCH 115 116
HETATM  116  C   UNK N   1      32.589   8.629   4.882  0.00  0.00     0.021 C 
BRANCH 116 117
HETATM  117  C   UNK N   1      33.286   9.855   5.433  0.00  0.00     0.111 C 
BRANCH 117 118
HETATM  118  N   UNK N   1      32.312  10.906   5.673  0.00  0.00    -0.430 N 
HETATM  119  H   UNK N   1      32.549  11.826   6.046  0.00  0.00     0.149 HD
HETATM  120  H   UNK N   1      31.334  10.714   5.455  0.00  0.00     0.149 HD
ENDBRANCH 117 118
ENDBRANCH 116 117
ENDBRANCH 115 116
ENDBRANCH  32 115
BRANCH   8 121
HETATM  121  C   UNK N   1      22.046  17.944   4.687  0.00  0.00     0.023 C 
HETATM  122  C   UNK N   1      21.817  18.367   6.119  0.00  0.00     0.013 C 
BRANCH 121 123
HETATM  123  C   UNK N   1      22.753  19.043   3.900  0.00  0.00     0.116 C 
BRANCH 123 124
HETATM  124  C   UNK N   1      21.811  19.762   2.993  0.00  0.00     0.139 C 
HETATM  125  O   UNK N   1      22.004  20.934   2.716  0.00  0.00    -0.650 OA
BRANCH 124 126
HETATM  126  O   UNK N   1      20.770  19.106   2.448  0.00  0.00    -0.776 OA
HETATM  127  H   UNK N   1      20.471  18.230   2.298  0.00  0.00     0.167 HD
ENDBRANCH 124 126
ENDBRANCH 123 124
ENDBRANCH 121 123
ENDBRANCH   8 121
BRANCH  29 128
HETATM  128  C   UNK N   1      27.266   8.561   1.907  0.00  0.00     0.144 C 
BRANCH 128 129
HETATM  129  C   UNK N   1      27.371   7.665   0.713  0.00  0.00     0.141 C 
HETATM  130  O   UNK N   1      26.624   6.708   0.595  0.00  0.00    -0.650 OA
BRANCH 129 131
HETATM  131  O   UNK N   1      28.310   7.900  -0.221  0.00  0.00    -0.776 OA
HETATM  132  H   UNK N   1      29.144   8.297  -0.378  0.00  0.00     0.167 HD
ENDBRANCH 129 131
ENDBRANCH 128 129
ENDBRANCH  29 128
BRANCH  11 133
HETATM  133  C   UNK N   1      18.812  15.734   4.516  0.00  0.00     0.199 C 
BRANCH 133 134
HETATM  134  O   UNK N   1      18.924  16.943   3.831  0.00  0.00    -0.398 OA
HETATM  135  H   UNK N   1      18.806  17.105   2.883  0.00  0.00     0.209 HD
ENDBRANCH 133 134
ENDBRANCH  11 133
BRANCH  20 136
HETATM  136  C   UNK N   1      24.845  11.617   6.476  0.00  0.00     0.144 C 
BRANCH 136 137
HETATM  137  C   UNK N   1      24.668  12.573   7.617  0.00  0.00     0.141 C 
HETATM  138  O   UNK N   1      23.853  12.348   8.495  0.00  0.00    -0.650 OA
BRANCH 137 139
HETATM  139  O   UNK N   1      25.463  13.656   7.705  0.00  0.00    -0.776 OA
HETATM  140  H   UNK N   1      26.368  13.639   7.459  0.00  0.00     0.167 HD
ENDBRANCH 137 139
ENDBRANCH 136 137
ENDBRANCH  20 136
TORSDOF 42
ENDMDL
MODEL 2
REMARK VINA RESULT:      -6.9      1.988      3.154
REMARK WARNING: 32 MAX_TORS EXCEEDED!!!
REMARK  42 active torsions:
REMARK  status: ('A' for Active; 'I' for Inactive)
REMARK    1  A    between atoms: C_5  and  C_3 
REMARK    2  A    between atoms: C_96  and  C_5 
REMARK    3  A    between atoms: C_10  and  C_7 
REMARK    4  A    between atoms: O_14  and  C_7 
REMARK    5  A    between atoms: C_12  and  C_10 
REMARK    6  A    between atoms: C_13  and  C_12 
REMARK    7  A    between atoms: C_21  and  C_18 
REMARK    8  A    between atoms: O_22  and  C_21 
REMARK    9  A    between atoms: C_32  and  O_27 
REMARK   10  A    between atoms: C_34  and  C_31 
REMARK   11  A    between atoms: C_34  and  C_32 
REMARK   12  A    between atoms: C_45  and  O_40 
REMARK   13  A    between atoms: C_47  and  C_44 
REMARK   14  A    between atoms: C_47  and  C_45 
REMARK   15  A    between atoms: C_50  and  C_48 
REMARK   16  A    between atoms: C_51  and  C_48 
REMARK   17  A    between atoms: C_53  and  C_50 
REMARK   18  A    between atoms: N_54  and  C_53 
REMARK   19  A    between atoms: C_60  and  N_64 
REMARK       I    between atoms: C_72  and  N_64 
REMARK   20  A    between atoms: C_71  and  O_66 
REMARK   21  A    between atoms: C_70  and  N_67 
REMARK       I    between atoms: C_75  and  N_67 
REMARK   22  A    between atoms: C_72  and  C_70 
REMARK   23  A    between atoms: C_73  and  C_70 
REMARK   24  A    between atoms: C_73  and  C_71 
REMARK   25  A    between atoms: C_76  and  C_74 
REMARK   26  A    between atoms: C_77  and  C_74 
REMARK   27  A    between atoms: C_77  and  C_75 
REMARK       I    between atoms: N_80  and  C_76 
REMARK   28  A    between atoms: C_77  and  N_81 
REMARK       I    between atoms: C_82  and  N_81 
REMARK   29  A    between atoms: C_84  and  C_82 
REMARK   30  A    between atoms: C_85  and  C_84 
REMARK   31  A    between atoms: C_84  and  N_86 
REMARK   32  A    between atoms: C_98  and  C_85 
REMARK       I    between atoms: C_87  and  N_86 
REMARK   33  A    between atoms: C_88  and  C_87 
REMARK   34  A    between atoms: C_108  and  C_88 
REMARK   35  A    between atoms: C_96  and  C_89 
REMARK   36  A    between atoms: N_95  and  C_90 
REMARK   37  A    between atoms: C_109  and  C_108 
REMARK   38  A    between atoms: C_110  and  C_109 
REMARK   39  A    between atoms: C_111  and  C_110 
REMARK   40  A    between atoms: C_112  and  C_111 
REMARK   41  A    between atoms: C_113  and  C_112 
REMARK   42  A    between atoms: C_114  and  C_113 
ROOT
HETATM    1  C   UNK N   1      25.575  13.389   3.050  0.00  0.00     0.282 C 
HETATM    2  O   UNK N   1      25.360  12.549   2.191  0.00  0.00    -0.263 OA
HETATM    3  C   UNK N   1      24.693  14.615   3.105  0.00  0.00     0.191 C 
HETATM    4  N   UNK N   1      23.857  14.651   1.922  0.00  0.00    -0.345 N 
HETATM    5  O   UNK N   1      26.611  13.184   3.916  0.00  0.00    -0.312 OA
HETATM    6  C   UNK N   1      22.547  14.996   1.879  0.00  0.00     0.241 C 
HETATM    7  O   UNK N   1      21.975  14.945   0.802  0.00  0.00    -0.271 OA
HETATM    8  C   UNK N   1      21.797  15.507   3.100  0.00  0.00     0.180 C 
HETATM    9  N   UNK N   1      21.218  14.505   3.969  0.00  0.00    -0.346 N 
HETATM   10  C   UNK N   1      20.296  13.573   3.618  0.00  0.00     0.243 C 
HETATM   11  C   UNK N   1      19.979  13.269   2.167  0.00  0.00     0.200 C 
HETATM   12  O   UNK N   1      19.668  13.024   4.506  0.00  0.00    -0.271 OA
HETATM   13  N   UNK N   1      20.319  11.944   1.651  0.00  0.00    -0.344 N 
HETATM   14  C   UNK N   1      20.431  10.749   2.301  0.00  0.00     0.236 C 
HETATM   15  O   UNK N   1      20.673   9.747   1.648  0.00  0.00    -0.272 OA
HETATM   16  N   UNK N   1      21.372  10.495   4.627  0.00  0.00    -0.351 N 
HETATM   17  C   UNK N   1      20.192  10.594   3.775  0.00  0.00     0.225 C 
HETATM   18  N   UNK N   1      24.652   9.060   4.848  0.00  0.00    -0.346 N 
HETATM   19  O   UNK N   1      22.958  10.175   3.069  0.00  0.00    -0.271 OA
HETATM   20  C   UNK N   1      23.706  10.060   5.312  0.00  0.00     0.186 C 
HETATM   21  C   UNK N   1      22.665  10.310   4.248  0.00  0.00     0.241 C 
HETATM   22  C   UNK N   1      25.644   9.351   3.967  0.00  0.00     0.240 C 
HETATM   23  O   UNK N   1      25.873  10.502   3.658  0.00  0.00    -0.271 OA
HETATM   24  C   UNK N   1      26.452   8.276   3.335  0.00  0.00     0.172 C 
HETATM   25  N   UNK N   1      27.138   7.513   4.339  0.00  0.00    -0.346 N 
HETATM   26  C   UNK N   1      25.580   7.376   2.481  0.00  0.00     0.042 C 
HETATM   27  N   UNK N   1      30.715   8.250   4.084  0.00  0.00    -0.346 N 
HETATM   28  O   UNK N   1      28.884   6.987   5.587  0.00  0.00    -0.271 OA
HETATM   29  C   UNK N   1      29.364   8.744   4.081  0.00  0.00     0.186 C 
HETATM   30  C   UNK N   1      28.441   7.684   4.688  0.00  0.00     0.241 C 
HETATM   31  C   UNK N   1      31.779   8.937   4.565  0.00  0.00     0.241 C 
HETATM   32  C   UNK N   1      31.687  10.394   4.999  0.00  0.00     0.176 C 
HETATM   33  N   UNK N   1      31.517  11.261   3.835  0.00  0.00    -0.346 N 
HETATM   34  O   UNK N   1      32.847   8.350   4.655  0.00  0.00    -0.271 OA
HETATM   35  C   UNK N   1      31.582  12.619   3.915  0.00  0.00     0.236 C 
HETATM   36  O   UNK N   1      31.834  13.158   4.981  0.00  0.00    -0.272 OA
HETATM   37  N   UNK N   1      30.264  13.724   2.062  0.00  0.00    -0.350 N 
HETATM   38  C   UNK N   1      31.552  13.471   2.684  0.00  0.00     0.225 C 
HETATM   39  C   UNK N   1      28.837  14.011   4.156  0.00  0.00     0.205 C 
HETATM   40  C   UNK N   1      29.086  14.089   2.647  0.00  0.00     0.243 C 
HETATM   41  O   UNK N   1      28.166  14.423   1.918  0.00  0.00    -0.271 OA
HETATM   42  C   UNK N   1      27.347  14.170   4.548  0.00  0.00     0.159 C 
HETATM   43  C   UNK N   1      27.154  14.054   6.051  0.00  0.00     0.042 C 
HETATM   44  H   UNK N   1      24.281  14.403   1.069  0.00  0.00     0.163 HD
HETATM   45  H   UNK N   1      21.521  14.500   4.906  0.00  0.00     0.163 HD
HETATM   46  H   UNK N   1      20.494  11.907   0.683  0.00  0.00     0.163 HD
HETATM   47  H   UNK N   1      21.214  10.570   5.596  0.00  0.00     0.163 HD
HETATM   48  H   UNK N   1      24.571   8.138   5.185  0.00  0.00     0.163 HD
HETATM   49  H   UNK N   1      26.627   6.815   4.809  0.00  0.00     0.163 HD
HETATM   50  H   UNK N   1      30.877   7.353   3.711  0.00  0.00     0.163 HD
HETATM   51  H   UNK N   1      31.350  10.847   2.957  0.00  0.00     0.163 HD
HETATM   52  H   UNK N   1      30.236  13.617   1.083  0.00  0.00     0.163 HD
ENDROOT
BRANCH  39  53
HETATM   53  N   UNK N   1      29.687  14.820   5.012  0.00  0.00    -0.344 N 
HETATM   54  C   UNK N   1      30.038  16.116   4.862  0.00  0.00     0.241 C 
HETATM   55  O   UNK N   1      29.579  16.805   3.964  0.00  0.00    -0.271 OA
HETATM   56  H   UNK N   1      30.054  14.364   5.804  0.00  0.00     0.163 HD
BRANCH  54  57
HETATM   57  C   UNK N   1      30.942  16.721   5.888  0.00  0.00     0.186 C 
BRANCH  57  58
HETATM   58  N   UNK N   1      32.171  15.979   5.897  0.00  0.00    -0.345 N 
HETATM   59  C   UNK N   1      33.384  16.598   5.871  0.00  0.00     0.241 C 
HETATM   60  O   UNK N   1      33.465  17.813   5.988  0.00  0.00    -0.271 OA
HETATM   61  H   UNK N   1      32.135  14.997   5.923  0.00  0.00     0.163 HD
BRANCH  59  62
HETATM   62  C   UNK N   1      34.632  15.785   5.675  0.00  0.00     0.185 C 
BRANCH  62  63
HETATM   63  C   UNK N   1      34.547  14.738   4.552  0.00  0.00     0.137 C 
BRANCH  63  64
HETATM   64  C   UNK N   1      35.663  13.744   4.501  0.00  0.00     0.217 C 
HETATM   65  O   UNK N   1      36.765  14.026   4.943  0.00  0.00    -0.274 OA
HETATM   66  N   UNK N   1      35.442  12.524   3.977  0.00  0.00    -0.370 N 
HETATM   67  H   UNK N   1      35.590  11.997   3.158  0.00  0.00     0.159 HD
HETATM   68  H   UNK N   1      34.973  11.967   4.640  0.00  0.00     0.159 HD
ENDBRANCH  63  64
ENDBRANCH  62  63
BRANCH  62  69
HETATM   69  N   UNK N   1      35.123  15.268   6.939  0.00  0.00    -0.346 N 
HETATM   70  C   UNK N   1      34.494  14.356   7.734  0.00  0.00     0.241 C 
HETATM   71  O   UNK N   1      33.466  13.806   7.371  0.00  0.00    -0.271 OA
HETATM   72  H   UNK N   1      35.992  15.607   7.253  0.00  0.00     0.163 HD
BRANCH  70  73
HETATM   73  C   UNK N   1      34.914  14.215   9.163  0.00  0.00     0.180 C 
BRANCH  73  74
HETATM   74  C   UNK N   1      34.279  12.961   9.755  0.00  0.00     0.075 C 
BRANCH  74  75
HETATM   75  C   UNK N   1      35.294  11.936  10.106  0.00  0.00    -0.028 A 
HETATM   76  C   UNK N   1      36.515  11.716   9.475  0.00  0.00     0.096 A 
HETATM   77  N   UNK N   1      37.166  10.702  10.093  0.00  0.00    -0.365 N 
HETATM   78  C   UNK N   1      36.361  10.295  11.100  0.00  0.00     0.042 A 
HETATM   79  H   UNK N   1      38.049  10.335   9.855  0.00  0.00     0.165 HD
HETATM   80  C   UNK N   1      35.217  11.034  11.128  0.00  0.00    -0.002 A 
HETATM   81  C   UNK N   1      36.611   9.279  12.011  0.00  0.00     0.030 A 
HETATM   82  C   UNK N   1      34.225  10.809  12.086  0.00  0.00     0.014 A 
HETATM   83  C   UNK N   1      34.440   9.784  13.023  0.00  0.00     0.001 A 
HETATM   84  C   UNK N   1      35.628   9.021  12.988  0.00  0.00     0.002 A 
ENDBRANCH  74  75
ENDBRANCH  73  74
BRANCH  73  85
HETATM   85  N   UNK N   1      34.725  15.386  10.003  0.00  0.00    -0.347 N 
HETATM   86  C   UNK N   1      35.428  15.711  11.120  0.00  0.00     0.218 C 
HETATM   87  O   UNK N   1      35.202  16.775  11.673  0.00  0.00    -0.274 OA
HETATM   88  H   UNK N   1      34.013  16.011   9.734  0.00  0.00     0.163 HD
BRANCH  86  89
HETATM   89  C   UNK N   1      36.459  14.795  11.708  0.00  0.00     0.103 C 
BRANCH  89  90
HETATM   90  C   UNK N   1      35.965  14.191  13.021  0.00  0.00     0.009 C 
BRANCH  90  91
HETATM   91  C   UNK N   1      36.886  13.076  13.512  0.00  0.00     0.000 C 
BRANCH  91  92
HETATM   92  C   UNK N   1      36.358  12.475  14.801  0.00  0.00     0.000 C 
BRANCH  92  93
HETATM   93  C   UNK N   1      35.689  13.547  15.639  0.00  0.00     0.000 C 
BRANCH  93  94
HETATM   94  C   UNK N   1      34.930  12.904  16.784  0.00  0.00     0.000 C 
BRANCH  94  95
HETATM   95  C   UNK N   1      35.190  13.625  18.093  0.00  0.00    -0.000 C 
BRANCH  95  96
HETATM   96  C   UNK N   1      35.299  12.637  19.238  0.00  0.00    -0.005 C 
HETATM   97  C   UNK N   1      35.379  11.229  18.684  0.00  0.00     0.005 C 
ENDBRANCH  95  96
ENDBRANCH  94  95
ENDBRANCH  93  94
ENDBRANCH  92  93
ENDBRANCH  91  92
ENDBRANCH  90  91
ENDBRANCH  89  90
ENDBRANCH  86  89
ENDBRANCH  73  85
ENDBRANCH  70  73
ENDBRANCH  62  69
ENDBRANCH  59  62
ENDBRANCH  57  58
BRANCH  57  98
HETATM   98  C   UNK N   1      30.346  16.865   7.301  0.00  0.00     0.144 C 
BRANCH  98  99
HETATM   99  C   UNK N   1      31.306  16.876   8.459  0.00  0.00     0.141 C 
HETATM  100  O   UNK N   1      31.568  15.846   9.060  0.00  0.00    -0.650 OA
BRANCH  99 101
HETATM  101  O   UNK N   1      31.920  18.025   8.799  0.00  0.00    -0.776 OA
HETATM  102  H   UNK N   1      32.451  18.516   8.204  0.00  0.00     0.167 HD
ENDBRANCH  99 101
ENDBRANCH  98  99
ENDBRANCH  57  98
ENDBRANCH  54  57
ENDBRANCH  39  53
BRANCH   3 103
HETATM  103  C   UNK N   1      25.567  15.837   3.119  0.00  0.00     0.119 C 
BRANCH 103 104
HETATM  104  C   UNK N   1      25.169  16.748   4.223  0.00  0.00     0.164 C 
HETATM  105  O   UNK N   1      24.359  16.364   5.055  0.00  0.00    -0.292 OA
BRANCH 104 106
HETATM  106  C   UNK N   1      25.805  18.074   4.323  0.00  0.00     0.036 A 
HETATM  107  C   UNK N   1      25.545  19.019   3.316  0.00  0.00     0.017 A 
HETATM  108  C   UNK N   1      26.137  20.278   3.350  0.00  0.00     0.001 A 
HETATM  109  C   UNK N   1      27.000  20.606   4.391  0.00  0.00     0.002 A 
HETATM  110  C   UNK N   1      27.261  19.679   5.402  0.00  0.00     0.030 A 
HETATM  111  C   UNK N   1      26.675  18.417   5.379  0.00  0.00     0.039 A 
BRANCH 111 112
HETATM  112  N   UNK N   1      26.967  17.509   6.420  0.00  0.00    -0.398 N 
HETATM  113  H   UNK N   1      27.249  17.080   7.260  0.00  0.00     0.156 HD
HETATM  114  H   UNK N   1      26.659  16.693   5.963  0.00  0.00     0.156 HD
ENDBRANCH 111 112
ENDBRANCH 104 106
ENDBRANCH 103 104
ENDBRANCH   3 103
BRANCH  32 115
HETATM  115  C   UNK N   1      32.933  10.794   5.817  0.00  0.00     0.036 C 
BRANCH 115 116
HETATM  116  C   UNK N   1      32.822  10.389   7.284  0.00  0.00     0.021 C 
BRANCH 116 117
HETATM  117  C   UNK N   1      34.006   9.535   7.684  0.00  0.00     0.111 C 
BRANCH 117 118
HETATM  118  N   UNK N   1      33.648   8.129   7.597  0.00  0.00    -0.430 N 
HETATM  119  H   UNK N   1      32.743   7.754   7.883  0.00  0.00     0.149 HD
HETATM  120  H   UNK N   1      34.342   7.479   7.229  0.00  0.00     0.149 HD
ENDBRANCH 117 118
ENDBRANCH 116 117
ENDBRANCH 115 116
ENDBRANCH  32 115
BRANCH   8 121
HETATM  121  C   UNK N   1      20.802  16.671   2.905  0.00  0.00     0.023 C 
HETATM  122  C   UNK N   1      19.701  16.681   3.939  0.00  0.00     0.013 C 
BRANCH 121 123
HETATM  123  C   UNK N   1      21.440  18.050   2.774  0.00  0.00     0.116 C 
BRANCH 123 124
HETATM  124  C   UNK N   1      21.452  18.776   4.078  0.00  0.00     0.139 C 
HETATM  125  O   UNK N   1      20.772  19.777   4.226  0.00  0.00    -0.650 OA
BRANCH 124 126
HETATM  126  O   UNK N   1      22.181  18.301   5.105  0.00  0.00    -0.776 OA
HETATM  127  H   UNK N   1      22.080  18.050   6.003  0.00  0.00     0.167 HD
ENDBRANCH 124 126
ENDBRANCH 123 124
ENDBRANCH 121 123
ENDBRANCH   8 121
BRANCH  29 128
HETATM  128  C   UNK N   1      29.025   9.230   2.676  0.00  0.00     0.144 C 
BRANCH 128 129
HETATM  129  C   UNK N   1      29.803   8.469   1.650  0.00  0.00     0.141 C 
HETATM  130  O   UNK N   1      30.740   8.996   1.073  0.00  0.00    -0.650 OA
BRANCH 129 131
HETATM  131  O   UNK N   1      29.453   7.207   1.343  0.00  0.00    -0.776 OA
HETATM  132  H   UNK N   1      29.595   6.305   1.555  0.00  0.00     0.167 HD
ENDBRANCH 129 131
ENDBRANCH 128 129
ENDBRANCH  29 128
BRANCH  11 133
HETATM  133  C   UNK N   1      18.575  13.662   1.738  0.00  0.00     0.199 C 
BRANCH 133 134
HETATM  134  O   UNK N   1      18.608  14.750   0.867  0.00  0.00    -0.398 OA
HETATM  135  H   UNK N   1      18.462  15.685   1.074  0.00  0.00     0.209 HD
ENDBRANCH 133 134
ENDBRANCH  11 133
BRANCH  20 136
HETATM  136  C   UNK N   1      24.410  11.290   5.923  0.00  0.00     0.144 C 
BRANCH 136 137
HETATM  137  C   UNK N   1      23.551  12.179   6.770  0.00  0.00     0.141 C 
HETATM  138  O   UNK N   1      23.785  12.320   7.959  0.00  0.00    -0.650 OA
BRANCH 137 139
HETATM  139  O   UNK N   1      22.554  12.880   6.198  0.00  0.00    -0.776 OA
HETATM  140  H   UNK N   1      22.413  12.893   5.272  0.00  0.00     0.167 HD
ENDBRANCH 137 139
ENDBRANCH 136 137
ENDBRANCH  20 136
TORSDOF 42
ENDMDL
MODEL 3
REMARK VINA RESULT:      -6.9      3.267      6.254
REMARK WARNING: 32 MAX_TORS EXCEEDED!!!
REMARK  42 active torsions:
REMARK  status: ('A' for Active; 'I' for Inactive)
REMARK    1  A    between atoms: C_5  and  C_3 
REMARK    2  A    between atoms: C_96  and  C_5 
REMARK    3  A    between atoms: C_10  and  C_7 
REMARK    4  A    between atoms: O_14  and  C_7 
REMARK    5  A    between atoms: C_12  and  C_10 
REMARK    6  A    between atoms: C_13  and  C_12 
REMARK    7  A    between atoms: C_21  and  C_18 
REMARK    8  A    between atoms: O_22  and  C_21 
REMARK    9  A    between atoms: C_32  and  O_27 
REMARK   10  A    between atoms: C_34  and  C_31 
REMARK   11  A    between atoms: C_34  and  C_32 
REMARK   12  A    between atoms: C_45  and  O_40 
REMARK   13  A    between atoms: C_47  and  C_44 
REMARK   14  A    between atoms: C_47  and  C_45 
REMARK   15  A    between atoms: C_50  and  C_48 
REMARK   16  A    between atoms: C_51  and  C_48 
REMARK   17  A    between atoms: C_53  and  C_50 
REMARK   18  A    between atoms: N_54  and  C_53 
REMARK   19  A    between atoms: C_60  and  N_64 
REMARK       I    between atoms: C_72  and  N_64 
REMARK   20  A    between atoms: C_71  and  O_66 
REMARK   21  A    between atoms: C_70  and  N_67 
REMARK       I    between atoms: C_75  and  N_67 
REMARK   22  A    between atoms: C_72  and  C_70 
REMARK   23  A    between atoms: C_73  and  C_70 
REMARK   24  A    between atoms: C_73  and  C_71 
REMARK   25  A    between atoms: C_76  and  C_74 
REMARK   26  A    between atoms: C_77  and  C_74 
REMARK   27  A    between atoms: C_77  and  C_75 
REMARK       I    between atoms: N_80  and  C_76 
REMARK   28  A    between atoms: C_77  and  N_81 
REMARK       I    between atoms: C_82  and  N_81 
REMARK   29  A    between atoms: C_84  and  C_82 
REMARK   30  A    between atoms: C_85  and  C_84 
REMARK   31  A    between atoms: C_84  and  N_86 
REMARK   32  A    between atoms: C_98  and  C_85 
REMARK       I    between atoms: C_87  and  N_86 
REMARK   33  A    between atoms: C_88  and  C_87 
REMARK   34  A    between atoms: C_108  and  C_88 
REMARK   35  A    between atoms: C_96  and  C_89 
REMARK   36  A    between atoms: N_95  and  C_90 
REMARK   37  A    between atoms: C_109  and  C_108 
REMARK   38  A    between atoms: C_110  and  C_109 
REMARK   39  A    between atoms: C_111  and  C_110 
REMARK   40  A    between atoms: C_112  and  C_111 
REMARK   41  A    between atoms: C_113  and  C_112 
REMARK   42  A    between atoms: C_114  and  C_113 
ROOT
HETATM    1  C   UNK N   1      31.409  14.655   4.152  0.00  0.00     0.282 C 
HETATM    2  O   UNK N   1      31.097  14.953   3.010  0.00  0.00    -0.263 OA
HETATM    3  C   UNK N   1      30.939  15.535   5.288  0.00  0.00     0.191 C 
HETATM    4  N   UNK N   1      30.361  16.746   4.741  0.00  0.00    -0.345 N 
HETATM    5  O   UNK N   1      32.177  13.543   4.347  0.00  0.00    -0.312 OA
HETATM    6  C   UNK N   1      29.240  17.367   5.185  0.00  0.00     0.241 C 
HETATM    7  O   UNK N   1      28.866  18.366   4.593  0.00  0.00    -0.271 OA
HETATM    8  C   UNK N   1      28.487  16.906   6.423  0.00  0.00     0.180 C 
HETATM    9  N   UNK N   1      27.498  15.866   6.230  0.00  0.00    -0.346 N 
HETATM   10  C   UNK N   1      26.411  15.933   5.421  0.00  0.00     0.243 C 
HETATM   11  C   UNK N   1      26.262  17.015   4.369  0.00  0.00     0.200 C 
HETATM   12  O   UNK N   1      25.509  15.135   5.604  0.00  0.00    -0.271 OA
HETATM   13  N   UNK N   1      26.269  16.614   2.963  0.00  0.00    -0.344 N 
HETATM   14  C   UNK N   1      25.908  15.433   2.383  0.00  0.00     0.236 C 
HETATM   15  O   UNK N   1      25.943  15.341   1.167  0.00  0.00    -0.272 OA
HETATM   16  N   UNK N   1      26.331  13.171   3.417  0.00  0.00    -0.351 N 
HETATM   17  C   UNK N   1      25.393  14.261   3.168  0.00  0.00     0.225 C 
HETATM   18  N   UNK N   1      28.945  11.223   1.921  0.00  0.00    -0.346 N 
HETATM   19  O   UNK N   1      27.983  13.742   2.006  0.00  0.00    -0.271 OA
HETATM   20  C   UNK N   1      28.279  11.680   3.129  0.00  0.00     0.186 C 
HETATM   21  C   UNK N   1      27.552  12.973   2.853  0.00  0.00     0.241 C 
HETATM   22  C   UNK N   1      30.110  11.766   1.483  0.00  0.00     0.240 C 
HETATM   23  O   UNK N   1      30.722  12.551   2.178  0.00  0.00    -0.271 OA
HETATM   24  C   UNK N   1      30.651  11.445   0.137  0.00  0.00     0.172 C 
HETATM   25  N   UNK N   1      30.900  10.036   0.024  0.00  0.00    -0.346 N 
HETATM   26  C   UNK N   1      29.703  11.911  -0.951  0.00  0.00     0.042 C 
HETATM   27  N   UNK N   1      34.525   9.525  -0.076  0.00  0.00    -0.346 N 
HETATM   28  O   UNK N   1      32.177   8.233   0.084  0.00  0.00    -0.271 OA
HETATM   29  C   UNK N   1      33.404  10.206   0.515  0.00  0.00     0.186 C 
HETATM   30  C   UNK N   1      32.118   9.450   0.171  0.00  0.00     0.241 C 
HETATM   31  C   UNK N   1      35.651   9.182   0.594  0.00  0.00     0.241 C 
HETATM   32  C   UNK N   1      35.929   9.641   2.019  0.00  0.00     0.176 C 
HETATM   33  N   UNK N   1      36.223  11.072   2.043  0.00  0.00    -0.346 N 
HETATM   34  O   UNK N   1      36.463   8.470   0.023  0.00  0.00    -0.271 OA
HETATM   35  C   UNK N   1      36.678  11.710   3.157  0.00  0.00     0.236 C 
HETATM   36  O   UNK N   1      36.900  11.076   4.177  0.00  0.00    -0.272 OA
HETATM   37  N   UNK N   1      36.078  14.166   3.134  0.00  0.00    -0.350 N 
HETATM   38  C   UNK N   1      37.109  13.143   3.110  0.00  0.00     0.225 C 
HETATM   39  C   UNK N   1      34.477  13.106   4.812  0.00  0.00     0.205 C 
HETATM   40  C   UNK N   1      34.984  14.261   3.945  0.00  0.00     0.243 C 
HETATM   41  O   UNK N   1      34.340  15.297   3.916  0.00  0.00    -0.271 OA
HETATM   42  C   UNK N   1      33.060  13.340   5.392  0.00  0.00     0.159 C 
HETATM   43  C   UNK N   1      32.595  12.152   6.218  0.00  0.00     0.042 C 
HETATM   44  H   UNK N   1      30.826  17.156   3.977  0.00  0.00     0.163 HD
HETATM   45  H   UNK N   1      27.627  15.031   6.734  0.00  0.00     0.163 HD
HETATM   46  H   UNK N   1      26.583  17.305   2.335  0.00  0.00     0.163 HD
HETATM   47  H   UNK N   1      26.044  12.495   4.073  0.00  0.00     0.163 HD
HETATM   48  H   UNK N   1      28.537  10.493   1.402  0.00  0.00     0.163 HD
HETATM   49  H   UNK N   1      30.133   9.453  -0.175  0.00  0.00     0.163 HD
HETATM   50  H   UNK N   1      34.469   9.294  -1.032  0.00  0.00     0.163 HD
HETATM   51  H   UNK N   1      36.087  11.597   1.221  0.00  0.00     0.163 HD
HETATM   52  H   UNK N   1      36.182  14.890   2.474  0.00  0.00     0.163 HD
ENDROOT
BRANCH  39  53
HETATM   53  N   UNK N   1      35.376  12.597   5.833  0.00  0.00    -0.344 N 
HETATM   54  C   UNK N   1      35.978  13.275   6.834  0.00  0.00     0.241 C 
HETATM   55  O   UNK N   1      35.746  14.457   7.038  0.00  0.00    -0.271 OA
HETATM   56  H   UNK N   1      35.573  11.633   5.789  0.00  0.00     0.163 HD
BRANCH  54  57
HETATM   57  C   UNK N   1      36.876  12.514   7.758  0.00  0.00     0.186 C 
BRANCH  57  58
HETATM   58  N   UNK N   1      36.076  11.990   8.828  0.00  0.00    -0.345 N 
HETATM   59  C   UNK N   1      35.717  10.678   8.880  0.00  0.00     0.241 C 
HETATM   60  O   UNK N   1      36.189   9.871   8.090  0.00  0.00    -0.271 OA
HETATM   61  H   UNK N   1      35.780  12.596   9.544  0.00  0.00     0.163 HD
BRANCH  59  62
HETATM   62  C   UNK N   1      34.716  10.218   9.902  0.00  0.00     0.185 C 
BRANCH  62  63
HETATM   63  C   UNK N   1      33.264  10.632   9.610  0.00  0.00     0.137 C 
BRANCH  63  64
HETATM   64  C   UNK N   1      32.288   9.512   9.436  0.00  0.00     0.217 C 
HETATM   65  O   UNK N   1      31.325   9.638   8.698  0.00  0.00    -0.274 OA
HETATM   66  N   UNK N   1      32.487   8.352  10.089  0.00  0.00    -0.370 N 
HETATM   67  H   UNK N   1      32.179   7.846  10.875  0.00  0.00     0.159 HD
HETATM   68  H   UNK N   1      33.175   7.829   9.617  0.00  0.00     0.159 HD
ENDBRANCH  63  64
ENDBRANCH  62  63
BRANCH  62  69
HETATM   69  N   UNK N   1      35.165  10.521  11.248  0.00  0.00    -0.346 N 
HETATM   70  C   UNK N   1      34.998   9.732  12.348  0.00  0.00     0.241 C 
HETATM   71  O   UNK N   1      34.523   8.612  12.254  0.00  0.00    -0.271 OA
HETATM   72  H   UNK N   1      35.633  11.377  11.381  0.00  0.00     0.163 HD
BRANCH  70  73
HETATM   73  C   UNK N   1      35.152  10.332  13.711  0.00  0.00     0.180 C 
BRANCH  73  74
HETATM   74  C   UNK N   1      34.479  11.700  13.739  0.00  0.00     0.075 C 
BRANCH  74  75
HETATM   75  C   UNK N   1      35.426  12.780  14.112  0.00  0.00    -0.028 A 
HETATM   76  C   UNK N   1      36.326  13.431  13.272  0.00  0.00     0.096 A 
HETATM   77  N   UNK N   1      37.007  14.365  13.977  0.00  0.00    -0.365 N 
HETATM   78  C   UNK N   1      36.536  14.299  15.243  0.00  0.00     0.042 A 
HETATM   79  H   UNK N   1      37.705  14.971  13.636  0.00  0.00     0.165 HD
HETATM   80  C   UNK N   1      35.571  13.343  15.347  0.00  0.00    -0.002 A 
HETATM   81  C   UNK N   1      36.934  15.072  16.324  0.00  0.00     0.030 A 
HETATM   82  C   UNK N   1      34.924  13.087  16.558  0.00  0.00     0.014 A 
HETATM   83  C   UNK N   1      35.304  13.847  17.678  0.00  0.00     0.001 A 
HETATM   84  C   UNK N   1      36.305  14.836  17.563  0.00  0.00     0.002 A 
ENDBRANCH  74  75
ENDBRANCH  73  74
BRANCH  73  85
HETATM   85  N   UNK N   1      36.503  10.364  14.246  0.00  0.00    -0.347 N 
HETATM   86  C   UNK N   1      37.043   9.503  15.149  0.00  0.00     0.218 C 
HETATM   87  O   UNK N   1      38.223   9.614  15.439  0.00  0.00    -0.274 OA
HETATM   88  H   UNK N   1      37.090  11.084  13.919  0.00  0.00     0.163 HD
BRANCH  86  89
HETATM   89  C   UNK N   1      36.231   8.433  15.815  0.00  0.00     0.103 C 
BRANCH  89  90
HETATM   90  C   UNK N   1      36.273   8.585  17.335  0.00  0.00     0.009 C 
BRANCH  90  91
HETATM   91  C   UNK N   1      35.832   9.979  17.776  0.00  0.00     0.000 C 
BRANCH  91  92
HETATM   92  C   UNK N   1      34.639   9.892  18.708  0.00  0.00     0.000 C 
BRANCH  92  93
HETATM   93  C   UNK N   1      34.436   8.459  19.163  0.00  0.00     0.000 C 
BRANCH  93  94
HETATM   94  C   UNK N   1      33.972   8.439  20.606  0.00  0.00     0.000 C 
BRANCH  94  95
HETATM   95  C   UNK N   1      32.531   8.899  20.729  0.00  0.00    -0.000 C 
BRANCH  95  96
HETATM   96  C   UNK N   1      31.613   7.721  20.994  0.00  0.00    -0.005 C 
HETATM   97  C   UNK N   1      30.435   7.774  20.043  0.00  0.00     0.005 C 
ENDBRANCH  95  96
ENDBRANCH  94  95
ENDBRANCH  93  94
ENDBRANCH  92  93
ENDBRANCH  91  92
ENDBRANCH  90  91
ENDBRANCH  89  90
ENDBRANCH  86  89
ENDBRANCH  73  85
ENDBRANCH  70  73
ENDBRANCH  62  69
ENDBRANCH  59  62
ENDBRANCH  57  58
BRANCH  57  98
HETATM   98  C   UNK N   1      38.104  13.284   8.280  0.00  0.00     0.144 C 
BRANCH  98  99
HETATM   99  C   UNK N   1      38.162  13.574   9.754  0.00  0.00     0.141 C 
HETATM  100  O   UNK N   1      38.272  12.666  10.563  0.00  0.00    -0.650 OA
BRANCH  99 101
HETATM  101  O   UNK N   1      38.144  14.851  10.179  0.00  0.00    -0.776 OA
HETATM  102  H   UNK N   1      38.597  15.140  10.947  0.00  0.00     0.167 HD
ENDBRANCH  99 101
ENDBRANCH  98  99
ENDBRANCH  57  98
ENDBRANCH  54  57
ENDBRANCH  39  53
BRANCH   3 103
HETATM  103  C   UNK N   1      32.125  15.902   6.135  0.00  0.00     0.119 C 
BRANCH 103 104
HETATM  104  C   UNK N   1      31.784  15.800   7.577  0.00  0.00     0.164 C 
HETATM  105  O   UNK N   1      30.617  15.651   7.910  0.00  0.00    -0.292 OA
BRANCH 104 106
HETATM  106  C   UNK N   1      32.871  15.822   8.573  0.00  0.00     0.036 A 
HETATM  107  C   UNK N   1      33.684  16.965   8.653  0.00  0.00     0.017 A 
HETATM  108  C   UNK N   1      34.738  17.029   9.559  0.00  0.00     0.001 A 
HETATM  109  C   UNK N   1      34.994  15.947  10.396  0.00  0.00     0.002 A 
HETATM  110  C   UNK N   1      34.190  14.808  10.332  0.00  0.00     0.030 A 
HETATM  111  C   UNK N   1      33.133  14.731   9.429  0.00  0.00     0.039 A 
BRANCH 111 112
HETATM  112  N   UNK N   1      32.345  13.560   9.396  0.00  0.00    -0.398 N 
HETATM  113  H   UNK N   1      31.961  12.675   9.202  0.00  0.00     0.156 HD
HETATM  114  H   UNK N   1      31.686  13.835  10.074  0.00  0.00     0.156 HD
ENDBRANCH 111 112
ENDBRANCH 104 106
ENDBRANCH 103 104
ENDBRANCH   3 103
BRANCH  32 115
HETATM  115  C   UNK N   1      37.085   8.823   2.634  0.00  0.00     0.036 C 
BRANCH 115 116
HETATM  116  C   UNK N   1      36.586   7.676   3.509  0.00  0.00     0.021 C 
BRANCH 116 117
HETATM  117  C   UNK N   1      35.254   8.033   4.133  0.00  0.00     0.111 C 
BRANCH 117 118
HETATM  118  N   UNK N   1      35.471   8.672   5.420  0.00  0.00    -0.430 N 
HETATM  119  H   UNK N   1      35.770   9.642   5.529  0.00  0.00     0.149 HD
HETATM  120  H   UNK N   1      35.316   8.120   6.263  0.00  0.00     0.149 HD
ENDBRANCH 117 118
ENDBRANCH 116 117
ENDBRANCH 115 116
ENDBRANCH  32 115
BRANCH   8 121
HETATM  121  C   UNK N   1      27.934  17.984   7.379  0.00  0.00     0.023 C 
HETATM  122  C   UNK N   1      28.179  17.660   8.834  0.00  0.00     0.013 C 
BRANCH 121 123
HETATM  123  C   UNK N   1      28.363  19.413   7.058  0.00  0.00     0.116 C 
BRANCH 123 124
HETATM  124  C   UNK N   1      27.185  20.314   6.891  0.00  0.00     0.139 C 
HETATM  125  O   UNK N   1      26.963  20.835   5.811  0.00  0.00    -0.650 OA
BRANCH 124 126
HETATM  126  O   UNK N   1      26.343  20.519   7.921  0.00  0.00    -0.776 OA
HETATM  127  H   UNK N   1      26.076  21.201   8.506  0.00  0.00     0.167 HD
ENDBRANCH 124 126
ENDBRANCH 123 124
ENDBRANCH 121 123
ENDBRANCH   8 121
BRANCH  29 128
HETATM  128  C   UNK N   1      33.463  11.678   0.120  0.00  0.00     0.144 C 
BRANCH 128 129
HETATM  129  C   UNK N   1      34.355  11.873  -1.066  0.00  0.00     0.141 C 
HETATM  130  O   UNK N   1      33.944  11.634  -2.189  0.00  0.00    -0.650 OA
BRANCH 129 131
HETATM  131  O   UNK N   1      35.622  12.287  -0.891  0.00  0.00    -0.776 OA
HETATM  132  H   UNK N   1      36.196  13.026  -0.950  0.00  0.00     0.167 HD
ENDBRANCH 129 131
ENDBRANCH 128 129
ENDBRANCH  29 128
BRANCH  11 133
HETATM  133  C   UNK N   1      25.132  17.996   4.637  0.00  0.00     0.199 C 
BRANCH 133 134
HETATM  134  O   UNK N   1      23.902  17.340   4.669  0.00  0.00    -0.398 OA
HETATM  135  H   UNK N   1      23.598  16.673   5.304  0.00  0.00     0.209 HD
ENDBRANCH 133 134
ENDBRANCH  11 133
BRANCH  20 136
HETATM  136  C   UNK N   1      29.210  11.633   4.361  0.00  0.00     0.144 C 
BRANCH 136 137
HETATM  137  C   UNK N   1      29.741  10.280   4.725  0.00  0.00     0.141 C 
HETATM  138  O   UNK N   1      30.002   9.461   3.859  0.00  0.00    -0.650 OA
BRANCH 137 139
HETATM  139  O   UNK N   1      29.994   9.991   6.015  0.00  0.00    -0.776 OA
HETATM  140  H   UNK N   1      29.622  10.478   6.724  0.00  0.00     0.167 HD
ENDBRANCH 137 139
ENDBRANCH 136 137
ENDBRANCH  20 136
TORSDOF 42
ENDMDL
MODEL 4
REMARK VINA RESULT:      -6.7      3.140      5.676
REMARK WARNING: 32 MAX_TORS EXCEEDED!!!
REMARK  42 active torsions:
REMARK  status: ('A' for Active; 'I' for Inactive)
REMARK    1  A    between atoms: C_5  and  C_3 
REMARK    2  A    between atoms: C_96  and  C_5 
REMARK    3  A    between atoms: C_10  and  C_7 
REMARK    4  A    between atoms: O_14  and  C_7 
REMARK    5  A    between atoms: C_12  and  C_10 
REMARK    6  A    between atoms: C_13  and  C_12 
REMARK    7  A    between atoms: C_21  and  C_18 
REMARK    8  A    between atoms: O_22  and  C_21 
REMARK    9  A    between atoms: C_32  and  O_27 
REMARK   10  A    between atoms: C_34  and  C_31 
REMARK   11  A    between atoms: C_34  and  C_32 
REMARK   12  A    between atoms: C_45  and  O_40 
REMARK   13  A    between atoms: C_47  and  C_44 
REMARK   14  A    between atoms: C_47  and  C_45 
REMARK   15  A    between atoms: C_50  and  C_48 
REMARK   16  A    between atoms: C_51  and  C_48 
REMARK   17  A    between atoms: C_53  and  C_50 
REMARK   18  A    between atoms: N_54  and  C_53 
REMARK   19  A    between atoms: C_60  and  N_64 
REMARK       I    between atoms: C_72  and  N_64 
REMARK   20  A    between atoms: C_71  and  O_66 
REMARK   21  A    between atoms: C_70  and  N_67 
REMARK       I    between atoms: C_75  and  N_67 
REMARK   22  A    between atoms: C_72  and  C_70 
REMARK   23  A    between atoms: C_73  and  C_70 
REMARK   24  A    between atoms: C_73  and  C_71 
REMARK   25  A    between atoms: C_76  and  C_74 
REMARK   26  A    between atoms: C_77  and  C_74 
REMARK   27  A    between atoms: C_77  and  C_75 
REMARK       I    between atoms: N_80  and  C_76 
REMARK   28  A    between atoms: C_77  and  N_81 
REMARK       I    between atoms: C_82  and  N_81 
REMARK   29  A    between atoms: C_84  and  C_82 
REMARK   30  A    between atoms: C_85  and  C_84 
REMARK   31  A    between atoms: C_84  and  N_86 
REMARK   32  A    between atoms: C_98  and  C_85 
REMARK       I    between atoms: C_87  and  N_86 
REMARK   33  A    between atoms: C_88  and  C_87 
REMARK   34  A    between atoms: C_108  and  C_88 
REMARK   35  A    between atoms: C_96  and  C_89 
REMARK   36  A    between atoms: N_95  and  C_90 
REMARK   37  A    between atoms: C_109  and  C_108 
REMARK   38  A    between atoms: C_110  and  C_109 
REMARK   39  A    between atoms: C_111  and  C_110 
REMARK   40  A    between atoms: C_112  and  C_111 
REMARK   41  A    between atoms: C_113  and  C_112 
REMARK   42  A    between atoms: C_114  and  C_113 
ROOT
HETATM    1  C   UNK N   1      31.001  14.297   3.347  0.00  0.00     0.282 C 
HETATM    2  O   UNK N   1      30.424  14.395   2.275  0.00  0.00    -0.263 OA
HETATM    3  C   UNK N   1      30.590  15.210   4.479  0.00  0.00     0.191 C 
HETATM    4  N   UNK N   1      29.691  16.224   3.969  0.00  0.00    -0.345 N 
HETATM    5  O   UNK N   1      31.997  13.371   3.466  0.00  0.00    -0.312 OA
HETATM    6  C   UNK N   1      28.575  16.685   4.585  0.00  0.00     0.241 C 
HETATM    7  O   UNK N   1      27.903  17.523   4.005  0.00  0.00    -0.271 OA
HETATM    8  C   UNK N   1      28.177  16.250   5.988  0.00  0.00     0.180 C 
HETATM    9  N   UNK N   1      27.396  15.036   6.091  0.00  0.00    -0.346 N 
HETATM   10  C   UNK N   1      26.184  14.811   5.526  0.00  0.00     0.243 C 
HETATM   11  C   UNK N   1      25.626  15.714   4.444  0.00  0.00     0.200 C 
HETATM   12  O   UNK N   1      25.509  13.893   5.960  0.00  0.00    -0.271 OA
HETATM   13  N   UNK N   1      25.444  15.154   3.105  0.00  0.00    -0.344 N 
HETATM   14  C   UNK N   1      25.221  13.867   2.713  0.00  0.00     0.236 C 
HETATM   15  O   UNK N   1      25.041  13.637   1.529  0.00  0.00    -0.272 OA
HETATM   16  N   UNK N   1      26.273  11.857   3.817  0.00  0.00    -0.351 N 
HETATM   17  C   UNK N   1      25.107  12.725   3.682  0.00  0.00     0.225 C 
HETATM   18  N   UNK N   1      28.888  10.239   1.972  0.00  0.00    -0.346 N 
HETATM   19  O   UNK N   1      27.480  12.538   2.049  0.00  0.00    -0.271 OA
HETATM   20  C   UNK N   1      28.387  10.712   3.251  0.00  0.00     0.186 C 
HETATM   21  C   UNK N   1      27.379  11.813   3.028  0.00  0.00     0.241 C 
HETATM   22  C   UNK N   1      29.817  10.923   1.255  0.00  0.00     0.240 C 
HETATM   23  O   UNK N   1      30.382  11.882   1.740  0.00  0.00    -0.271 OA
HETATM   24  C   UNK N   1      30.145  10.544  -0.143  0.00  0.00     0.172 C 
HETATM   25  N   UNK N   1      30.642   9.198  -0.190  0.00  0.00    -0.346 N 
HETATM   26  C   UNK N   1      28.933  10.699  -1.042  0.00  0.00     0.042 C 
HETATM   27  N   UNK N   1      34.209   9.331  -1.006  0.00  0.00    -0.346 N 
HETATM   28  O   UNK N   1      32.238   7.671  -0.251  0.00  0.00    -0.271 OA
HETATM   29  C   UNK N   1      33.109   9.868  -0.251  0.00  0.00     0.186 C 
HETATM   30  C   UNK N   1      31.958   8.860  -0.254  0.00  0.00     0.241 C 
HETATM   31  C   UNK N   1      35.487   9.276  -0.561  0.00  0.00     0.241 C 
HETATM   32  C   UNK N   1      35.935   9.946   0.731  0.00  0.00     0.176 C 
HETATM   33  N   UNK N   1      35.938  11.399   0.575  0.00  0.00    -0.346 N 
HETATM   34  O   UNK N   1      36.300   8.656  -1.230  0.00  0.00    -0.271 OA
HETATM   35  C   UNK N   1      36.461  12.237   1.513  0.00  0.00     0.236 C 
HETATM   36  O   UNK N   1      36.995  11.780   2.512  0.00  0.00    -0.272 OA
HETATM   37  N   UNK N   1      35.393  14.526   1.415  0.00  0.00    -0.350 N 
HETATM   38  C   UNK N   1      36.583  13.707   1.259  0.00  0.00     0.225 C 
HETATM   39  C   UNK N   1      34.384  13.408   3.473  0.00  0.00     0.205 C 
HETATM   40  C   UNK N   1      34.477  14.522   2.427  0.00  0.00     0.243 C 
HETATM   41  O   UNK N   1      33.647  15.417   2.449  0.00  0.00    -0.271 OA
HETATM   42  C   UNK N   1      33.085  13.456   4.316  0.00  0.00     0.159 C 
HETATM   43  C   UNK N   1      33.031  12.312   5.316  0.00  0.00     0.042 C 
HETATM   44  H   UNK N   1      29.911  16.615   3.093  0.00  0.00     0.163 HD
HETATM   45  H   UNK N   1      27.781  14.303   6.625  0.00  0.00     0.163 HD
HETATM   46  H   UNK N   1      25.489  15.809   2.371  0.00  0.00     0.163 HD
HETATM   47  H   UNK N   1      26.256  11.225   4.572  0.00  0.00     0.163 HD
HETATM   48  H   UNK N   1      28.541   9.390   1.611  0.00  0.00     0.163 HD
HETATM   49  H   UNK N   1      29.982   8.468  -0.175  0.00  0.00     0.163 HD
HETATM   50  H   UNK N   1      34.019   8.979  -1.907  0.00  0.00     0.163 HD
HETATM   51  H   UNK N   1      35.547  11.788  -0.240  0.00  0.00     0.163 HD
HETATM   52  H   UNK N   1      35.224  15.173   0.691  0.00  0.00     0.163 HD
ENDROOT
BRANCH  39  53
HETATM   53  N   UNK N   1      35.543  13.194   4.320  0.00  0.00    -0.344 N 
HETATM   54  C   UNK N   1      36.142  14.067   5.160  0.00  0.00     0.241 C 
HETATM   55  O   UNK N   1      35.683  15.182   5.359  0.00  0.00    -0.271 OA
HETATM   56  H   UNK N   1      35.946  12.296   4.277  0.00  0.00     0.163 HD
BRANCH  54  57
HETATM   57  C   UNK N   1      37.341  13.599   5.922  0.00  0.00     0.186 C 
BRANCH  57  58
HETATM   58  N   UNK N   1      37.025  13.641   7.322  0.00  0.00    -0.345 N 
HETATM   59  C   UNK N   1      36.882  12.505   8.059  0.00  0.00     0.241 C 
HETATM   60  O   UNK N   1      37.162  11.414   7.583  0.00  0.00    -0.271 OA
HETATM   61  H   UNK N   1      36.910  14.514   7.760  0.00  0.00     0.163 HD
BRANCH  59  62
HETATM   62  C   UNK N   1      36.354  12.589   9.464  0.00  0.00     0.185 C 
BRANCH  62  63
HETATM   63  C   UNK N   1      36.816  13.828  10.250  0.00  0.00     0.137 C 
BRANCH  63  64
HETATM   64  C   UNK N   1      35.991  14.188  11.445  0.00  0.00     0.217 C 
HETATM   65  O   UNK N   1      34.888  13.692  11.609  0.00  0.00    -0.274 OA
HETATM   66  N   UNK N   1      36.481  15.052  12.354  0.00  0.00    -0.370 N 
HETATM   67  H   UNK N   1      36.416  15.992  12.637  0.00  0.00     0.159 HD
HETATM   68  H   UNK N   1      37.123  14.582  12.934  0.00  0.00     0.159 HD
ENDBRANCH  63  64
ENDBRANCH  62  63
BRANCH  62  69
HETATM   69  N   UNK N   1      36.535  11.333  10.168  0.00  0.00    -0.346 N 
HETATM   70  C   UNK N   1      35.557  10.428  10.460  0.00  0.00     0.241 C 
HETATM   71  O   UNK N   1      34.420  10.571  10.042  0.00  0.00    -0.271 OA
HETATM   72  H   UNK N   1      37.448  11.114  10.462  0.00  0.00     0.163 HD
BRANCH  70  73
HETATM   73  C   UNK N   1      35.809   9.393  11.512  0.00  0.00     0.180 C 
BRANCH  73  74
HETATM   74  C   UNK N   1      36.477  10.048  12.716  0.00  0.00     0.075 C 
BRANCH  74  75
HETATM   75  C   UNK N   1      35.489  10.675  13.629  0.00  0.00    -0.028 A 
HETATM   76  C   UNK N   1      34.154  10.316  13.792  0.00  0.00     0.096 A 
HETATM   77  N   UNK N   1      33.582  11.113  14.726  0.00  0.00    -0.365 N 
HETATM   78  C   UNK N   1      34.551  11.959  15.143  0.00  0.00     0.042 A 
HETATM   79  H   UNK N   1      32.648  11.082  15.038  0.00  0.00     0.165 HD
HETATM   80  C   UNK N   1      35.720  11.709  14.491  0.00  0.00    -0.002 A 
HETATM   81  C   UNK N   1      34.433  12.957  16.100  0.00  0.00     0.030 A 
HETATM   82  C   UNK N   1      36.876  12.449  14.753  0.00  0.00     0.014 A 
HETATM   83  C   UNK N   1      36.795  13.472  15.712  0.00  0.00     0.001 A 
HETATM   84  C   UNK N   1      35.579  13.727  16.384  0.00  0.00     0.002 A 
ENDBRANCH  74  75
ENDBRANCH  73  74
BRANCH  73  85
HETATM   85  N   UNK N   1      36.501   8.192  11.075  0.00  0.00    -0.347 N 
HETATM   86  C   UNK N   1      36.334   6.933  11.559  0.00  0.00     0.218 C 
HETATM   87  O   UNK N   1      36.934   6.012  11.029  0.00  0.00    -0.274 OA
HETATM   88  H   UNK N   1      37.159   8.302  10.350  0.00  0.00     0.163 HD
BRANCH  86  89
HETATM   89  C   UNK N   1      35.454   6.641  12.737  0.00  0.00     0.103 C 
BRANCH  89  90
HETATM   90  C   UNK N   1      36.289   6.376  13.988  0.00  0.00     0.009 C 
BRANCH  90  91
HETATM   91  C   UNK N   1      35.881   7.286  15.144  0.00  0.00     0.000 C 
BRANCH  91  92
HETATM   92  C   UNK N   1      37.099   7.940  15.767  0.00  0.00     0.000 C 
BRANCH  92  93
HETATM   93  C   UNK N   1      36.672   9.042  16.717  0.00  0.00     0.000 C 
BRANCH  93  94
HETATM   94  C   UNK N   1      35.234   8.822  17.144  0.00  0.00     0.000 C 
BRANCH  94  95
HETATM   95  C   UNK N   1      34.783   9.881  18.133  0.00  0.00    -0.000 C 
BRANCH  95  96
HETATM   96  C   UNK N   1      35.967  10.684  18.635  0.00  0.00    -0.005 C 
HETATM   97  C   UNK N   1      35.479  11.774  19.568  0.00  0.00     0.005 C 
ENDBRANCH  95  96
ENDBRANCH  94  95
ENDBRANCH  93  94
ENDBRANCH  92  93
ENDBRANCH  91  92
ENDBRANCH  90  91
ENDBRANCH  89  90
ENDBRANCH  86  89
ENDBRANCH  73  85
ENDBRANCH  70  73
ENDBRANCH  62  69
ENDBRANCH  59  62
ENDBRANCH  57  58
BRANCH  57  98
HETATM   98  C   UNK N   1      38.659  14.331   5.607  0.00  0.00     0.144 C 
BRANCH  98  99
HETATM   99  C   UNK N   1      39.825  14.079   6.522  0.00  0.00     0.141 C 
HETATM  100  O   UNK N   1      40.552  14.995   6.870  0.00  0.00    -0.650 OA
BRANCH  99 101
HETATM  101  O   UNK N   1      40.035  12.838   7.001  0.00  0.00    -0.776 OA
HETATM  102  H   UNK N   1      39.873  12.063   6.500  0.00  0.00     0.167 HD
ENDBRANCH  99 101
ENDBRANCH  98  99
ENDBRANCH  57  98
ENDBRANCH  54  57
ENDBRANCH  39  53
BRANCH   3 103
HETATM  103  C   UNK N   1      31.819  15.881   5.025  0.00  0.00     0.119 C 
BRANCH 103 104
HETATM  104  C   UNK N   1      31.952  15.615   6.481  0.00  0.00     0.164 C 
HETATM  105  O   UNK N   1      31.264  14.748   6.998  0.00  0.00    -0.292 OA
BRANCH 104 106
HETATM  106  C   UNK N   1      32.956  16.366   7.257  0.00  0.00     0.036 A 
HETATM  107  C   UNK N   1      33.212  17.703   6.906  0.00  0.00     0.017 A 
HETATM  108  C   UNK N   1      34.166  18.450   7.591  0.00  0.00     0.001 A 
HETATM  109  C   UNK N   1      34.877  17.868   8.636  0.00  0.00     0.002 A 
HETATM  110  C   UNK N   1      34.627  16.544   9.000  0.00  0.00     0.030 A 
HETATM  111  C   UNK N   1      33.676  15.786   8.322  0.00  0.00     0.039 A 
BRANCH 111 112
HETATM  112  N   UNK N   1      33.455  14.449   8.721  0.00  0.00    -0.398 N 
HETATM  113  H   UNK N   1      33.432  13.468   8.796  0.00  0.00     0.156 HD
HETATM  114  H   UNK N   1      32.931  14.648   9.531  0.00  0.00     0.156 HD
ENDBRANCH 111 112
ENDBRANCH 104 106
ENDBRANCH 103 104
ENDBRANCH   3 103
BRANCH  32 115
HETATM  115  C   UNK N   1      37.325   9.427   1.155  0.00  0.00     0.036 C 
BRANCH 115 116
HETATM  116  C   UNK N   1      37.241   8.157   1.998  0.00  0.00     0.021 C 
BRANCH 116 117
HETATM  117  C   UNK N   1      36.567   8.449   3.321  0.00  0.00     0.111 C 
BRANCH 117 118
HETATM  118  N   UNK N   1      35.446   7.545   3.510  0.00  0.00    -0.430 N 
HETATM  119  H   UNK N   1      35.159   7.177   4.418  0.00  0.00     0.149 HD
HETATM  120  H   UNK N   1      34.913   7.262   2.688  0.00  0.00     0.149 HD
ENDBRANCH 117 118
ENDBRANCH 116 117
ENDBRANCH 115 116
ENDBRANCH  32 115
BRANCH   8 121
HETATM  121  C   UNK N   1      27.614  17.320   6.946  0.00  0.00     0.023 C 
HETATM  122  C   UNK N   1      27.415  16.803   8.351  0.00  0.00     0.013 C 
BRANCH 121 123
HETATM  123  C   UNK N   1      28.372  18.644   6.954  0.00  0.00     0.116 C 
BRANCH 123 124
HETATM  124  C   UNK N   1      27.448  19.806   6.804  0.00  0.00     0.139 C 
HETATM  125  O   UNK N   1      27.337  20.364   5.726  0.00  0.00    -0.650 OA
BRANCH 124 126
HETATM  126  O   UNK N   1      26.704  20.213   7.850  0.00  0.00    -0.776 OA
HETATM  127  H   UNK N   1      26.002  20.802   8.047  0.00  0.00     0.167 HD
ENDBRANCH 124 126
ENDBRANCH 123 124
ENDBRANCH 121 123
ENDBRANCH   8 121
BRANCH  29 128
HETATM  128  C   UNK N   1      32.799  11.269  -0.769  0.00  0.00     0.144 C 
BRANCH 128 129
HETATM  129  C   UNK N   1      33.102  11.372  -2.230  0.00  0.00     0.141 C 
HETATM  130  O   UNK N   1      32.311  10.942  -3.054  0.00  0.00    -0.650 OA
BRANCH 129 131
HETATM  131  O   UNK N   1      34.262  11.917  -2.637  0.00  0.00    -0.776 OA
HETATM  132  H   UNK N   1      34.880  11.953  -3.341  0.00  0.00     0.167 HD
ENDBRANCH 129 131
ENDBRANCH 128 129
ENDBRANCH  29 128
BRANCH  11 133
HETATM  133  C   UNK N   1      24.395  16.503   4.861  0.00  0.00     0.199 C 
BRANCH 133 134
HETATM  134  O   UNK N   1      24.153  16.361   6.227  0.00  0.00    -0.398 OA
HETATM  135  H   UNK N   1      24.784  16.456   6.958  0.00  0.00     0.209 HD
ENDBRANCH 133 134
ENDBRANCH  11 133
BRANCH  20 136
HETATM  136  C   UNK N   1      29.525  10.980   4.259  0.00  0.00     0.144 C 
BRANCH 136 137
HETATM  137  C   UNK N   1      30.205   9.764   4.812  0.00  0.00     0.141 C 
HETATM  138  O   UNK N   1      30.908   9.068   4.100  0.00  0.00    -0.650 OA
BRANCH 137 139
HETATM  139  O   UNK N   1      30.090   9.478   6.123  0.00  0.00    -0.776 OA
HETATM  140  H   UNK N   1      29.585  10.004   6.712  0.00  0.00     0.167 HD
ENDBRANCH 137 139
ENDBRANCH 136 137
ENDBRANCH  20 136
TORSDOF 42
ENDMDL
MODEL 5
REMARK VINA RESULT:      -6.5      2.746      5.231
REMARK WARNING: 32 MAX_TORS EXCEEDED!!!
REMARK  42 active torsions:
REMARK  status: ('A' for Active; 'I' for Inactive)
REMARK    1  A    between atoms: C_5  and  C_3 
REMARK    2  A    between atoms: C_96  and  C_5 
REMARK    3  A    between atoms: C_10  and  C_7 
REMARK    4  A    between atoms: O_14  and  C_7 
REMARK    5  A    between atoms: C_12  and  C_10 
REMARK    6  A    between atoms: C_13  and  C_12 
REMARK    7  A    between atoms: C_21  and  C_18 
REMARK    8  A    between atoms: O_22  and  C_21 
REMARK    9  A    between atoms: C_32  and  O_27 
REMARK   10  A    between atoms: C_34  and  C_31 
REMARK   11  A    between atoms: C_34  and  C_32 
REMARK   12  A    between atoms: C_45  and  O_40 
REMARK   13  A    between atoms: C_47  and  C_44 
REMARK   14  A    between atoms: C_47  and  C_45 
REMARK   15  A    between atoms: C_50  and  C_48 
REMARK   16  A    between atoms: C_51  and  C_48 
REMARK   17  A    between atoms: C_53  and  C_50 
REMARK   18  A    between atoms: N_54  and  C_53 
REMARK   19  A    between atoms: C_60  and  N_64 
REMARK       I    between atoms: C_72  and  N_64 
REMARK   20  A    between atoms: C_71  and  O_66 
REMARK   21  A    between atoms: C_70  and  N_67 
REMARK       I    between atoms: C_75  and  N_67 
REMARK   22  A    between atoms: C_72  and  C_70 
REMARK   23  A    between atoms: C_73  and  C_70 
REMARK   24  A    between atoms: C_73  and  C_71 
REMARK   25  A    between atoms: C_76  and  C_74 
REMARK   26  A    between atoms: C_77  and  C_74 
REMARK   27  A    between atoms: C_77  and  C_75 
REMARK       I    between atoms: N_80  and  C_76 
REMARK   28  A    between atoms: C_77  and  N_81 
REMARK       I    between atoms: C_82  and  N_81 
REMARK   29  A    between atoms: C_84  and  C_82 
REMARK   30  A    between atoms: C_85  and  C_84 
REMARK   31  A    between atoms: C_84  and  N_86 
REMARK   32  A    between atoms: C_98  and  C_85 
REMARK       I    between atoms: C_87  and  N_86 
REMARK   33  A    between atoms: C_88  and  C_87 
REMARK   34  A    between atoms: C_108  and  C_88 
REMARK   35  A    between atoms: C_96  and  C_89 
REMARK   36  A    between atoms: N_95  and  C_90 
REMARK   37  A    between atoms: C_109  and  C_108 
REMARK   38  A    between atoms: C_110  and  C_109 
REMARK   39  A    between atoms: C_111  and  C_110 
REMARK   40  A    between atoms: C_112  and  C_111 
REMARK   41  A    between atoms: C_113  and  C_112 
REMARK   42  A    between atoms: C_114  and  C_113 
ROOT
HETATM    1  C   UNK N   1      27.879  12.106   1.838  0.00  0.00     0.282 C 
HETATM    2  O   UNK N   1      26.856  11.997   1.181  0.00  0.00    -0.263 OA
HETATM    3  C   UNK N   1      28.038  13.308   2.741  0.00  0.00     0.191 C 
HETATM    4  N   UNK N   1      26.976  14.254   2.464  0.00  0.00    -0.345 N 
HETATM    5  O   UNK N   1      28.835  11.139   1.718  0.00  0.00    -0.312 OA
HETATM    6  C   UNK N   1      26.281  14.967   3.384  0.00  0.00     0.241 C 
HETATM    7  O   UNK N   1      25.391  15.702   2.988  0.00  0.00    -0.271 OA
HETATM    8  C   UNK N   1      26.618  14.935   4.867  0.00  0.00     0.180 C 
HETATM    9  N   UNK N   1      26.017  13.873   5.645  0.00  0.00    -0.346 N 
HETATM   10  C   UNK N   1      24.689  13.644   5.798  0.00  0.00     0.243 C 
HETATM   11  C   UNK N   1      23.655  14.305   4.909  0.00  0.00     0.200 C 
HETATM   12  O   UNK N   1      24.331  12.936   6.725  0.00  0.00    -0.271 OA
HETATM   13  N   UNK N   1      22.867  13.455   4.016  0.00  0.00    -0.344 N 
HETATM   14  C   UNK N   1      22.520  12.141   4.134  0.00  0.00     0.236 C 
HETATM   15  O   UNK N   1      21.799  11.647   3.283  0.00  0.00    -0.272 OA
HETATM   16  N   UNK N   1      24.027  10.367   5.105  0.00  0.00    -0.351 N 
HETATM   17  C   UNK N   1      22.917  11.292   5.307  0.00  0.00     0.225 C 
HETATM   18  N   UNK N   1      25.478   8.079   2.755  0.00  0.00    -0.346 N 
HETATM   19  O   UNK N   1      24.217  10.461   2.868  0.00  0.00    -0.271 OA
HETATM   20  C   UNK N   1      25.640   8.903   3.940  0.00  0.00     0.186 C 
HETATM   21  C   UNK N   1      24.619  10.014   3.933  0.00  0.00     0.241 C 
HETATM   22  C   UNK N   1      25.929   8.464   1.533  0.00  0.00     0.240 C 
HETATM   23  O   UNK N   1      26.631   9.449   1.420  0.00  0.00    -0.271 OA
HETATM   24  C   UNK N   1      25.555   7.720   0.303  0.00  0.00     0.172 C 
HETATM   25  N   UNK N   1      26.006   6.360   0.389  0.00  0.00    -0.346 N 
HETATM   26  C   UNK N   1      24.057   7.775   0.074  0.00  0.00     0.042 C 
HETATM   27  N   UNK N   1      28.737   5.912  -2.008  0.00  0.00    -0.346 N 
HETATM   28  O   UNK N   1      27.418   4.706  -0.005  0.00  0.00    -0.271 OA
HETATM   29  C   UNK N   1      28.120   6.732  -1.000  0.00  0.00     0.186 C 
HETATM   30  C   UNK N   1      27.138   5.880  -0.193  0.00  0.00     0.241 C 
HETATM   31  C   UNK N   1      30.073   5.835  -2.220  0.00  0.00     0.241 C 
HETATM   32  C   UNK N   1      31.068   6.752  -1.521  0.00  0.00     0.176 C 
HETATM   33  N   UNK N   1      30.956   8.114  -2.040  0.00  0.00    -0.346 N 
HETATM   34  O   UNK N   1      30.482   4.988  -2.999  0.00  0.00    -0.271 OA
HETATM   35  C   UNK N   1      31.841   9.097  -1.720  0.00  0.00     0.236 C 
HETATM   36  O   UNK N   1      32.802   8.848  -1.008  0.00  0.00    -0.272 OA
HETATM   37  N   UNK N   1      30.795  11.391  -1.911  0.00  0.00    -0.350 N 
HETATM   38  C   UNK N   1      31.786  10.439  -2.383  0.00  0.00     0.225 C 
HETATM   39  C   UNK N   1      30.930  10.927   0.593  0.00  0.00     0.205 C 
HETATM   40  C   UNK N   1      30.478  11.732  -0.628  0.00  0.00     0.243 C 
HETATM   41  O   UNK N   1      29.736  12.687  -0.458  0.00  0.00    -0.271 OA
HETATM   42  C   UNK N   1      30.194  11.316   1.900  0.00  0.00     0.159 C 
HETATM   43  C   UNK N   1      30.659  10.467   3.072  0.00  0.00     0.042 C 
HETATM   44  H   UNK N   1      26.737  14.392   1.519  0.00  0.00     0.163 HD
HETATM   45  H   UNK N   1      26.631  13.258   6.108  0.00  0.00     0.163 HD
HETATM   46  H   UNK N   1      22.537  13.900   3.203  0.00  0.00     0.163 HD
HETATM   47  H   UNK N   1      24.393   9.946   5.917  0.00  0.00     0.163 HD
HETATM   48  H   UNK N   1      25.024   7.209   2.840  0.00  0.00     0.163 HD
HETATM   49  H   UNK N   1      25.455   5.729   0.906  0.00  0.00     0.163 HD
HETATM   50  H   UNK N   1      28.148   5.372  -2.584  0.00  0.00     0.163 HD
HETATM   51  H   UNK N   1      30.210   8.329  -2.646  0.00  0.00     0.163 HD
HETATM   52  H   UNK N   1      30.281  11.853  -2.613  0.00  0.00     0.163 HD
ENDROOT
BRANCH  39  53
HETATM   53  N   UNK N   1      32.359  10.808   0.819  0.00  0.00    -0.344 N 
HETATM   54  C   UNK N   1      33.331  11.703   0.535  0.00  0.00     0.241 C 
HETATM   55  O   UNK N   1      33.071  12.814   0.097  0.00  0.00    -0.271 OA
HETATM   56  H   UNK N   1      32.659   9.966   1.232  0.00  0.00     0.163 HD
BRANCH  54  57
HETATM   57  C   UNK N   1      34.743  11.333   0.860  0.00  0.00     0.186 C 
BRANCH  57  58
HETATM   58  N   UNK N   1      34.865  11.245   2.287  0.00  0.00    -0.345 N 
HETATM   59  C   UNK N   1      35.079  10.057   2.918  0.00  0.00     0.241 C 
HETATM   60  O   UNK N   1      35.320   9.045   2.275  0.00  0.00    -0.271 OA
HETATM   61  H   UNK N   1      34.793  12.066   2.825  0.00  0.00     0.163 HD
BRANCH  59  62
HETATM   62  C   UNK N   1      34.997   9.983   4.417  0.00  0.00     0.185 C 
BRANCH  62  63
HETATM   63  C   UNK N   1      33.829   9.138   4.954  0.00  0.00     0.137 C 
BRANCH  63  64
HETATM   64  C   UNK N   1      33.304   9.531   6.298  0.00  0.00     0.217 C 
HETATM   65  O   UNK N   1      34.011   9.448   7.289  0.00  0.00    -0.274 OA
HETATM   66  N   UNK N   1      32.045   9.996   6.409  0.00  0.00    -0.370 N 
HETATM   67  H   UNK N   1      31.141   9.717   6.680  0.00  0.00     0.159 HD
HETATM   68  H   UNK N   1      32.022  10.937   6.121  0.00  0.00     0.159 HD
ENDBRANCH  63  64
ENDBRANCH  62  63
BRANCH  62  69
HETATM   69  N   UNK N   1      35.104  11.301   5.014  0.00  0.00    -0.346 N 
HETATM   70  C   UNK N   1      36.153  11.766   5.752  0.00  0.00     0.241 C 
HETATM   71  O   UNK N   1      37.171  11.107   5.886  0.00  0.00    -0.271 OA
HETATM   72  H   UNK N   1      34.350  11.918   4.873  0.00  0.00     0.163 HD
BRANCH  70  73
HETATM   73  C   UNK N   1      35.961  12.972   6.618  0.00  0.00     0.180 C 
BRANCH  73  74
HETATM   74  C   UNK N   1      35.267  14.065   5.814  0.00  0.00     0.075 C 
BRANCH  74  75
HETATM   75  C   UNK N   1      33.951  14.434   6.395  0.00  0.00    -0.028 A 
HETATM   76  C   UNK N   1      32.838  13.609   6.535  0.00  0.00     0.096 A 
HETATM   77  N   UNK N   1      31.833  14.303   7.122  0.00  0.00    -0.365 N 
HETATM   78  C   UNK N   1      32.315  15.546   7.347  0.00  0.00     0.042 A 
HETATM   79  H   UNK N   1      30.933  13.969   7.340  0.00  0.00     0.165 HD
HETATM   80  C   UNK N   1      33.603  15.648   6.914  0.00  0.00    -0.002 A 
HETATM   81  C   UNK N   1      31.644  16.609   7.935  0.00  0.00     0.030 A 
HETATM   82  C   UNK N   1      34.326  16.836   7.042  0.00  0.00     0.014 A 
HETATM   83  C   UNK N   1      33.678  17.937   7.628  0.00  0.00     0.001 A 
HETATM   84  C   UNK N   1      32.342  17.825   8.074  0.00  0.00     0.002 A 
ENDBRANCH  74  75
ENDBRANCH  73  74
BRANCH  73  85
HETATM   85  N   UNK N   1      37.144  13.454   7.312  0.00  0.00    -0.347 N 
HETATM   86  C   UNK N   1      37.223  13.845   8.611  0.00  0.00     0.218 C 
HETATM   87  O   UNK N   1      38.312  14.149   9.071  0.00  0.00    -0.274 OA
HETATM   88  H   UNK N   1      37.975  13.502   6.786  0.00  0.00     0.163 HD
BRANCH  86  89
HETATM   89  C   UNK N   1      36.015  13.933   9.494  0.00  0.00     0.103 C 
BRANCH  89  90
HETATM   90  C   UNK N   1      35.827  15.356  10.018  0.00  0.00     0.009 C 
BRANCH  90  91
HETATM   91  C   UNK N   1      35.542  15.372  11.519  0.00  0.00     0.000 C 
BRANCH  91  92
HETATM   92  C   UNK N   1      36.056  14.106  12.174  0.00  0.00     0.000 C 
BRANCH  92  93
HETATM   93  C   UNK N   1      36.324  14.353  13.646  0.00  0.00     0.000 C 
BRANCH  93  94
HETATM   94  C   UNK N   1      35.517  13.382  14.486  0.00  0.00     0.000 C 
BRANCH  94  95
HETATM   95  C   UNK N   1      36.095  13.245  15.882  0.00  0.00    -0.000 C 
BRANCH  95  96
HETATM   96  C   UNK N   1      34.989  13.205  16.919  0.00  0.00    -0.005 C 
HETATM   97  C   UNK N   1      35.328  14.147  18.056  0.00  0.00     0.005 C 
ENDBRANCH  95  96
ENDBRANCH  94  95
ENDBRANCH  93  94
ENDBRANCH  92  93
ENDBRANCH  91  92
ENDBRANCH  90  91
ENDBRANCH  89  90
ENDBRANCH  86  89
ENDBRANCH  73  85
ENDBRANCH  70  73
ENDBRANCH  62  69
ENDBRANCH  59  62
ENDBRANCH  57  58
BRANCH  57  98
HETATM   98  C   UNK N   1      35.828  12.236   0.244  0.00  0.00     0.144 C 
BRANCH  98  99
HETATM   99  C   UNK N   1      36.150  13.518   0.961  0.00  0.00     0.141 C 
HETATM  100  O   UNK N   1      37.166  13.618   1.629  0.00  0.00    -0.650 OA
BRANCH  99 101
HETATM  101  O   UNK N   1      35.333  14.578   0.821  0.00  0.00    -0.776 OA
HETATM  102  H   UNK N   1      34.437  14.573   1.097  0.00  0.00     0.167 HD
ENDBRANCH  99 101
ENDBRANCH  98  99
ENDBRANCH  57  98
ENDBRANCH  54  57
ENDBRANCH  39  53
BRANCH   3 103
HETATM  103  C   UNK N   1      29.359  13.961   2.445  0.00  0.00     0.119 C 
BRANCH 103 104
HETATM  104  C   UNK N   1      30.089  14.249   3.706  0.00  0.00     0.164 C 
HETATM  105  O   UNK N   1      29.938  13.512   4.670  0.00  0.00    -0.292 OA
BRANCH 104 106
HETATM  106  C   UNK N   1      31.027  15.386   3.747  0.00  0.00     0.036 A 
HETATM  107  C   UNK N   1      30.587  16.598   4.306  0.00  0.00     0.017 A 
HETATM  108  C   UNK N   1      31.424  17.709   4.348  0.00  0.00     0.001 A 
HETATM  109  C   UNK N   1      32.712  17.622   3.829  0.00  0.00     0.002 A 
HETATM  110  C   UNK N   1      33.164  16.422   3.278  0.00  0.00     0.030 A 
HETATM  111  C   UNK N   1      32.337  15.304   3.228  0.00  0.00     0.039 A 
BRANCH 111 112
HETATM  112  N   UNK N   1      32.833  14.110   2.660  0.00  0.00    -0.398 N 
HETATM  113  H   UNK N   1      32.951  13.265   2.170  0.00  0.00     0.156 HD
HETATM  114  H   UNK N   1      33.740  14.160   3.041  0.00  0.00     0.156 HD
ENDBRANCH 111 112
ENDBRANCH 104 106
ENDBRANCH 103 104
ENDBRANCH   3 103
BRANCH  32 115
HETATM  115  C   UNK N   1      32.505   6.211  -1.679  0.00  0.00     0.036 C 
BRANCH 115 116
HETATM  116  C   UNK N   1      32.925   5.323  -0.510  0.00  0.00     0.021 C 
BRANCH 116 117
HETATM  117  C   UNK N   1      32.452   5.919   0.799  0.00  0.00     0.111 C 
BRANCH 117 118
HETATM  118  N   UNK N   1      33.388   6.939   1.239  0.00  0.00    -0.430 N 
HETATM  119  H   UNK N   1      33.189   7.940   1.219  0.00  0.00     0.149 HD
HETATM  120  H   UNK N   1      34.297   6.638   1.590  0.00  0.00     0.149 HD
ENDBRANCH 117 118
ENDBRANCH 116 117
ENDBRANCH 115 116
ENDBRANCH  32 115
BRANCH   8 121
HETATM  121  C   UNK N   1      26.555  16.261   5.653  0.00  0.00     0.023 C 
HETATM  122  C   UNK N   1      26.972  16.108   7.097  0.00  0.00     0.013 C 
BRANCH 121 123
HETATM  123  C   UNK N   1      27.276  17.435   4.999  0.00  0.00     0.116 C 
BRANCH 123 124
HETATM  124  C   UNK N   1      27.537  18.533   5.976  0.00  0.00     0.139 C 
HETATM  125  O   UNK N   1      26.711  19.415   6.138  0.00  0.00    -0.650 OA
BRANCH 124 126
HETATM  126  O   UNK N   1      28.665  18.527   6.710  0.00  0.00    -0.776 OA
HETATM  127  H   UNK N   1      29.591  18.634   6.606  0.00  0.00     0.167 HD
ENDBRANCH 124 126
ENDBRANCH 123 124
ENDBRANCH 121 123
ENDBRANCH   8 121
BRANCH  29 128
HETATM  128  C   UNK N   1      27.562   7.985  -1.663  0.00  0.00     0.144 C 
BRANCH 128 129
HETATM  129  C   UNK N   1      27.446   7.795  -3.142  0.00  0.00     0.141 C 
HETATM  130  O   UNK N   1      26.518   7.156  -3.609  0.00  0.00    -0.650 OA
BRANCH 129 131
HETATM  131  O   UNK N   1      28.383   8.308  -3.959  0.00  0.00    -0.776 OA
HETATM  132  H   UNK N   1      28.634   9.067  -4.447  0.00  0.00     0.167 HD
ENDBRANCH 129 131
ENDBRANCH 128 129
ENDBRANCH  29 128
BRANCH  11 133
HETATM  133  C   UNK N   1      22.755  15.298   5.628  0.00  0.00     0.199 C 
BRANCH 133 134
HETATM  134  O   UNK N   1      21.853  15.883   4.741  0.00  0.00    -0.398 OA
HETATM  135  H   UNK N   1      20.892  15.967   4.835  0.00  0.00     0.209 HD
ENDBRANCH 133 134
ENDBRANCH  11 133
BRANCH  20 136
HETATM  136  C   UNK N   1      27.115   9.290   4.183  0.00  0.00     0.144 C 
BRANCH 136 137
HETATM  137  C   UNK N   1      28.038   8.160   4.524  0.00  0.00     0.141 C 
HETATM  138  O   UNK N   1      28.141   7.197   3.782  0.00  0.00    -0.650 OA
BRANCH 137 139
HETATM  139  O   UNK N   1      28.808   8.240   5.625  0.00  0.00    -0.776 OA
HETATM  140  H   UNK N   1      29.690   8.558   5.602  0.00  0.00     0.167 HD
ENDBRANCH 137 139
ENDBRANCH 136 137
ENDBRANCH  20 136
TORSDOF 42
ENDMDL
MODEL 6
REMARK VINA RESULT:      -6.5      2.172      3.261
REMARK WARNING: 32 MAX_TORS EXCEEDED!!!
REMARK  42 active torsions:
REMARK  status: ('A' for Active; 'I' for Inactive)
REMARK    1  A    between atoms: C_5  and  C_3 
REMARK    2  A    between atoms: C_96  and  C_5 
REMARK    3  A    between atoms: C_10  and  C_7 
REMARK    4  A    between atoms: O_14  and  C_7 
REMARK    5  A    between atoms: C_12  and  C_10 
REMARK    6  A    between atoms: C_13  and  C_12 
REMARK    7  A    between atoms: C_21  and  C_18 
REMARK    8  A    between atoms: O_22  and  C_21 
REMARK    9  A    between atoms: C_32  and  O_27 
REMARK   10  A    between atoms: C_34  and  C_31 
REMARK   11  A    between atoms: C_34  and  C_32 
REMARK   12  A    between atoms: C_45  and  O_40 
REMARK   13  A    between atoms: C_47  and  C_44 
REMARK   14  A    between atoms: C_47  and  C_45 
REMARK   15  A    between atoms: C_50  and  C_48 
REMARK   16  A    between atoms: C_51  and  C_48 
REMARK   17  A    between atoms: C_53  and  C_50 
REMARK   18  A    between atoms: N_54  and  C_53 
REMARK   19  A    between atoms: C_60  and  N_64 
REMARK       I    between atoms: C_72  and  N_64 
REMARK   20  A    between atoms: C_71  and  O_66 
REMARK   21  A    between atoms: C_70  and  N_67 
REMARK       I    between atoms: C_75  and  N_67 
REMARK   22  A    between atoms: C_72  and  C_70 
REMARK   23  A    between atoms: C_73  and  C_70 
REMARK   24  A    between atoms: C_73  and  C_71 
REMARK   25  A    between atoms: C_76  and  C_74 
REMARK   26  A    between atoms: C_77  and  C_74 
REMARK   27  A    between atoms: C_77  and  C_75 
REMARK       I    between atoms: N_80  and  C_76 
REMARK   28  A    between atoms: C_77  and  N_81 
REMARK       I    between atoms: C_82  and  N_81 
REMARK   29  A    between atoms: C_84  and  C_82 
REMARK   30  A    between atoms: C_85  and  C_84 
REMARK   31  A    between atoms: C_84  and  N_86 
REMARK   32  A    between atoms: C_98  and  C_85 
REMARK       I    between atoms: C_87  and  N_86 
REMARK   33  A    between atoms: C_88  and  C_87 
REMARK   34  A    between atoms: C_108  and  C_88 
REMARK   35  A    between atoms: C_96  and  C_89 
REMARK   36  A    between atoms: N_95  and  C_90 
REMARK   37  A    between atoms: C_109  and  C_108 
REMARK   38  A    between atoms: C_110  and  C_109 
REMARK   39  A    between atoms: C_111  and  C_110 
REMARK   40  A    between atoms: C_112  and  C_111 
REMARK   41  A    between atoms: C_113  and  C_112 
REMARK   42  A    between atoms: C_114  and  C_113 
ROOT
HETATM    1  C   UNK N   1      25.655  13.608   3.212  0.00  0.00     0.282 C 
HETATM    2  O   UNK N   1      25.557  12.838   2.269  0.00  0.00    -0.263 OA
HETATM    3  C   UNK N   1      24.698  14.774   3.301  0.00  0.00     0.191 C 
HETATM    4  N   UNK N   1      23.954  14.873   2.062  0.00  0.00    -0.345 N 
HETATM    5  O   UNK N   1      26.632  13.380   4.137  0.00  0.00    -0.312 OA
HETATM    6  C   UNK N   1      22.632  15.150   1.943  0.00  0.00     0.241 C 
HETATM    7  O   UNK N   1      22.147  15.166   0.824  0.00  0.00    -0.271 OA
HETATM    8  C   UNK N   1      21.762  15.506   3.139  0.00  0.00     0.180 C 
HETATM    9  N   UNK N   1      21.181  14.400   3.869  0.00  0.00    -0.346 N 
HETATM   10  C   UNK N   1      20.347  13.456   3.365  0.00  0.00     0.243 C 
HETATM   11  C   UNK N   1      20.160  13.268   1.873  0.00  0.00     0.200 C 
HETATM   12  O   UNK N   1      19.687  12.795   4.149  0.00  0.00    -0.271 OA
HETATM   13  N   UNK N   1      20.617  12.015   1.273  0.00  0.00    -0.344 N 
HETATM   14  C   UNK N   1      20.752  10.775   1.824  0.00  0.00     0.236 C 
HETATM   15  O   UNK N   1      21.103   9.850   1.109  0.00  0.00    -0.272 OA
HETATM   16  N   UNK N   1      21.527  10.360   4.188  0.00  0.00    -0.351 N 
HETATM   17  C   UNK N   1      20.411  10.473   3.255  0.00  0.00     0.225 C 
HETATM   18  N   UNK N   1      24.862   9.089   4.548  0.00  0.00    -0.346 N 
HETATM   19  O   UNK N   1      23.244  10.270   2.741  0.00  0.00    -0.271 OA
HETATM   20  C   UNK N   1      23.825   9.991   5.019  0.00  0.00     0.186 C 
HETATM   21  C   UNK N   1      22.854  10.280   3.900  0.00  0.00     0.241 C 
HETATM   22  C   UNK N   1      25.899   9.511   3.779  0.00  0.00     0.240 C 
HETATM   23  O   UNK N   1      26.080  10.697   3.589  0.00  0.00    -0.271 OA
HETATM   24  C   UNK N   1      26.816   8.544   3.124  0.00  0.00     0.172 C 
HETATM   25  N   UNK N   1      27.469   7.731   4.110  0.00  0.00    -0.346 N 
HETATM   26  C   UNK N   1      26.067   7.680   2.127  0.00  0.00     0.042 C 
HETATM   27  N   UNK N   1      31.004   8.679   4.209  0.00  0.00    -0.346 N 
HETATM   28  O   UNK N   1      29.144   7.187   5.445  0.00  0.00    -0.271 OA
HETATM   29  C   UNK N   1      29.629   9.097   4.140  0.00  0.00     0.186 C 
HETATM   30  C   UNK N   1      28.729   7.939   4.576  0.00  0.00     0.241 C 
HETATM   31  C   UNK N   1      31.985   9.375   4.832  0.00  0.00     0.241 C 
HETATM   32  C   UNK N   1      31.771  10.779   5.382  0.00  0.00     0.176 C 
HETATM   33  N   UNK N   1      31.639  11.738   4.287  0.00  0.00    -0.346 N 
HETATM   34  O   UNK N   1      33.076   8.840   4.957  0.00  0.00    -0.271 OA
HETATM   35  C   UNK N   1      31.614  13.084   4.489  0.00  0.00     0.236 C 
HETATM   36  O   UNK N   1      31.752  13.537   5.615  0.00  0.00    -0.272 OA
HETATM   37  N   UNK N   1      30.376  14.281   2.638  0.00  0.00    -0.350 N 
HETATM   38  C   UNK N   1      31.626  14.043   3.338  0.00  0.00     0.225 C 
HETATM   39  C   UNK N   1      28.780  14.300   4.627  0.00  0.00     0.205 C 
HETATM   40  C   UNK N   1      29.138  14.528   3.156  0.00  0.00     0.243 C 
HETATM   41  O   UNK N   1      28.256  14.877   2.387  0.00  0.00    -0.271 OA
HETATM   42  C   UNK N   1      27.258  14.342   4.910  0.00  0.00     0.159 C 
HETATM   43  C   UNK N   1      26.958  14.080   6.377  0.00  0.00     0.042 C 
HETATM   44  H   UNK N   1      24.456  14.726   1.228  0.00  0.00     0.163 HD
HETATM   45  H   UNK N   1      21.412  14.326   4.823  0.00  0.00     0.163 HD
HETATM   46  H   UNK N   1      20.867  12.076   0.322  0.00  0.00     0.163 HD
HETATM   47  H   UNK N   1      21.292  10.338   5.144  0.00  0.00     0.163 HD
HETATM   48  H   UNK N   1      24.812   8.138   4.796  0.00  0.00     0.163 HD
HETATM   49  H   UNK N   1      26.967   6.967   4.475  0.00  0.00     0.163 HD
HETATM   50  H   UNK N   1      31.247   7.829   3.774  0.00  0.00     0.163 HD
HETATM   51  H   UNK N   1      31.563  11.397   3.366  0.00  0.00     0.163 HD
HETATM   52  H   UNK N   1      30.429  14.262   1.654  0.00  0.00     0.163 HD
ENDROOT
BRANCH  39  53
HETATM   53  N   UNK N   1      29.512  15.072   5.616  0.00  0.00    -0.344 N 
HETATM   54  C   UNK N   1      29.939  16.351   5.533  0.00  0.00     0.241 C 
HETATM   55  O   UNK N   1      29.663  17.058   4.576  0.00  0.00    -0.271 OA
HETATM   56  H   UNK N   1      29.724  14.601   6.455  0.00  0.00     0.163 HD
BRANCH  54  57
HETATM   57  C   UNK N   1      30.688  16.918   6.698  0.00  0.00     0.186 C 
BRANCH  57  58
HETATM   58  N   UNK N   1      31.998  16.332   6.716  0.00  0.00    -0.345 N 
HETATM   59  C   UNK N   1      33.082  17.013   7.179  0.00  0.00     0.241 C 
HETATM   60  O   UNK N   1      32.948  18.096   7.733  0.00  0.00    -0.271 OA
HETATM   61  H   UNK N   1      32.115  15.414   6.384  0.00  0.00     0.163 HD
BRANCH  59  62
HETATM   62  C   UNK N   1      34.459  16.441   6.991  0.00  0.00     0.185 C 
BRANCH  62  63
HETATM   63  C   UNK N   1      34.735  15.883   5.584  0.00  0.00     0.137 C 
BRANCH  63  64
HETATM   64  C   UNK N   1      35.665  14.713   5.518  0.00  0.00     0.217 C 
HETATM   65  O   UNK N   1      36.799  14.797   5.962  0.00  0.00    -0.274 OA
HETATM   66  N   UNK N   1      35.239  13.556   4.979  0.00  0.00    -0.370 N 
HETATM   67  H   UNK N   1      35.294  13.023   4.154  0.00  0.00     0.159 HD
HETATM   68  H   UNK N   1      34.681  13.079   5.636  0.00  0.00     0.159 HD
ENDBRANCH  63  64
ENDBRANCH  62  63
BRANCH  62  69
HETATM   69  N   UNK N   1      34.802  15.536   8.072  0.00  0.00    -0.346 N 
HETATM   70  C   UNK N   1      35.333  15.888   9.277  0.00  0.00     0.241 C 
HETATM   71  O   UNK N   1      35.472  17.060   9.587  0.00  0.00    -0.271 OA
HETATM   72  H   UNK N   1      34.637  14.577   7.920  0.00  0.00     0.163 HD
BRANCH  70  73
HETATM   73  C   UNK N   1      35.992  14.842  10.122  0.00  0.00     0.180 C 
BRANCH  73  74
HETATM   74  C   UNK N   1      35.776  15.172  11.594  0.00  0.00     0.075 C 
BRANCH  74  75
HETATM   75  C   UNK N   1      35.339  13.987  12.374  0.00  0.00    -0.028 A 
HETATM   76  C   UNK N   1      34.515  12.954  11.935  0.00  0.00     0.096 A 
HETATM   77  N   UNK N   1      34.356  12.049  12.929  0.00  0.00    -0.365 N 
HETATM   78  C   UNK N   1      35.076  12.511  13.977  0.00  0.00     0.042 A 
HETATM   79  H   UNK N   1      33.824  11.221  12.896  0.00  0.00     0.165 HD
HETATM   80  C   UNK N   1      35.684  13.688  13.660  0.00  0.00    -0.002 A 
HETATM   81  C   UNK N   1      35.218  11.914  15.221  0.00  0.00     0.030 A 
HETATM   82  C   UNK N   1      36.492  14.363  14.578  0.00  0.00     0.014 A 
HETATM   83  C   UNK N   1      36.656  13.792  15.852  0.00  0.00     0.001 A 
HETATM   84  C   UNK N   1      36.022  12.571  16.174  0.00  0.00     0.002 A 
ENDBRANCH  74  75
ENDBRANCH  73  74
BRANCH  73  85
HETATM   85  N   UNK N   1      37.382  14.552   9.812  0.00  0.00    -0.347 N 
HETATM   86  C   UNK N   1      37.927  13.330   9.576  0.00  0.00     0.218 C 
HETATM   87  O   UNK N   1      39.101  13.259   9.248  0.00  0.00    -0.274 OA
HETATM   88  H   UNK N   1      37.994  15.323   9.768  0.00  0.00     0.163 HD
BRANCH  86  89
HETATM   89  C   UNK N   1      37.140  12.063   9.724  0.00  0.00     0.103 C 
BRANCH  89  90
HETATM   90  C   UNK N   1      37.963  10.991  10.438  0.00  0.00     0.009 C 
BRANCH  90  91
HETATM   91  C   UNK N   1      37.615  10.907  11.922  0.00  0.00     0.000 C 
BRANCH  91  92
HETATM   92  C   UNK N   1      37.818   9.496  12.439  0.00  0.00     0.000 C 
BRANCH  92  93
HETATM   93  C   UNK N   1      36.585   8.657  12.163  0.00  0.00     0.000 C 
BRANCH  93  94
HETATM   94  C   UNK N   1      35.639   8.729  13.345  0.00  0.00     0.000 C 
BRANCH  94  95
HETATM   95  C   UNK N   1      36.047   7.760  14.440  0.00  0.00    -0.000 C 
BRANCH  95  96
HETATM   96  C   UNK N   1      35.983   8.429  15.799  0.00  0.00    -0.005 C 
HETATM   97  C   UNK N   1      37.354   8.959  16.166  0.00  0.00     0.005 C 
ENDBRANCH  95  96
ENDBRANCH  94  95
ENDBRANCH  93  94
ENDBRANCH  92  93
ENDBRANCH  91  92
ENDBRANCH  90  91
ENDBRANCH  89  90
ENDBRANCH  86  89
ENDBRANCH  73  85
ENDBRANCH  70  73
ENDBRANCH  62  69
ENDBRANCH  59  62
ENDBRANCH  57  58
BRANCH  57  98
HETATM   98  C   UNK N   1      29.986  16.800   8.064  0.00  0.00     0.144 C 
BRANCH  98  99
HETATM   99  C   UNK N   1      29.631  18.079   8.771  0.00  0.00     0.141 C 
HETATM  100  O   UNK N   1      28.491  18.279   9.159  0.00  0.00    -0.650 OA
BRANCH  99 101
HETATM  101  O   UNK N   1      30.593  18.986   9.021  0.00  0.00    -0.776 OA
HETATM  102  H   UNK N   1      31.220  18.888   9.710  0.00  0.00     0.167 HD
ENDBRANCH  99 101
ENDBRANCH  98  99
ENDBRANCH  57  98
ENDBRANCH  54  57
ENDBRANCH  39  53
BRANCH   3 103
HETATM  103  C   UNK N   1      25.493  16.035   3.492  0.00  0.00     0.119 C 
BRANCH 103 104
HETATM  104  C   UNK N   1      24.923  16.846   4.598  0.00  0.00     0.164 C 
HETATM  105  O   UNK N   1      23.958  16.422   5.218  0.00  0.00    -0.292 OA
BRANCH 104 106
HETATM  106  C   UNK N   1      25.571  18.120   4.960  0.00  0.00     0.036 A 
HETATM  107  C   UNK N   1      26.752  18.078   5.720  0.00  0.00     0.017 A 
HETATM  108  C   UNK N   1      27.392  19.251   6.109  0.00  0.00     0.001 A 
HETATM  109  C   UNK N   1      26.856  20.482   5.743  0.00  0.00     0.002 A 
HETATM  110  C   UNK N   1      25.688  20.538   4.982  0.00  0.00     0.030 A 
HETATM  111  C   UNK N   1      25.038  19.372   4.588  0.00  0.00     0.039 A 
BRANCH 111 112
HETATM  112  N   UNK N   1      23.857  19.473   3.820  0.00  0.00    -0.398 N 
HETATM  113  H   UNK N   1      22.932  19.441   3.484  0.00  0.00     0.156 HD
HETATM  114  H   UNK N   1      24.264  19.879   3.020  0.00  0.00     0.156 HD
ENDBRANCH 111 112
ENDBRANCH 104 106
ENDBRANCH 103 104
ENDBRANCH   3 103
BRANCH  32 115
HETATM  115  C   UNK N   1      32.926  11.169   6.329  0.00  0.00     0.036 C 
BRANCH 115 116
HETATM  116  C   UNK N   1      32.827  10.476   7.685  0.00  0.00     0.021 C 
BRANCH 116 117
HETATM  117  C   UNK N   1      33.228  11.427   8.792  0.00  0.00     0.111 C 
BRANCH 117 118
HETATM  118  N   UNK N   1      32.726  12.758   8.501  0.00  0.00    -0.430 N 
HETATM  119  H   UNK N   1      31.744  13.025   8.580  0.00  0.00     0.149 HD
HETATM  120  H   UNK N   1      33.393  13.468   8.199  0.00  0.00     0.149 HD
ENDBRANCH 117 118
ENDBRANCH 116 117
ENDBRANCH 115 116
ENDBRANCH  32 115
BRANCH   8 121
HETATM  121  C   UNK N   1      20.717  16.628   2.966  0.00  0.00     0.023 C 
HETATM  122  C   UNK N   1      19.751  16.714   4.125  0.00  0.00     0.013 C 
BRANCH 121 123
HETATM  123  C   UNK N   1      21.291  18.001   2.632  0.00  0.00     0.116 C 
BRANCH 123 124
HETATM  124  C   UNK N   1      20.335  19.094   2.975  0.00  0.00     0.139 C 
HETATM  125  O   UNK N   1      20.649  19.949   3.785  0.00  0.00    -0.650 OA
BRANCH 124 126
HETATM  126  O   UNK N   1      19.140  19.161   2.357  0.00  0.00    -0.776 OA
HETATM  127  H   UNK N   1      18.313  18.721   2.343  0.00  0.00     0.167 HD
ENDBRANCH 124 126
ENDBRANCH 123 124
ENDBRANCH 121 123
ENDBRANCH   8 121
BRANCH  29 128
HETATM  128  C   UNK N   1      29.369   9.690   2.759  0.00  0.00     0.144 C 
BRANCH 128 129
HETATM  129  C   UNK N   1      30.388   9.210   1.775  0.00  0.00     0.141 C 
HETATM  130  O   UNK N   1      30.275   8.108   1.262  0.00  0.00    -0.650 OA
BRANCH 129 131
HETATM  131  O   UNK N   1      31.446   9.983   1.474  0.00  0.00    -0.776 OA
HETATM  132  H   UNK N   1      31.710  10.842   1.210  0.00  0.00     0.167 HD
ENDBRANCH 129 131
ENDBRANCH 128 129
ENDBRANCH  29 128
BRANCH  11 133
HETATM  133  C   UNK N   1      18.770  13.623   1.367  0.00  0.00     0.199 C 
BRANCH 133 134
HETATM  134  O   UNK N   1      17.812  12.766   1.905  0.00  0.00    -0.398 OA
HETATM  135  H   UNK N   1      17.697  11.818   1.736  0.00  0.00     0.209 HD
ENDBRANCH 133 134
ENDBRANCH  11 133
BRANCH  20 136
HETATM  136  C   UNK N   1      24.405  11.196   5.789  0.00  0.00     0.144 C 
BRANCH 136 137
HETATM  137  C   UNK N   1      23.401  12.098   6.441  0.00  0.00     0.141 C 
HETATM  138  O   UNK N   1      23.132  13.183   5.956  0.00  0.00    -0.650 OA
BRANCH 137 139
HETATM  139  O   UNK N   1      22.743  11.675   7.537  0.00  0.00    -0.776 OA
HETATM  140  H   UNK N   1      21.968  11.149   7.489  0.00  0.00     0.167 HD
ENDBRANCH 137 139
ENDBRANCH 136 137
ENDBRANCH  20 136
TORSDOF 42
ENDMDL
MODEL 7
REMARK VINA RESULT:      -6.5      1.718      2.603
REMARK WARNING: 32 MAX_TORS EXCEEDED!!!
REMARK  42 active torsions:
REMARK  status: ('A' for Active; 'I' for Inactive)
REMARK    1  A    between atoms: C_5  and  C_3 
REMARK    2  A    between atoms: C_96  and  C_5 
REMARK    3  A    between atoms: C_10  and  C_7 
REMARK    4  A    between atoms: O_14  and  C_7 
REMARK    5  A    between atoms: C_12  and  C_10 
REMARK    6  A    between atoms: C_13  and  C_12 
REMARK    7  A    between atoms: C_21  and  C_18 
REMARK    8  A    between atoms: O_22  and  C_21 
REMARK    9  A    between atoms: C_32  and  O_27 
REMARK   10  A    between atoms: C_34  and  C_31 
REMARK   11  A    between atoms: C_34  and  C_32 
REMARK   12  A    between atoms: C_45  and  O_40 
REMARK   13  A    between atoms: C_47  and  C_44 
REMARK   14  A    between atoms: C_47  and  C_45 
REMARK   15  A    between atoms: C_50  and  C_48 
REMARK   16  A    between atoms: C_51  and  C_48 
REMARK   17  A    between atoms: C_53  and  C_50 
REMARK   18  A    between atoms: N_54  and  C_53 
REMARK   19  A    between atoms: C_60  and  N_64 
REMARK       I    between atoms: C_72  and  N_64 
REMARK   20  A    between atoms: C_71  and  O_66 
REMARK   21  A    between atoms: C_70  and  N_67 
REMARK       I    between atoms: C_75  and  N_67 
REMARK   22  A    between atoms: C_72  and  C_70 
REMARK   23  A    between atoms: C_73  and  C_70 
REMARK   24  A    between atoms: C_73  and  C_71 
REMARK   25  A    between atoms: C_76  and  C_74 
REMARK   26  A    between atoms: C_77  and  C_74 
REMARK   27  A    between atoms: C_77  and  C_75 
REMARK       I    between atoms: N_80  and  C_76 
REMARK   28  A    between atoms: C_77  and  N_81 
REMARK       I    between atoms: C_82  and  N_81 
REMARK   29  A    between atoms: C_84  and  C_82 
REMARK   30  A    between atoms: C_85  and  C_84 
REMARK   31  A    between atoms: C_84  and  N_86 
REMARK   32  A    between atoms: C_98  and  C_85 
REMARK       I    between atoms: C_87  and  N_86 
REMARK   33  A    between atoms: C_88  and  C_87 
REMARK   34  A    between atoms: C_108  and  C_88 
REMARK   35  A    between atoms: C_96  and  C_89 
REMARK   36  A    between atoms: N_95  and  C_90 
REMARK   37  A    between atoms: C_109  and  C_108 
REMARK   38  A    between atoms: C_110  and  C_109 
REMARK   39  A    between atoms: C_111  and  C_110 
REMARK   40  A    between atoms: C_112  and  C_111 
REMARK   41  A    between atoms: C_113  and  C_112 
REMARK   42  A    between atoms: C_114  and  C_113 
ROOT
HETATM    1  C   UNK N   1      25.456  13.255   3.162  0.00  0.00     0.282 C 
HETATM    2  O   UNK N   1      24.754  12.586   2.420  0.00  0.00    -0.263 OA
HETATM    3  C   UNK N   1      24.977  14.628   3.574  0.00  0.00     0.191 C 
HETATM    4  N   UNK N   1      23.814  14.981   2.785  0.00  0.00    -0.345 N 
HETATM    5  O   UNK N   1      26.646  12.731   3.578  0.00  0.00    -0.312 OA
HETATM    6  C   UNK N   1      22.699  15.604   3.239  0.00  0.00     0.241 C 
HETATM    7  O   UNK N   1      21.791  15.803   2.449  0.00  0.00    -0.271 OA
HETATM    8  C   UNK N   1      22.575  16.120   4.665  0.00  0.00     0.180 C 
HETATM    9  N   UNK N   1      22.114  15.173   5.658  0.00  0.00    -0.346 N 
HETATM   10  C   UNK N   1      20.930  14.510   5.645  0.00  0.00     0.243 C 
HETATM   11  C   UNK N   1      20.059  14.452   4.406  0.00  0.00     0.200 C 
HETATM   12  O   UNK N   1      20.541  14.010   6.687  0.00  0.00    -0.271 OA
HETATM   13  N   UNK N   1      19.861  13.153   3.763  0.00  0.00    -0.344 N 
HETATM   14  C   UNK N   1      19.900  11.896   4.291  0.00  0.00     0.236 C 
HETATM   15  O   UNK N   1      19.644  10.948   3.567  0.00  0.00    -0.272 OA
HETATM   16  N   UNK N   1      21.507  11.176   6.097  0.00  0.00    -0.351 N 
HETATM   17  C   UNK N   1      20.164  11.626   5.744  0.00  0.00     0.225 C 
HETATM   18  N   UNK N   1      24.198   9.049   5.049  0.00  0.00    -0.346 N 
HETATM   19  O   UNK N   1      22.314  10.703   4.054  0.00  0.00    -0.271 OA
HETATM   20  C   UNK N   1      23.750  10.170   5.858  0.00  0.00     0.186 C 
HETATM   21  C   UNK N   1      22.496  10.761   5.261  0.00  0.00     0.241 C 
HETATM   22  C   UNK N   1      24.856   9.218   3.872  0.00  0.00     0.240 C 
HETATM   23  O   UNK N   1      25.235  10.321   3.533  0.00  0.00    -0.271 OA
HETATM   24  C   UNK N   1      25.102   8.075   2.956  0.00  0.00     0.172 C 
HETATM   25  N   UNK N   1      25.889   7.071   3.613  0.00  0.00    -0.346 N 
HETATM   26  C   UNK N   1      23.793   7.491   2.459  0.00  0.00     0.042 C 
HETATM   27  N   UNK N   1      29.211   7.040   2.075  0.00  0.00    -0.346 N 
HETATM   28  O   UNK N   1      27.777   6.038   4.112  0.00  0.00    -0.271 OA
HETATM   29  C   UNK N   1      28.109   7.812   2.586  0.00  0.00     0.186 C 
HETATM   30  C   UNK N   1      27.231   6.914   3.460  0.00  0.00     0.241 C 
HETATM   31  C   UNK N   1      30.509   7.420   2.149  0.00  0.00     0.241 C 
HETATM   32  C   UNK N   1      30.934   8.802   2.628  0.00  0.00     0.176 C 
HETATM   33  N   UNK N   1      30.583   9.814   1.634  0.00  0.00    -0.346 N 
HETATM   34  O   UNK N   1      31.363   6.610   1.821  0.00  0.00    -0.271 OA
HETATM   35  C   UNK N   1      31.000  11.107   1.724  0.00  0.00     0.236 C 
HETATM   36  O   UNK N   1      31.735  11.451   2.636  0.00  0.00    -0.272 OA
HETATM   37  N   UNK N   1      29.427  12.679   0.521  0.00  0.00    -0.350 N 
HETATM   38  C   UNK N   1      30.748  12.083   0.616  0.00  0.00     0.225 C 
HETATM   39  C   UNK N   1      28.945  13.023   3.001  0.00  0.00     0.205 C 
HETATM   40  C   UNK N   1      28.658  13.220   1.511  0.00  0.00     0.243 C 
HETATM   41  O   UNK N   1      27.651  13.827   1.183  0.00  0.00    -0.271 OA
HETATM   42  C   UNK N   1      27.774  13.454   3.921  0.00  0.00     0.159 C 
HETATM   43  C   UNK N   1      28.101  13.209   5.385  0.00  0.00     0.042 C 
HETATM   44  H   UNK N   1      23.837  14.747   1.829  0.00  0.00     0.163 HD
HETATM   45  H   UNK N   1      22.716  14.993   6.416  0.00  0.00     0.163 HD
HETATM   46  H   UNK N   1      19.670  13.192   2.798  0.00  0.00     0.163 HD
HETATM   47  H   UNK N   1      21.723  11.170   7.058  0.00  0.00     0.163 HD
HETATM   48  H   UNK N   1      24.019   8.134   5.365  0.00  0.00     0.163 HD
HETATM   49  H   UNK N   1      25.422   6.450   4.218  0.00  0.00     0.163 HD
HETATM   50  H   UNK N   1      29.007   6.179   1.643  0.00  0.00     0.163 HD
HETATM   51  H   UNK N   1      30.022   9.551   0.869  0.00  0.00     0.163 HD
HETATM   52  H   UNK N   1      29.031  12.695  -0.381  0.00  0.00     0.163 HD
ENDROOT
BRANCH  39  53
HETATM   53  N   UNK N   1      30.211  13.524   3.506  0.00  0.00    -0.344 N 
HETATM   54  C   UNK N   1      30.645  14.802   3.562  0.00  0.00     0.241 C 
HETATM   55  O   UNK N   1      29.928  15.737   3.239  0.00  0.00    -0.271 OA
HETATM   56  H   UNK N   1      30.833  12.843   3.852  0.00  0.00     0.163 HD
BRANCH  54  57
HETATM   57  C   UNK N   1      32.008  15.056   4.124  0.00  0.00     0.186 C 
BRANCH  57  58
HETATM   58  N   UNK N   1      31.893  15.149   5.552  0.00  0.00    -0.345 N 
HETATM   59  C   UNK N   1      32.941  14.873   6.376  0.00  0.00     0.241 C 
HETATM   60  O   UNK N   1      34.058  14.678   5.919  0.00  0.00    -0.271 OA
HETATM   61  H   UNK N   1      31.032  15.420   5.945  0.00  0.00     0.163 HD
BRANCH  59  62
HETATM   62  C   UNK N   1      32.720  14.784   7.860  0.00  0.00     0.185 C 
BRANCH  62  63
HETATM   63  C   UNK N   1      32.496  16.137   8.557  0.00  0.00     0.137 C 
BRANCH  63  64
HETATM   64  C   UNK N   1      31.088  16.640   8.571  0.00  0.00     0.217 C 
HETATM   65  O   UNK N   1      30.526  16.937   7.529  0.00  0.00    -0.274 OA
HETATM   66  N   UNK N   1      30.432  16.746   9.742  0.00  0.00    -0.370 N 
HETATM   67  H   UNK N   1      30.157  17.411  10.414  0.00  0.00     0.159 HD
HETATM   68  H   UNK N   1      30.121  15.855  10.021  0.00  0.00     0.159 HD
ENDBRANCH  63  64
ENDBRANCH  62  63
BRANCH  62  69
HETATM   69  N   UNK N   1      33.723  13.946   8.490  0.00  0.00    -0.346 N 
HETATM   70  C   UNK N   1      33.621  12.606   8.720  0.00  0.00     0.241 C 
HETATM   71  O   UNK N   1      32.671  11.964   8.301  0.00  0.00    -0.271 OA
HETATM   72  H   UNK N   1      34.555  14.385   8.779  0.00  0.00     0.163 HD
BRANCH  70  73
HETATM   73  C   UNK N   1      34.538  11.960   9.711  0.00  0.00     0.180 C 
BRANCH  73  74
HETATM   74  C   UNK N   1      35.670  12.923  10.053  0.00  0.00     0.075 C 
BRANCH  74  75
HETATM   75  C   UNK N   1      35.822  13.108  11.518  0.00  0.00    -0.028 A 
HETATM   76  C   UNK N   1      35.280  14.129  12.293  0.00  0.00     0.096 A 
HETATM   77  N   UNK N   1      35.630  13.947  13.589  0.00  0.00    -0.365 N 
HETATM   78  C   UNK N   1      36.381  12.823  13.622  0.00  0.00     0.042 A 
HETATM   79  H   UNK N   1      35.387  14.519  14.353  0.00  0.00     0.165 HD
HETATM   80  C   UNK N   1      36.509  12.295  12.372  0.00  0.00    -0.002 A 
HETATM   81  C   UNK N   1      36.962  12.239  14.738  0.00  0.00     0.030 A 
HETATM   82  C   UNK N   1      37.237  11.124  12.145  0.00  0.00     0.014 A 
HETATM   83  C   UNK N   1      37.844  10.506  13.251  0.00  0.00     0.001 A 
HETATM   84  C   UNK N   1      37.709  11.059  14.543  0.00  0.00     0.002 A 
ENDBRANCH  74  75
ENDBRANCH  73  74
BRANCH  73  85
HETATM   85  N   UNK N   1      35.020  10.633   9.366  0.00  0.00    -0.347 N 
HETATM   86  C   UNK N   1      34.468   9.446   9.731  0.00  0.00     0.218 C 
HETATM   87  O   UNK N   1      34.946   8.412   9.292  0.00  0.00    -0.274 OA
HETATM   88  H   UNK N   1      35.831  10.589   8.810  0.00  0.00     0.163 HD
BRANCH  86  89
HETATM   89  C   UNK N   1      33.303   9.362  10.670  0.00  0.00     0.103 C 
BRANCH  89  90
HETATM   90  C   UNK N   1      32.489   8.094  10.417  0.00  0.00     0.009 C 
BRANCH  90  91
HETATM   91  C   UNK N   1      31.386   8.327   9.387  0.00  0.00     0.000 C 
BRANCH  91  92
HETATM   92  C   UNK N   1      30.574   7.063   9.178  0.00  0.00     0.000 C 
BRANCH  92  93
HETATM   93  C   UNK N   1      29.511   6.944  10.253  0.00  0.00     0.000 C 
BRANCH  93  94
HETATM   94  C   UNK N   1      29.268   5.482  10.574  0.00  0.00     0.000 C 
BRANCH  94  95
HETATM   95  C   UNK N   1      30.143   5.016  11.723  0.00  0.00    -0.000 C 
BRANCH  95  96
HETATM   96  C   UNK N   1      29.342   4.932  13.008  0.00  0.00    -0.005 C 
HETATM   97  C   UNK N   1      28.272   3.867  12.867  0.00  0.00     0.005 C 
ENDBRANCH  95  96
ENDBRANCH  94  95
ENDBRANCH  93  94
ENDBRANCH  92  93
ENDBRANCH  91  92
ENDBRANCH  90  91
ENDBRANCH  89  90
ENDBRANCH  86  89
ENDBRANCH  73  85
ENDBRANCH  70  73
ENDBRANCH  62  69
ENDBRANCH  59  62
ENDBRANCH  57  58
BRANCH  57  98
HETATM   98  C   UNK N   1      32.761  16.260   3.528  0.00  0.00     0.144 C 
BRANCH  98  99
HETATM   99  C   UNK N   1      32.551  17.599   4.180  0.00  0.00     0.141 C 
HETATM  100  O   UNK N   1      33.392  18.063   4.934  0.00  0.00    -0.650 OA
BRANCH  99 101
HETATM  101  O   UNK N   1      31.448  18.312   3.887  0.00  0.00    -0.776 OA
HETATM  102  H   UNK N   1      30.689  18.328   4.436  0.00  0.00     0.167 HD
ENDBRANCH  99 101
ENDBRANCH  98  99
ENDBRANCH  57  98
ENDBRANCH  54  57
ENDBRANCH  39  53
BRANCH   3 103
HETATM  103  C   UNK N   1      26.070  15.622   3.300  0.00  0.00     0.119 C 
BRANCH 103 104
HETATM  104  C   UNK N   1      26.238  16.541   4.454  0.00  0.00     0.164 C 
HETATM  105  O   UNK N   1      26.151  16.099   5.591  0.00  0.00    -0.292 OA
BRANCH 104 106
HETATM  106  C   UNK N   1      26.563  17.956   4.201  0.00  0.00     0.036 A 
HETATM  107  C   UNK N   1      25.628  18.746   3.512  0.00  0.00     0.017 A 
HETATM  108  C   UNK N   1      25.895  20.082   3.227  0.00  0.00     0.001 A 
HETATM  109  C   UNK N   1      27.104  20.644   3.627  0.00  0.00     0.002 A 
HETATM  110  C   UNK N   1      28.039  19.872   4.319  0.00  0.00     0.030 A 
HETATM  111  C   UNK N   1      27.784  18.535   4.609  0.00  0.00     0.039 A 
BRANCH 111 112
HETATM  112  N   UNK N   1      28.757  17.790   5.310  0.00  0.00    -0.398 N 
HETATM  113  H   UNK N   1      29.591  17.391   5.649  0.00  0.00     0.156 HD
HETATM  114  H   UNK N   1      28.139  17.307   5.905  0.00  0.00     0.156 HD
ENDBRANCH 111 112
ENDBRANCH 104 106
ENDBRANCH 103 104
ENDBRANCH   3 103
BRANCH  32 115
HETATM  115  C   UNK N   1      32.446   8.825   2.938  0.00  0.00     0.036 C 
BRANCH 115 116
HETATM  116  C   UNK N   1      32.735   8.736   4.435  0.00  0.00     0.021 C 
BRANCH 116 117
HETATM  117  C   UNK N   1      31.550   9.243   5.229  0.00  0.00     0.111 C 
BRANCH 117 118
HETATM  118  N   UNK N   1      31.807  10.600   5.680  0.00  0.00    -0.430 N 
HETATM  119  H   UNK N   1      32.215  10.830   6.586  0.00  0.00     0.149 HD
HETATM  120  H   UNK N   1      31.565  11.367   5.054  0.00  0.00     0.149 HD
ENDBRANCH 117 118
ENDBRANCH 116 117
ENDBRANCH 115 116
ENDBRANCH  32 115
BRANCH   8 121
HETATM  121  C   UNK N   1      21.892  17.485   4.885  0.00  0.00     0.023 C 
HETATM  122  C   UNK N   1      21.890  17.914   6.334  0.00  0.00     0.013 C 
BRANCH 121 123
HETATM  123  C   UNK N   1      22.392  18.611   3.984  0.00  0.00     0.116 C 
BRANCH 123 124
HETATM  124  C   UNK N   1      21.264  19.302   3.293  0.00  0.00     0.139 C 
HETATM  125  O   UNK N   1      20.821  20.346   3.741  0.00  0.00    -0.650 OA
BRANCH 124 126
HETATM  126  O   UNK N   1      20.763  18.795   2.151  0.00  0.00    -0.776 OA
HETATM  127  H   UNK N   1      20.342  18.021   1.832  0.00  0.00     0.167 HD
ENDBRANCH 124 126
ENDBRANCH 123 124
ENDBRANCH 121 123
ENDBRANCH   8 121
BRANCH  29 128
HETATM  128  C   UNK N   1      27.427   8.519   1.421  0.00  0.00     0.144 C 
BRANCH 128 129
HETATM  129  C   UNK N   1      27.819   7.895   0.119  0.00  0.00     0.141 C 
HETATM  130  O   UNK N   1      27.299   6.852  -0.243  0.00  0.00    -0.650 OA
BRANCH 129 131
HETATM  131  O   UNK N   1      28.766   8.470  -0.643  0.00  0.00    -0.776 OA
HETATM  132  H   UNK N   1      29.193   9.280  -0.844  0.00  0.00     0.167 HD
ENDBRANCH 129 131
ENDBRANCH 128 129
ENDBRANCH  29 128
BRANCH  11 133
HETATM  133  C   UNK N   1      18.735  15.187   4.538  0.00  0.00     0.199 C 
BRANCH 133 134
HETATM  134  O   UNK N   1      18.862  16.515   4.134  0.00  0.00    -0.398 OA
HETATM  135  H   UNK N   1      18.393  16.968   3.416  0.00  0.00     0.209 HD
ENDBRANCH 133 134
ENDBRANCH  11 133
BRANCH  20 136
HETATM  136  C   UNK N   1      24.902  11.139   6.200  0.00  0.00     0.144 C 
BRANCH 136 137
HETATM  137  C   UNK N   1      24.534  12.312   7.057  0.00  0.00     0.141 C 
HETATM  138  O   UNK N   1      24.736  13.451   6.671  0.00  0.00    -0.650 OA
BRANCH 137 139
HETATM  139  O   UNK N   1      23.913  12.106   8.233  0.00  0.00    -0.776 OA
HETATM  140  H   UNK N   1      23.613  12.809   8.776  0.00  0.00     0.167 HD
ENDBRANCH 137 139
ENDBRANCH 136 137
ENDBRANCH  20 136
TORSDOF 42
ENDMDL
MODEL 8
REMARK VINA RESULT:      -6.5      1.489      2.561
REMARK WARNING: 32 MAX_TORS EXCEEDED!!!
REMARK  42 active torsions:
REMARK  status: ('A' for Active; 'I' for Inactive)
REMARK    1  A    between atoms: C_5  and  C_3 
REMARK    2  A    between atoms: C_96  and  C_5 
REMARK    3  A    between atoms: C_10  and  C_7 
REMARK    4  A    between atoms: O_14  and  C_7 
REMARK    5  A    between atoms: C_12  and  C_10 
REMARK    6  A    between atoms: C_13  and  C_12 
REMARK    7  A    between atoms: C_21  and  C_18 
REMARK    8  A    between atoms: O_22  and  C_21 
REMARK    9  A    between atoms: C_32  and  O_27 
REMARK   10  A    between atoms: C_34  and  C_31 
REMARK   11  A    between atoms: C_34  and  C_32 
REMARK   12  A    between atoms: C_45  and  O_40 
REMARK   13  A    between atoms: C_47  and  C_44 
REMARK   14  A    between atoms: C_47  and  C_45 
REMARK   15  A    between atoms: C_50  and  C_48 
REMARK   16  A    between atoms: C_51  and  C_48 
REMARK   17  A    between atoms: C_53  and  C_50 
REMARK   18  A    between atoms: N_54  and  C_53 
REMARK   19  A    between atoms: C_60  and  N_64 
REMARK       I    between atoms: C_72  and  N_64 
REMARK   20  A    between atoms: C_71  and  O_66 
REMARK   21  A    between atoms: C_70  and  N_67 
REMARK       I    between atoms: C_75  and  N_67 
REMARK   22  A    between atoms: C_72  and  C_70 
REMARK   23  A    between atoms: C_73  and  C_70 
REMARK   24  A    between atoms: C_73  and  C_71 
REMARK   25  A    between atoms: C_76  and  C_74 
REMARK   26  A    between atoms: C_77  and  C_74 
REMARK   27  A    between atoms: C_77  and  C_75 
REMARK       I    between atoms: N_80  and  C_76 
REMARK   28  A    between atoms: C_77  and  N_81 
REMARK       I    between atoms: C_82  and  N_81 
REMARK   29  A    between atoms: C_84  and  C_82 
REMARK   30  A    between atoms: C_85  and  C_84 
REMARK   31  A    between atoms: C_84  and  N_86 
REMARK   32  A    between atoms: C_98  and  C_85 
REMARK       I    between atoms: C_87  and  N_86 
REMARK   33  A    between atoms: C_88  and  C_87 
REMARK   34  A    between atoms: C_108  and  C_88 
REMARK   35  A    between atoms: C_96  and  C_89 
REMARK   36  A    between atoms: N_95  and  C_90 
REMARK   37  A    between atoms: C_109  and  C_108 
REMARK   38  A    between atoms: C_110  and  C_109 
REMARK   39  A    between atoms: C_111  and  C_110 
REMARK   40  A    between atoms: C_112  and  C_111 
REMARK   41  A    between atoms: C_113  and  C_112 
REMARK   42  A    between atoms: C_114  and  C_113 
ROOT
HETATM    1  C   UNK N   1      25.429  13.268   3.108  0.00  0.00     0.282 C 
HETATM    2  O   UNK N   1      24.725  12.619   2.350  0.00  0.00    -0.263 OA
HETATM    3  C   UNK N   1      24.961  14.637   3.543  0.00  0.00     0.191 C 
HETATM    4  N   UNK N   1      23.806  15.016   2.755  0.00  0.00    -0.345 N 
HETATM    5  O   UNK N   1      26.612  12.724   3.519  0.00  0.00    -0.312 OA
HETATM    6  C   UNK N   1      22.695  15.642   3.215  0.00  0.00     0.241 C 
HETATM    7  O   UNK N   1      21.793  15.865   2.425  0.00  0.00    -0.271 OA
HETATM    8  C   UNK N   1      22.569  16.133   4.650  0.00  0.00     0.180 C 
HETATM    9  N   UNK N   1      22.094  15.172   5.623  0.00  0.00    -0.346 N 
HETATM   10  C   UNK N   1      20.904  14.521   5.592  0.00  0.00     0.243 C 
HETATM   11  C   UNK N   1      20.038  14.494   4.348  0.00  0.00     0.200 C 
HETATM   12  O   UNK N   1      20.504  14.006   6.622  0.00  0.00    -0.271 OA
HETATM   13  N   UNK N   1      19.830  13.210   3.680  0.00  0.00    -0.344 N 
HETATM   14  C   UNK N   1      19.855  11.943   4.185  0.00  0.00     0.236 C 
HETATM   15  O   UNK N   1      19.593  11.011   3.442  0.00  0.00    -0.272 OA
HETATM   16  N   UNK N   1      21.445  11.174   5.985  0.00  0.00    -0.351 N 
HETATM   17  C   UNK N   1      20.109  11.644   5.634  0.00  0.00     0.225 C 
HETATM   18  N   UNK N   1      24.121   9.041   4.911  0.00  0.00    -0.346 N 
HETATM   19  O   UNK N   1      22.258  10.731   3.938  0.00  0.00    -0.271 OA
HETATM   20  C   UNK N   1      23.680  10.150   5.738  0.00  0.00     0.186 C 
HETATM   21  C   UNK N   1      22.435  10.764   5.147  0.00  0.00     0.241 C 
HETATM   22  C   UNK N   1      24.787   9.225   3.741  0.00  0.00     0.240 C 
HETATM   23  O   UNK N   1      25.178  10.330   3.424  0.00  0.00    -0.271 OA
HETATM   24  C   UNK N   1      25.026   8.096   2.805  0.00  0.00     0.172 C 
HETATM   25  N   UNK N   1      25.799   7.072   3.447  0.00  0.00    -0.346 N 
HETATM   26  C   UNK N   1      23.714   7.534   2.291  0.00  0.00     0.042 C 
HETATM   27  N   UNK N   1      29.129   7.038   1.925  0.00  0.00    -0.346 N 
HETATM   28  O   UNK N   1      27.676   6.012   3.936  0.00  0.00    -0.271 OA
HETATM   29  C   UNK N   1      28.033   7.810   2.444  0.00  0.00     0.186 C 
HETATM   30  C   UNK N   1      27.141   6.905   3.298  0.00  0.00     0.241 C 
HETATM   31  C   UNK N   1      30.431   7.403   2.012  0.00  0.00     0.241 C 
HETATM   32  C   UNK N   1      30.866   8.771   2.518  0.00  0.00     0.176 C 
HETATM   33  N   UNK N   1      30.530   9.805   1.541  0.00  0.00    -0.346 N 
HETATM   34  O   UNK N   1      31.278   6.591   1.673  0.00  0.00    -0.271 OA
HETATM   35  C   UNK N   1      30.959  11.092   1.657  0.00  0.00     0.236 C 
HETATM   36  O   UNK N   1      31.693  11.412   2.579  0.00  0.00    -0.272 OA
HETATM   37  N   UNK N   1      29.407  12.701   0.476  0.00  0.00    -0.350 N 
HETATM   38  C   UNK N   1      30.723  12.091   0.566  0.00  0.00     0.225 C 
HETATM   39  C   UNK N   1      28.916  13.005   2.960  0.00  0.00     0.205 C 
HETATM   40  C   UNK N   1      28.639  13.231   1.472  0.00  0.00     0.243 C 
HETATM   41  O   UNK N   1      27.639  13.855   1.151  0.00  0.00    -0.271 OA
HETATM   42  C   UNK N   1      27.746  13.430   3.881  0.00  0.00     0.159 C 
HETATM   43  C   UNK N   1      28.062  13.155   5.343  0.00  0.00     0.042 C 
HETATM   44  H   UNK N   1      23.831  14.800   1.795  0.00  0.00     0.163 HD
HETATM   45  H   UNK N   1      22.691  14.973   6.380  0.00  0.00     0.163 HD
HETATM   46  H   UNK N   1      19.644  13.269   2.715  0.00  0.00     0.163 HD
HETATM   47  H   UNK N   1      21.657  11.148   6.947  0.00  0.00     0.163 HD
HETATM   48  H   UNK N   1      23.931   8.121   5.209  0.00  0.00     0.163 HD
HETATM   49  H   UNK N   1      25.324   6.445   4.039  0.00  0.00     0.163 HD
HETATM   50  H   UNK N   1      28.919   6.186   1.476  0.00  0.00     0.163 HD
HETATM   51  H   UNK N   1      29.970   9.562   0.769  0.00  0.00     0.163 HD
HETATM   52  H   UNK N   1      29.016  12.738  -0.428  0.00  0.00     0.163 HD
ENDROOT
BRANCH  39  53
HETATM   53  N   UNK N   1      30.185  13.483   3.480  0.00  0.00    -0.344 N 
HETATM   54  C   UNK N   1      30.645  14.752   3.530  0.00  0.00     0.241 C 
HETATM   55  O   UNK N   1      29.954  15.699   3.186  0.00  0.00    -0.271 OA
HETATM   56  H   UNK N   1      30.787  12.793   3.842  0.00  0.00     0.163 HD
BRANCH  54  57
HETATM   57  C   UNK N   1      32.004  14.984   4.112  0.00  0.00     0.186 C 
BRANCH  57  58
HETATM   58  N   UNK N   1      31.870  15.083   5.537  0.00  0.00    -0.345 N 
HETATM   59  C   UNK N   1      32.833  14.623   6.383  0.00  0.00     0.241 C 
HETATM   60  O   UNK N   1      33.912  14.243   5.950  0.00  0.00    -0.271 OA
HETATM   61  H   UNK N   1      31.059  15.496   5.913  0.00  0.00     0.163 HD
BRANCH  59  62
HETATM   62  C   UNK N   1      32.562  14.563   7.860  0.00  0.00     0.185 C 
BRANCH  62  63
HETATM   63  C   UNK N   1      31.577  15.625   8.376  0.00  0.00     0.137 C 
BRANCH  63  64
HETATM   64  C   UNK N   1      32.136  17.001   8.556  0.00  0.00     0.217 C 
HETATM   65  O   UNK N   1      33.307  17.232   8.303  0.00  0.00    -0.274 OA
HETATM   66  N   UNK N   1      31.333  17.993   8.984  0.00  0.00    -0.370 N 
HETATM   67  H   UNK N   1      31.108  18.509   9.791  0.00  0.00     0.159 HD
HETATM   68  H   UNK N   1      30.783  18.311   8.232  0.00  0.00     0.159 HD
ENDBRANCH  63  64
ENDBRANCH  62  63
BRANCH  62  69
HETATM   69  N   UNK N   1      33.798  14.476   8.616  0.00  0.00    -0.346 N 
HETATM   70  C   UNK N   1      34.225  13.399   9.335  0.00  0.00     0.241 C 
HETATM   71  O   UNK N   1      33.616  12.342   9.312  0.00  0.00    -0.271 OA
HETATM   72  H   UNK N   1      34.381  15.268   8.609  0.00  0.00     0.163 HD
BRANCH  70  73
HETATM   73  C   UNK N   1      35.297  13.584  10.364  0.00  0.00     0.180 C 
BRANCH  73  74
HETATM   74  C   UNK N   1      34.674  14.101  11.655  0.00  0.00     0.075 C 
BRANCH  74  75
HETATM   75  C   UNK N   1      35.409  13.631  12.857  0.00  0.00    -0.028 A 
HETATM   76  C   UNK N   1      36.468  14.271  13.493  0.00  0.00     0.096 A 
HETATM   77  N   UNK N   1      36.863  13.538  14.561  0.00  0.00    -0.365 N 
HETATM   78  C   UNK N   1      36.056  12.453  14.592  0.00  0.00     0.042 A 
HETATM   79  H   UNK N   1      37.591  13.752  15.189  0.00  0.00     0.165 HD
HETATM   80  C   UNK N   1      35.162  12.490  13.565  0.00  0.00    -0.002 A 
HETATM   81  C   UNK N   1      36.083  11.418  15.515  0.00  0.00     0.030 A 
HETATM   82  C   UNK N   1      34.214  11.481  13.385  0.00  0.00     0.014 A 
HETATM   83  C   UNK N   1      34.213  10.412  14.298  0.00  0.00     0.001 A 
HETATM   84  C   UNK N   1      35.144  10.379  15.360  0.00  0.00     0.002 A 
ENDBRANCH  74  75
ENDBRANCH  73  74
BRANCH  73  85
HETATM   85  N   UNK N   1      36.452  14.365   9.950  0.00  0.00    -0.347 N 
HETATM   86  C   UNK N   1      37.750  13.962   9.951  0.00  0.00     0.218 C 
HETATM   87  O   UNK N   1      38.601  14.709   9.495  0.00  0.00    -0.274 OA
HETATM   88  H   UNK N   1      36.275  15.280   9.635  0.00  0.00     0.163 HD
BRANCH  86  89
HETATM   89  C   UNK N   1      38.175  12.639  10.512  0.00  0.00     0.103 C 
BRANCH  89  90
HETATM   90  C   UNK N   1      38.195  11.567   9.424  0.00  0.00     0.009 C 
BRANCH  90  91
HETATM   91  C   UNK N   1      39.621  11.164   9.053  0.00  0.00     0.000 C 
BRANCH  91  92
HETATM   92  C   UNK N   1      39.871   9.708   9.395  0.00  0.00     0.000 C 
BRANCH  92  93
HETATM   93  C   UNK N   1      38.558   8.952   9.444  0.00  0.00     0.000 C 
BRANCH  93  94
HETATM   94  C   UNK N   1      38.537   8.037  10.653  0.00  0.00     0.000 C 
BRANCH  94  95
HETATM   95  C   UNK N   1      38.521   8.830  11.946  0.00  0.00    -0.000 C 
BRANCH  95  96
HETATM   96  C   UNK N   1      37.125   9.342  12.244  0.00  0.00    -0.005 C 
HETATM   97  C   UNK N   1      36.138   8.195  12.160  0.00  0.00     0.005 C 
ENDBRANCH  95  96
ENDBRANCH  94  95
ENDBRANCH  93  94
ENDBRANCH  92  93
ENDBRANCH  91  92
ENDBRANCH  90  91
ENDBRANCH  89  90
ENDBRANCH  86  89
ENDBRANCH  73  85
ENDBRANCH  70  73
ENDBRANCH  62  69
ENDBRANCH  59  62
ENDBRANCH  57  58
BRANCH  57  98
HETATM   98  C   UNK N   1      32.788  16.172   3.523  0.00  0.00     0.144 C 
BRANCH  98  99
HETATM   99  C   UNK N   1      32.615  17.511   4.185  0.00  0.00     0.141 C 
HETATM  100  O   UNK N   1      33.456  17.934   4.962  0.00  0.00    -0.650 OA
BRANCH  99 101
HETATM  101  O   UNK N   1      31.546  18.269   3.876  0.00  0.00    -0.776 OA
HETATM  102  H   UNK N   1      31.249  18.976   4.414  0.00  0.00     0.167 HD
ENDBRANCH  99 101
ENDBRANCH  98  99
ENDBRANCH  57  98
ENDBRANCH  54  57
ENDBRANCH  39  53
BRANCH   3 103
HETATM  103  C   UNK N   1      26.066  15.625   3.292  0.00  0.00     0.119 C 
BRANCH 103 104
HETATM  104  C   UNK N   1      26.251  16.508   4.472  0.00  0.00     0.164 C 
HETATM  105  O   UNK N   1      26.154  16.036   5.596  0.00  0.00    -0.292 OA
BRANCH 104 106
HETATM  106  C   UNK N   1      26.605  17.923   4.260  0.00  0.00     0.036 A 
HETATM  107  C   UNK N   1      25.679  18.756   3.611  0.00  0.00     0.017 A 
HETATM  108  C   UNK N   1      25.972  20.094   3.365  0.00  0.00     0.001 A 
HETATM  109  C   UNK N   1      27.199  20.615   3.764  0.00  0.00     0.002 A 
HETATM  110  C   UNK N   1      28.126  19.800   4.417  0.00  0.00     0.030 A 
HETATM  111  C   UNK N   1      27.845  18.460   4.668  0.00  0.00     0.039 A 
BRANCH 111 112
HETATM  112  N   UNK N   1      28.811  17.671   5.329  0.00  0.00    -0.398 N 
HETATM  113  H   UNK N   1      29.628  17.197   5.605  0.00  0.00     0.156 HD
HETATM  114  H   UNK N   1      28.235  17.363   6.067  0.00  0.00     0.156 HD
ENDBRANCH 111 112
ENDBRANCH 104 106
ENDBRANCH 103 104
ENDBRANCH   3 103
BRANCH  32 115
HETATM  115  C   UNK N   1      32.376   8.774   2.836  0.00  0.00     0.036 C 
BRANCH 115 116
HETATM  116  C   UNK N   1      32.663   8.485   4.308  0.00  0.00     0.021 C 
BRANCH 116 117
HETATM  117  C   UNK N   1      33.648   7.343   4.436  0.00  0.00     0.111 C 
BRANCH 117 118
HETATM  118  N   UNK N   1      32.966   6.079   4.219  0.00  0.00    -0.430 N 
HETATM  119  H   UNK N   1      33.298   5.184   4.579  0.00  0.00     0.149 HD
HETATM  120  H   UNK N   1      32.103   6.087   3.675  0.00  0.00     0.149 HD
ENDBRANCH 117 118
ENDBRANCH 116 117
ENDBRANCH 115 116
ENDBRANCH  32 115
BRANCH   8 121
HETATM  121  C   UNK N   1      21.898  17.501   4.892  0.00  0.00     0.023 C 
HETATM  122  C   UNK N   1      21.845  17.878   6.353  0.00  0.00     0.013 C 
BRANCH 121 123
HETATM  123  C   UNK N   1      22.450  18.649   4.052  0.00  0.00     0.116 C 
BRANCH 123 124
HETATM  124  C   UNK N   1      21.369  19.340   3.290  0.00  0.00     0.139 C 
HETATM  125  O   UNK N   1      21.264  20.553   3.342  0.00  0.00    -0.650 OA
BRANCH 124 126
HETATM  126  O   UNK N   1      20.535  18.627   2.509  0.00  0.00    -0.776 OA
HETATM  127  H   UNK N   1      20.275  17.739   2.358  0.00  0.00     0.167 HD
ENDBRANCH 124 126
ENDBRANCH 123 124
ENDBRANCH 121 123
ENDBRANCH   8 121
BRANCH  29 128
HETATM  128  C   UNK N   1      27.363   8.546   1.289  0.00  0.00     0.144 C 
BRANCH 128 129
HETATM  129  C   UNK N   1      27.499   7.770   0.017  0.00  0.00     0.141 C 
HETATM  130  O   UNK N   1      26.806   6.785  -0.179  0.00  0.00    -0.650 OA
BRANCH 129 131
HETATM  131  O   UNK N   1      28.406   8.143  -0.902  0.00  0.00    -0.776 OA
HETATM  132  H   UNK N   1      28.732   7.970  -1.763  0.00  0.00     0.167 HD
ENDBRANCH 129 131
ENDBRANCH 128 129
ENDBRANCH  29 128
BRANCH  11 133
HETATM  133  C   UNK N   1      18.721  15.240   4.487  0.00  0.00     0.199 C 
BRANCH 133 134
HETATM  134  O   UNK N   1      18.859  16.570   4.093  0.00  0.00    -0.398 OA
HETATM  135  H   UNK N   1      18.187  17.269   4.105  0.00  0.00     0.209 HD
ENDBRANCH 133 134
ENDBRANCH  11 133
BRANCH  20 136
HETATM  136  C   UNK N   1      24.840  11.102   6.104  0.00  0.00     0.144 C 
BRANCH 136 137
HETATM  137  C   UNK N   1      24.493  12.225   7.033  0.00  0.00     0.141 C 
HETATM  138  O   UNK N   1      24.183  12.001   8.191  0.00  0.00    -0.650 OA
BRANCH 137 139
HETATM  139  O   UNK N   1      24.588  13.497   6.601  0.00  0.00    -0.776 OA
HETATM  140  H   UNK N   1      23.938  13.895   6.055  0.00  0.00     0.167 HD
ENDBRANCH 137 139
ENDBRANCH 136 137
ENDBRANCH  20 136
TORSDOF 42
ENDMDL
MODEL 9
REMARK VINA RESULT:      -6.4      1.796      2.647
REMARK WARNING: 32 MAX_TORS EXCEEDED!!!
REMARK  42 active torsions:
REMARK  status: ('A' for Active; 'I' for Inactive)
REMARK    1  A    between atoms: C_5  and  C_3 
REMARK    2  A    between atoms: C_96  and  C_5 
REMARK    3  A    between atoms: C_10  and  C_7 
REMARK    4  A    between atoms: O_14  and  C_7 
REMARK    5  A    between atoms: C_12  and  C_10 
REMARK    6  A    between atoms: C_13  and  C_12 
REMARK    7  A    between atoms: C_21  and  C_18 
REMARK    8  A    between atoms: O_22  and  C_21 
REMARK    9  A    between atoms: C_32  and  O_27 
REMARK   10  A    between atoms: C_34  and  C_31 
REMARK   11  A    between atoms: C_34  and  C_32 
REMARK   12  A    between atoms: C_45  and  O_40 
REMARK   13  A    between atoms: C_47  and  C_44 
REMARK   14  A    between atoms: C_47  and  C_45 
REMARK   15  A    between atoms: C_50  and  C_48 
REMARK   16  A    between atoms: C_51  and  C_48 
REMARK   17  A    between atoms: C_53  and  C_50 
REMARK   18  A    between atoms: N_54  and  C_53 
REMARK   19  A    between atoms: C_60  and  N_64 
REMARK       I    between atoms: C_72  and  N_64 
REMARK   20  A    between atoms: C_71  and  O_66 
REMARK   21  A    between atoms: C_70  and  N_67 
REMARK       I    between atoms: C_75  and  N_67 
REMARK   22  A    between atoms: C_72  and  C_70 
REMARK   23  A    between atoms: C_73  and  C_70 
REMARK   24  A    between atoms: C_73  and  C_71 
REMARK   25  A    between atoms: C_76  and  C_74 
REMARK   26  A    between atoms: C_77  and  C_74 
REMARK   27  A    between atoms: C_77  and  C_75 
REMARK       I    between atoms: N_80  and  C_76 
REMARK   28  A    between atoms: C_77  and  N_81 
REMARK       I    between atoms: C_82  and  N_81 
REMARK   29  A    between atoms: C_84  and  C_82 
REMARK   30  A    between atoms: C_85  and  C_84 
REMARK   31  A    between atoms: C_84  and  N_86 
REMARK   32  A    between atoms: C_98  and  C_85 
REMARK       I    between atoms: C_87  and  N_86 
REMARK   33  A    between atoms: C_88  and  C_87 
REMARK   34  A    between atoms: C_108  and  C_88 
REMARK   35  A    between atoms: C_96  and  C_89 
REMARK   36  A    between atoms: N_95  and  C_90 
REMARK   37  A    between atoms: C_109  and  C_108 
REMARK   38  A    between atoms: C_110  and  C_109 
REMARK   39  A    between atoms: C_111  and  C_110 
REMARK   40  A    between atoms: C_112  and  C_111 
REMARK   41  A    between atoms: C_113  and  C_112 
REMARK   42  A    between atoms: C_114  and  C_113 
ROOT
HETATM    1  C   UNK N   1      25.650  13.689   3.316  0.00  0.00     0.282 C 
HETATM    2  O   UNK N   1      24.944  12.889   2.721  0.00  0.00    -0.263 OA
HETATM    3  C   UNK N   1      25.153  15.105   3.494  0.00  0.00     0.191 C 
HETATM    4  N   UNK N   1      23.966  15.296   2.687  0.00  0.00    -0.345 N 
HETATM    5  O   UNK N   1      26.860  13.264   3.784  0.00  0.00    -0.312 OA
HETATM    6  C   UNK N   1      22.849  15.972   3.055  0.00  0.00     0.241 C 
HETATM    7  O   UNK N   1      21.918  16.015   2.268  0.00  0.00    -0.271 OA
HETATM    8  C   UNK N   1      22.749  16.728   4.372  0.00  0.00     0.180 C 
HETATM    9  N   UNK N   1      22.331  15.962   5.527  0.00  0.00    -0.346 N 
HETATM   10  C   UNK N   1      21.161  15.289   5.663  0.00  0.00     0.243 C 
HETATM   11  C   UNK N   1      20.262  15.001   4.477  0.00  0.00     0.200 C 
HETATM   12  O   UNK N   1      20.807  14.974   6.786  0.00  0.00    -0.271 OA
HETATM   13  N   UNK N   1      20.074  13.607   4.077  0.00  0.00    -0.344 N 
HETATM   14  C   UNK N   1      20.151  12.462   4.815  0.00  0.00     0.236 C 
HETATM   15  O   UNK N   1      19.897  11.398   4.275  0.00  0.00    -0.272 OA
HETATM   16  N   UNK N   1      21.815  12.095   6.675  0.00  0.00    -0.351 N 
HETATM   17  C   UNK N   1      20.456  12.456   6.285  0.00  0.00     0.225 C 
HETATM   18  N   UNK N   1      24.523   9.860   5.942  0.00  0.00    -0.346 N 
HETATM   19  O   UNK N   1      22.582  11.285   4.725  0.00  0.00    -0.271 OA
HETATM   20  C   UNK N   1      24.072  11.098   6.555  0.00  0.00     0.186 C 
HETATM   21  C   UNK N   1      22.792  11.555   5.898  0.00  0.00     0.241 C 
HETATM   22  C   UNK N   1      25.149   9.830   4.737  0.00  0.00     0.240 C 
HETATM   23  O   UNK N   1      25.497  10.862   4.200  0.00  0.00    -0.271 OA
HETATM   24  C   UNK N   1      25.395   8.548   4.028  0.00  0.00     0.172 C 
HETATM   25  N   UNK N   1      26.218   7.687   4.829  0.00  0.00    -0.346 N 
HETATM   26  C   UNK N   1      24.087   7.865   3.677  0.00  0.00     0.042 C 
HETATM   27  N   UNK N   1      29.502   7.439   3.231  0.00  0.00    -0.346 N 
HETATM   28  O   UNK N   1      28.138   6.787   5.449  0.00  0.00    -0.271 OA
HETATM   29  C   UNK N   1      28.398   8.271   3.628  0.00  0.00     0.186 C 
HETATM   30  C   UNK N   1      27.559   7.527   4.670  0.00  0.00     0.241 C 
HETATM   31  C   UNK N   1      30.794   7.846   3.201  0.00  0.00     0.241 C 
HETATM   32  C   UNK N   1      31.202   9.297   3.420  0.00  0.00     0.176 C 
HETATM   33  N   UNK N   1      30.807  10.114   2.274  0.00  0.00    -0.346 N 
HETATM   34  O   UNK N   1      31.655   7.004   2.997  0.00  0.00    -0.271 OA
HETATM   35  C   UNK N   1      31.200  11.409   2.125  0.00  0.00     0.236 C 
HETATM   36  O   UNK N   1      31.950  11.919   2.943  0.00  0.00    -0.272 OA
HETATM   37  N   UNK N   1      29.567  12.721   0.709  0.00  0.00    -0.350 N 
HETATM   38  C   UNK N   1      30.902  12.171   0.870  0.00  0.00     0.225 C 
HETATM   39  C   UNK N   1      29.138  13.487   3.103  0.00  0.00     0.205 C 
HETATM   40  C   UNK N   1      28.811  13.414   1.609  0.00  0.00     0.243 C 
HETATM   41  O   UNK N   1      27.785  13.939   1.208  0.00  0.00    -0.271 OA
HETATM   42  C   UNK N   1      27.982  14.054   3.964  0.00  0.00     0.159 C 
HETATM   43  C   UNK N   1      28.348  14.075   5.440  0.00  0.00     0.042 C 
HETATM   44  H   UNK N   1      23.970  14.899   1.786  0.00  0.00     0.163 HD
HETATM   45  H   UNK N   1      22.955  15.928   6.288  0.00  0.00     0.163 HD
HETATM   46  H   UNK N   1      19.859  13.473   3.125  0.00  0.00     0.163 HD
HETATM   47  H   UNK N   1      22.054  12.261   7.616  0.00  0.00     0.163 HD
HETATM   48  H   UNK N   1      24.370   9.012   6.418  0.00  0.00     0.163 HD
HETATM   49  H   UNK N   1      25.778   7.175   5.546  0.00  0.00     0.163 HD
HETATM   50  H   UNK N   1      29.305   6.513   2.962  0.00  0.00     0.163 HD
HETATM   51  H   UNK N   1      30.233   9.712   1.582  0.00  0.00     0.163 HD
HETATM   52  H   UNK N   1      29.150  12.572  -0.171  0.00  0.00     0.163 HD
ENDROOT
BRANCH  39  53
HETATM   53  N   UNK N   1      30.406  14.088   3.478  0.00  0.00    -0.344 N 
HETATM   54  C   UNK N   1      30.844  15.342   3.234  0.00  0.00     0.241 C 
HETATM   55  O   UNK N   1      30.129  16.179   2.701  0.00  0.00    -0.271 OA
HETATM   56  H   UNK N   1      31.026  13.505   3.973  0.00  0.00     0.163 HD
BRANCH  54  57
HETATM   57  C   UNK N   1      32.207  15.718   3.723  0.00  0.00     0.186 C 
BRANCH  57  58
HETATM   58  N   UNK N   1      32.610  14.755   4.707  0.00  0.00    -0.345 N 
HETATM   59  C   UNK N   1      33.801  14.100   4.625  0.00  0.00     0.241 C 
HETATM   60  O   UNK N   1      34.632  14.421   3.786  0.00  0.00    -0.271 OA
HETATM   61  H   UNK N   1      32.009  14.563   5.462  0.00  0.00     0.163 HD
BRANCH  59  62
HETATM   62  C   UNK N   1      34.092  12.959   5.559  0.00  0.00     0.185 C 
BRANCH  62  63
HETATM   63  C   UNK N   1      32.919  12.564   6.473  0.00  0.00     0.137 C 
BRANCH  63  64
HETATM   64  C   UNK N   1      32.832  13.294   7.776  0.00  0.00     0.217 C 
HETATM   65  O   UNK N   1      32.945  14.509   7.814  0.00  0.00    -0.274 OA
HETATM   66  N   UNK N   1      32.611  12.604   8.910  0.00  0.00    -0.370 N 
HETATM   67  H   UNK N   1      33.077  12.249   9.701  0.00  0.00     0.159 HD
HETATM   68  H   UNK N   1      31.654  12.377   8.969  0.00  0.00     0.159 HD
ENDBRANCH  63  64
ENDBRANCH  62  63
BRANCH  62  69
HETATM   69  N   UNK N   1      35.350  13.158   6.254  0.00  0.00    -0.346 N 
HETATM   70  C   UNK N   1      36.527  12.524   5.982  0.00  0.00     0.241 C 
HETATM   71  O   UNK N   1      36.636  11.780   5.021  0.00  0.00    -0.271 OA
HETATM   72  H   UNK N   1      35.355  13.811   6.990  0.00  0.00     0.163 HD
BRANCH  70  73
HETATM   73  C   UNK N   1      37.617  12.532   7.008  0.00  0.00     0.180 C 
BRANCH  73  74
HETATM   74  C   UNK N   1      37.549  13.829   7.807  0.00  0.00     0.075 C 
BRANCH  74  75
HETATM   75  C   UNK N   1      37.694  13.593   9.266  0.00  0.00    -0.028 A 
HETATM   76  C   UNK N   1      38.823  13.121   9.930  0.00  0.00     0.096 A 
HETATM   77  N   UNK N   1      38.571  13.053  11.258  0.00  0.00    -0.365 N 
HETATM   78  C   UNK N   1      37.298  13.480  11.423  0.00  0.00     0.042 A 
HETATM   79  H   UNK N   1      39.190  12.753  11.963  0.00  0.00     0.165 HD
HETATM   80  C   UNK N   1      36.746  13.816  10.223  0.00  0.00    -0.002 A 
HETATM   81  C   UNK N   1      36.600  13.588  12.617  0.00  0.00     0.030 A 
HETATM   82  C   UNK N   1      35.437  14.293  10.129  0.00  0.00     0.014 A 
HETATM   83  C   UNK N   1      34.696  14.411  11.318  0.00  0.00     0.001 A 
HETATM   84  C   UNK N   1      35.274  14.060  12.558  0.00  0.00     0.002 A 
ENDBRANCH  74  75
ENDBRANCH  73  74
BRANCH  73  85
HETATM   85  N   UNK N   1      38.956  12.246   6.520  0.00  0.00    -0.347 N 
HETATM   86  C   UNK N   1      39.555  11.028   6.450  0.00  0.00     0.218 C 
HETATM   87  O   UNK N   1      40.660  10.942   5.937  0.00  0.00    -0.274 OA
HETATM   88  H   UNK N   1      39.484  13.016   6.207  0.00  0.00     0.163 HD
BRANCH  86  89
HETATM   89  C   UNK N   1      38.913   9.790   6.998  0.00  0.00     0.103 C 
BRANCH  89  90
HETATM   90  C   UNK N   1      39.054   9.731   8.518  0.00  0.00     0.009 C 
BRANCH  90  91
HETATM   91  C   UNK N   1      37.697   9.788   9.215  0.00  0.00     0.000 C 
BRANCH  91  92
HETATM   92  C   UNK N   1      37.417   8.492   9.950  0.00  0.00     0.000 C 
BRANCH  92  93
HETATM   93  C   UNK N   1      36.180   8.639  10.814  0.00  0.00     0.000 C 
BRANCH  93  94
HETATM   94  C   UNK N   1      36.132  10.033  11.410  0.00  0.00     0.000 C 
BRANCH  94  95
HETATM   95  C   UNK N   1      34.750  10.644  11.275  0.00  0.00    -0.000 C 
BRANCH  95  96
HETATM   96  C   UNK N   1      33.782  10.003  12.250  0.00  0.00    -0.005 C 
HETATM   97  C   UNK N   1      33.934  10.652  13.612  0.00  0.00     0.005 C 
ENDBRANCH  95  96
ENDBRANCH  94  95
ENDBRANCH  93  94
ENDBRANCH  92  93
ENDBRANCH  91  92
ENDBRANCH  90  91
ENDBRANCH  89  90
ENDBRANCH  86  89
ENDBRANCH  73  85
ENDBRANCH  70  73
ENDBRANCH  62  69
ENDBRANCH  59  62
ENDBRANCH  57  58
BRANCH  57  98
HETATM   98  C   UNK N   1      32.358  17.163   4.234  0.00  0.00     0.144 C 
BRANCH  98  99
HETATM   99  C   UNK N   1      32.959  17.353   5.600  0.00  0.00     0.141 C 
HETATM  100  O   UNK N   1      34.131  17.669   5.724  0.00  0.00    -0.650 OA
BRANCH  99 101
HETATM  101  O   UNK N   1      32.181  17.222   6.690  0.00  0.00    -0.776 OA
HETATM  102  H   UNK N   1      31.339  17.626   6.768  0.00  0.00     0.167 HD
ENDBRANCH  99 101
ENDBRANCH  98  99
ENDBRANCH  57  98
ENDBRANCH  54  57
ENDBRANCH  39  53
BRANCH   3 103
HETATM  103  C   UNK N   1      26.220  16.052   3.020  0.00  0.00     0.119 C 
BRANCH 103 104
HETATM  104  C   UNK N   1      26.220  17.288   3.844  0.00  0.00     0.164 C 
HETATM  105  O   UNK N   1      25.551  18.247   3.489  0.00  0.00    -0.292 OA
BRANCH 104 106
HETATM  106  C   UNK N   1      26.983  17.307   5.106  0.00  0.00     0.036 A 
HETATM  107  C   UNK N   1      26.421  16.694   6.239  0.00  0.00     0.017 A 
HETATM  108  C   UNK N   1      27.088  16.704   7.460  0.00  0.00     0.001 A 
HETATM  109  C   UNK N   1      28.327  17.329   7.563  0.00  0.00     0.002 A 
HETATM  110  C   UNK N   1      28.900  17.935   6.444  0.00  0.00     0.030 A 
HETATM  111  C   UNK N   1      28.242  17.933   5.217  0.00  0.00     0.039 A 
BRANCH 111 112
HETATM  112  N   UNK N   1      28.857  18.559   4.110  0.00  0.00    -0.398 N 
HETATM  113  H   UNK N   1      29.293  19.188   3.492  0.00  0.00     0.156 HD
HETATM  114  H   UNK N   1      28.821  17.789   3.498  0.00  0.00     0.156 HD
ENDBRANCH 111 112
ENDBRANCH 104 106
ENDBRANCH 103 104
ENDBRANCH   3 103
BRANCH  32 115
HETATM  115  C   UNK N   1      32.720   9.398   3.680  0.00  0.00     0.036 C 
BRANCH 115 116
HETATM  116  C   UNK N   1      33.073   9.198   5.152  0.00  0.00     0.021 C 
BRANCH 116 117
HETATM  117  C   UNK N   1      34.564   8.989   5.310  0.00  0.00     0.111 C 
BRANCH 117 118
HETATM  118  N   UNK N   1      34.991   9.466   6.614  0.00  0.00    -0.430 N 
HETATM  119  H   UNK N   1      34.842  10.420   6.947  0.00  0.00     0.149 HD
HETATM  120  H   UNK N   1      35.467   8.811   7.233  0.00  0.00     0.149 HD
ENDBRANCH 117 118
ENDBRANCH 116 117
ENDBRANCH 115 116
ENDBRANCH  32 115
BRANCH   8 121
HETATM  121  C   UNK N   1      22.044  18.100   4.368  0.00  0.00     0.023 C 
HETATM  122  C   UNK N   1      21.591  18.530   5.743  0.00  0.00     0.013 C 
BRANCH 121 123
HETATM  123  C   UNK N   1      22.813  19.219   3.672  0.00  0.00     0.116 C 
BRANCH 123 124
HETATM  124  C   UNK N   1      21.915  20.052   2.819  0.00  0.00     0.139 C 
HETATM  125  O   UNK N   1      22.094  21.256   2.738  0.00  0.00    -0.650 OA
BRANCH 124 126
HETATM  126  O   UNK N   1      20.934  19.469   2.105  0.00  0.00    -0.776 OA
HETATM  127  H   UNK N   1      20.385  19.640   1.365  0.00  0.00     0.167 HD
ENDBRANCH 124 126
ENDBRANCH 123 124
ENDBRANCH 121 123
ENDBRANCH   8 121
BRANCH  29 128
HETATM  128  C   UNK N   1      27.674   8.752   2.376  0.00  0.00     0.144 C 
BRANCH 128 129
HETATM  129  C   UNK N   1      28.037   7.908   1.196  0.00  0.00     0.141 C 
HETATM  130  O   UNK N   1      27.513   6.818   1.035  0.00  0.00    -0.650 OA
BRANCH 129 131
HETATM  131  O   UNK N   1      28.965   8.339   0.324  0.00  0.00    -0.776 OA
HETATM  132  H   UNK N   1      29.100   8.669  -0.543  0.00  0.00     0.167 HD
ENDBRANCH 129 131
ENDBRANCH 128 129
ENDBRANCH  29 128
BRANCH  11 133
HETATM  133  C   UNK N   1      18.927  15.727   4.514  0.00  0.00     0.199 C 
BRANCH 133 134
HETATM  134  O   UNK N   1      18.203  15.378   5.654  0.00  0.00    -0.398 OA
HETATM  135  H   UNK N   1      17.774  14.532   5.852  0.00  0.00     0.209 HD
ENDBRANCH 133 134
ENDBRANCH  11 133
BRANCH  20 136
HETATM  136  C   UNK N   1      25.212  12.130   6.690  0.00  0.00     0.144 C 
BRANCH 136 137
HETATM  137  C   UNK N   1      24.898  13.344   7.511  0.00  0.00     0.141 C 
HETATM  138  O   UNK N   1      25.329  13.455   8.646  0.00  0.00    -0.650 OA
BRANCH 137 139
HETATM  139  O   UNK N   1      24.187  14.348   6.965  0.00  0.00    -0.776 OA
HETATM  140  H   UNK N   1      24.253  14.579   6.059  0.00  0.00     0.167 HD
ENDBRANCH 137 139
ENDBRANCH 136 137
ENDBRANCH  20 136
TORSDOF 42
ENDMDL
