REMARK  7 active torsions:
REMARK  status: ('A' for Active; 'I' for Inactive)
REMARK    1  A    between atoms: C_5  and  C_3 
REMARK    2  A    between atoms: C_9  and  C_3 
REMARK    3  A    between atoms: N_27  and  C_9 
REMARK    4  A    between atoms: C_15  and  C_14 
REMARK    5  A    between atoms: N_28  and  C_14 
REMARK    6  A    between atoms: O_29  and  C_15 
REMARK    7  A    between atoms: C_23  and  C_17 
ROOT
HETATM    1  C   UNK N   1       6.104   1.958   0.210  0.00  0.00     0.001 A 
HETATM    2  C   UNK N   1       6.135   3.343   0.313  0.00  0.00     0.001 A 
HETATM    3  C   UNK N   1       4.884   1.304   0.046  0.00  0.00     0.013 A 
HETATM    4  C   UNK N   1       2.469  -0.092  -0.510  0.00  0.00    -0.012 C 
HETATM    5  C   UNK N   1       4.948   4.065   0.247  0.00  0.00     0.020 A 
HETATM    6  C   UNK N   1      -1.486   3.205   0.214  0.00  0.00     0.017 A 
HETATM    7  C   UNK N   1      -0.325   3.963   0.166  0.00  0.00     0.020 A 
HETATM    8  C   UNK N   1      -0.161   1.208  -0.016  0.00  0.00     0.029 A 
HETATM    9  C   UNK N   1      -1.414   1.819   0.127  0.00  0.00     0.048 A 
HETATM   10  C   UNK N   1       2.376   1.247  -0.210  0.00  0.00    -0.017 C 
HETATM   11  C   UNK N   1       3.662   2.011  -0.017  0.00  0.00    -0.008 A 
HETATM   12  C   UNK N   1       1.038   1.953  -0.077  0.00  0.00    -0.007 A 
HETATM   13  C   UNK N   1       3.715   3.420   0.087  0.00  0.00     0.016 A 
HETATM   14  C   UNK N   1       0.931   3.362   0.030  0.00  0.00     0.016 A 
HETATM   15  S   UNK N   1       2.303   4.497  -0.058  0.00  0.00    -0.089 SA
ENDROOT
BRANCH   4  16
HETATM   16  C   UNK N   1       1.309  -0.973  -0.848  0.00  0.00     0.058 C 
BRANCH  16  17
HETATM   17  C   UNK N   1       1.188  -2.205   0.035  0.00  0.00     0.276 C 
BRANCH  17  18
HETATM   18  N   UNK N   1      -0.080  -2.842  -0.287  0.00  0.00     0.092 N 
HETATM   19  C   UNK N   1      -1.134  -2.132   0.423  0.00  0.00     0.302 C 
HETATM   20  C   UNK N   1      -2.471  -2.698  -0.018  0.00  0.00     0.302 C 
HETATM   21  N   UNK N   1      -2.558  -4.111   0.356  0.00  0.00     0.093 N 
HETATM   22  C   UNK N   1      -1.444  -4.856  -0.246  0.00  0.00     0.302 C 
HETATM   23  C   UNK N   1      -0.096  -4.234   0.153  0.00  0.00     0.302 C 
BRANCH  21  24
HETATM   24  C   UNK N   1      -3.794  -4.630  -0.217  0.00  0.00     0.298 C 
BRANCH  24  25
HETATM   25  C   UNK N   1      -5.000  -4.102   0.548  0.00  0.00     0.194 C 
BRANCH  25  26
HETATM   26  O   UNK N   1      -6.167  -4.400  -0.154  0.00  0.00    -0.399 OA
HETATM   27  H   UNK N   1      -6.752  -3.800  -0.642  0.00  0.00     0.209 HD
ENDBRANCH  25  26
ENDBRANCH  24  25
ENDBRANCH  21  24
ENDBRANCH  17  18
ENDBRANCH  16  17
ENDBRANCH   4  16
BRANCH   9  28
HETATM   28  C   UNK N   1      -2.666   0.991   0.190  0.00  0.00     0.417 C 
HETATM   29  F   UNK N   1      -2.774   0.225  -0.957  0.00  0.00    -0.166 F 
HETATM   30  F   UNK N   1      -2.619   0.165   1.297  0.00  0.00    -0.166 F 
HETATM   31  F   UNK N   1      -3.792   1.791   0.293  0.00  0.00    -0.166 F 
ENDBRANCH   9  28
TORSDOF 7
