MODEL 1
REMARK VINA RESULT:      -5.0      0.000      0.000
REMARK  14 active torsions:
REMARK  status: ('A' for Active; 'I' for Inactive)
REMARK    1  A    between atoms: C_1  and  C_3 
REMARK    2  A    between atoms: C_2  and  C_4 
REMARK    3  A    between atoms: C_3  and  C_5 
REMARK    4  A    between atoms: C_4  and  C_6 
REMARK    5  A    between atoms: C_7  and  C_9 
REMARK    6  A    between atoms: C_8  and  C_10 
REMARK    7  A    between atoms: C_9  and  C_11 
REMARK    8  A    between atoms: C_10  and  C_12 
REMARK    9  A    between atoms: C_11  and  C_13 
REMARK   10  A    between atoms: C_13  and  C_15 
REMARK   11  A    between atoms: C_14  and  C_16 
REMARK   12  A    between atoms: C_15  and  O_17 
REMARK   13  A    between atoms: C_16  and  C_19 
REMARK   14  A    between atoms: C_20  and  C_21 
ROOT
HETATM    1  C   UNK N   1      29.805  28.461  -5.992  0.00  0.00    -0.027 C 
HETATM    2  C   UNK N   1      28.742  29.133  -6.444  0.00  0.00    -0.027 C 
ENDROOT
BRANCH   2   3
HETATM    3  C   UNK N   1      27.347  28.809  -5.997  0.00  0.00     0.053 C 
BRANCH   3   4
HETATM    4  C   UNK N   1      26.976  29.572  -4.760  0.00  0.00    -0.027 C 
HETATM    5  C   UNK N   1      26.191  29.074  -3.798  0.00  0.00    -0.027 C 
BRANCH   5   6
HETATM    6  C   UNK N   1      25.583  27.706  -3.875  0.00  0.00     0.053 C 
BRANCH   6   7
HETATM    7  C   UNK N   1      26.480  26.707  -3.210  0.00  0.00    -0.027 C 
HETATM    8  C   UNK N   1      26.593  25.443  -3.637  0.00  0.00    -0.027 C 
BRANCH   8   9
HETATM    9  C   UNK N   1      25.796  24.924  -4.792  0.00  0.00     0.053 C 
BRANCH   9  10
HETATM   10  C   UNK N   1      26.602  23.925  -5.559  0.00  0.00    -0.027 C 
HETATM   11  C   UNK N   1      26.689  23.957  -6.893  0.00  0.00    -0.031 C 
BRANCH  11  12
HETATM   12  C   UNK N   1      25.987  24.991  -7.712  0.00  0.00     0.022 C 
HETATM   13  C   UNK N   1      26.991  25.998  -8.226  0.00  0.00     0.009 C 
ENDBRANCH  11  12
ENDBRANCH   9  10
ENDBRANCH   8   9
ENDBRANCH   6   7
ENDBRANCH   5   6
ENDBRANCH   3   4
ENDBRANCH   2   3
BRANCH   1  14
HETATM   14  C   UNK N   1      29.691  27.367  -4.976  0.00  0.00     0.053 C 
BRANCH  14  15
HETATM   15  C   UNK N   1      29.751  26.027  -5.647  0.00  0.00    -0.027 C 
HETATM   16  C   UNK N   1      30.068  24.905  -4.991  0.00  0.00    -0.030 C 
BRANCH  16  17
HETATM   17  C   UNK N   1      30.403  24.877  -3.528  0.00  0.00     0.027 C 
BRANCH  17  18
HETATM   18  C   UNK N   1      29.764  23.667  -2.858  0.00  0.00     0.014 C 
BRANCH  18  19
HETATM   19  C   UNK N   1      29.972  22.386  -3.655  0.00  0.00     0.110 C 
BRANCH  19  20
HETATM   20  C   UNK N   1      31.102  21.560  -3.128  0.00  0.00     0.139 C 
HETATM   21  O   UNK N   1      31.812  21.987  -2.230  0.00  0.00    -0.650 OA
BRANCH  20  22
HETATM   22  O   UNK N   1      31.346  20.348  -3.658  0.00  0.00    -0.776 OA
HETATM   23  H   UNK N   1      31.126  19.802  -4.386  0.00  0.00     0.167 HD
ENDBRANCH  20  22
ENDBRANCH  19  20
ENDBRANCH  18  19
ENDBRANCH  17  18
ENDBRANCH  16  17
ENDBRANCH  14  15
ENDBRANCH   1  14
TORSDOF 14
ENDMDL
MODEL 2
REMARK VINA RESULT:      -4.9      1.525      2.789
REMARK  14 active torsions:
REMARK  status: ('A' for Active; 'I' for Inactive)
REMARK    1  A    between atoms: C_1  and  C_3 
REMARK    2  A    between atoms: C_2  and  C_4 
REMARK    3  A    between atoms: C_3  and  C_5 
REMARK    4  A    between atoms: C_4  and  C_6 
REMARK    5  A    between atoms: C_7  and  C_9 
REMARK    6  A    between atoms: C_8  and  C_10 
REMARK    7  A    between atoms: C_9  and  C_11 
REMARK    8  A    between atoms: C_10  and  C_12 
REMARK    9  A    between atoms: C_11  and  C_13 
REMARK   10  A    between atoms: C_13  and  C_15 
REMARK   11  A    between atoms: C_14  and  C_16 
REMARK   12  A    between atoms: C_15  and  O_17 
REMARK   13  A    between atoms: C_16  and  C_19 
REMARK   14  A    between atoms: C_20  and  C_21 
ROOT
HETATM    1  C   UNK N   1      28.883  24.573  -4.439  0.00  0.00    -0.027 C 
HETATM    2  C   UNK N   1      28.695  25.879  -4.219  0.00  0.00    -0.027 C 
ENDROOT
BRANCH   2   3
HETATM    3  C   UNK N   1      29.028  26.915  -5.253  0.00  0.00     0.053 C 
BRANCH   3   4
HETATM    4  C   UNK N   1      29.354  28.235  -4.620  0.00  0.00    -0.027 C 
HETATM    5  C   UNK N   1      28.482  29.246  -4.539  0.00  0.00    -0.027 C 
BRANCH   5   6
HETATM    6  C   UNK N   1      27.094  29.166  -5.099  0.00  0.00     0.053 C 
BRANCH   6   7
HETATM    7  C   UNK N   1      26.143  28.682  -4.046  0.00  0.00    -0.027 C 
HETATM    8  C   UNK N   1      25.163  27.807  -4.307  0.00  0.00    -0.027 C 
BRANCH   8   9
HETATM    9  C   UNK N   1      24.922  27.276  -5.685  0.00  0.00     0.053 C 
BRANCH   9  10
HETATM   10  C   UNK N   1      25.410  25.866  -5.780  0.00  0.00    -0.027 C 
HETATM   11  C   UNK N   1      25.889  25.355  -6.919  0.00  0.00    -0.031 C 
BRANCH  11  12
HETATM   12  C   UNK N   1      25.969  26.156  -8.179  0.00  0.00     0.022 C 
HETATM   13  C   UNK N   1      27.400  26.589  -8.413  0.00  0.00     0.009 C 
ENDBRANCH  11  12
ENDBRANCH   9  10
ENDBRANCH   8   9
ENDBRANCH   6   7
ENDBRANCH   5   6
ENDBRANCH   3   4
ENDBRANCH   2   3
BRANCH   1  14
HETATM   14  C   UNK N   1      29.395  24.044  -5.742  0.00  0.00     0.053 C 
BRANCH  14  15
HETATM   15  C   UNK N   1      28.552  22.890  -6.199  0.00  0.00    -0.027 C 
HETATM   16  C   UNK N   1      29.058  21.670  -6.419  0.00  0.00    -0.030 C 
BRANCH  16  17
HETATM   17  C   UNK N   1      30.511  21.340  -6.240  0.00  0.00     0.027 C 
BRANCH  17  18
HETATM   18  C   UNK N   1      30.794  20.946  -4.797  0.00  0.00     0.014 C 
BRANCH  18  19
HETATM   19  C   UNK N   1      32.011  21.664  -4.227  0.00  0.00     0.110 C 
BRANCH  19  20
HETATM   20  C   UNK N   1      31.972  21.763  -2.735  0.00  0.00     0.139 C 
HETATM   21  O   UNK N   1      31.139  22.467  -2.184  0.00  0.00    -0.650 OA
BRANCH  20  22
HETATM   22  O   UNK N   1      32.869  21.085  -1.998  0.00  0.00    -0.776 OA
HETATM   23  H   UNK N   1      33.503  21.197  -1.318  0.00  0.00     0.167 HD
ENDBRANCH  20  22
ENDBRANCH  19  20
ENDBRANCH  18  19
ENDBRANCH  17  18
ENDBRANCH  16  17
ENDBRANCH  14  15
ENDBRANCH   1  14
TORSDOF 14
ENDMDL
MODEL 3
REMARK VINA RESULT:      -4.9     11.276     14.058
REMARK  14 active torsions:
REMARK  status: ('A' for Active; 'I' for Inactive)
REMARK    1  A    between atoms: C_1  and  C_3 
REMARK    2  A    between atoms: C_2  and  C_4 
REMARK    3  A    between atoms: C_3  and  C_5 
REMARK    4  A    between atoms: C_4  and  C_6 
REMARK    5  A    between atoms: C_7  and  C_9 
REMARK    6  A    between atoms: C_8  and  C_10 
REMARK    7  A    between atoms: C_9  and  C_11 
REMARK    8  A    between atoms: C_10  and  C_12 
REMARK    9  A    between atoms: C_11  and  C_13 
REMARK   10  A    between atoms: C_13  and  C_15 
REMARK   11  A    between atoms: C_14  and  C_16 
REMARK   12  A    between atoms: C_15  and  O_17 
REMARK   13  A    between atoms: C_16  and  C_19 
REMARK   14  A    between atoms: C_20  and  C_21 
ROOT
HETATM    1  C   UNK N   1      32.029  16.958   3.839  0.00  0.00    -0.027 C 
HETATM    2  C   UNK N   1      30.712  16.817   3.651  0.00  0.00    -0.027 C 
ENDROOT
BRANCH   2   3
HETATM    3  C   UNK N   1      29.715  17.167   4.716  0.00  0.00     0.053 C 
BRANCH   3   4
HETATM    4  C   UNK N   1      29.267  15.950   5.468  0.00  0.00    -0.027 C 
HETATM    5  C   UNK N   1      28.066  15.846   6.049  0.00  0.00    -0.027 C 
BRANCH   5   6
HETATM    6  C   UNK N   1      27.055  16.952   6.024  0.00  0.00     0.053 C 
BRANCH   6   7
HETATM    7  C   UNK N   1      25.756  16.448   5.472  0.00  0.00    -0.027 C 
HETATM    8  C   UNK N   1      25.317  16.773   4.249  0.00  0.00    -0.027 C 
BRANCH   8   9
HETATM    9  C   UNK N   1      26.079  17.699   3.356  0.00  0.00     0.053 C 
BRANCH   9  10
HETATM   10  C   UNK N   1      25.433  19.048   3.350  0.00  0.00    -0.027 C 
HETATM   11  C   UNK N   1      26.085  20.149   3.737  0.00  0.00    -0.031 C 
BRANCH  11  12
HETATM   12  C   UNK N   1      27.505  20.112   4.203  0.00  0.00     0.022 C 
HETATM   13  C   UNK N   1      27.589  20.649   5.614  0.00  0.00     0.009 C 
ENDBRANCH  11  12
ENDBRANCH   9  10
ENDBRANCH   8   9
ENDBRANCH   6   7
ENDBRANCH   5   6
ENDBRANCH   3   4
ENDBRANCH   2   3
BRANCH   1  14
HETATM   14  C   UNK N   1      32.604  17.516   5.104  0.00  0.00     0.053 C 
BRANCH  14  15
HETATM   15  C   UNK N   1      32.900  16.409   6.072  0.00  0.00    -0.027 C 
HETATM   16  C   UNK N   1      32.525  16.453   7.356  0.00  0.00    -0.030 C 
BRANCH  16  17
HETATM   17  C   UNK N   1      31.783  17.613   7.954  0.00  0.00     0.027 C 
BRANCH  17  18
HETATM   18  C   UNK N   1      30.540  17.127   8.689  0.00  0.00     0.014 C 
BRANCH  18  19
HETATM   19  C   UNK N   1      29.762  18.269   9.330  0.00  0.00     0.110 C 
BRANCH  19  20
HETATM   20  C   UNK N   1      28.282  18.054   9.279  0.00  0.00     0.139 C 
HETATM   21  O   UNK N   1      27.799  16.996   9.655  0.00  0.00    -0.650 OA
BRANCH  20  22
HETATM   22  O   UNK N   1      27.483  19.024   8.802  0.00  0.00    -0.776 OA
HETATM   23  H   UNK N   1      27.507  19.872   8.404  0.00  0.00     0.167 HD
ENDBRANCH  20  22
ENDBRANCH  19  20
ENDBRANCH  18  19
ENDBRANCH  17  18
ENDBRANCH  16  17
ENDBRANCH  14  15
ENDBRANCH   1  14
TORSDOF 14
ENDMDL
MODEL 4
REMARK VINA RESULT:      -4.9      1.465      3.324
REMARK  14 active torsions:
REMARK  status: ('A' for Active; 'I' for Inactive)
REMARK    1  A    between atoms: C_1  and  C_3 
REMARK    2  A    between atoms: C_2  and  C_4 
REMARK    3  A    between atoms: C_3  and  C_5 
REMARK    4  A    between atoms: C_4  and  C_6 
REMARK    5  A    between atoms: C_7  and  C_9 
REMARK    6  A    between atoms: C_8  and  C_10 
REMARK    7  A    between atoms: C_9  and  C_11 
REMARK    8  A    between atoms: C_10  and  C_12 
REMARK    9  A    between atoms: C_11  and  C_13 
REMARK   10  A    between atoms: C_13  and  C_15 
REMARK   11  A    between atoms: C_14  and  C_16 
REMARK   12  A    between atoms: C_15  and  O_17 
REMARK   13  A    between atoms: C_16  and  C_19 
REMARK   14  A    between atoms: C_20  and  C_21 
ROOT
HETATM    1  C   UNK N   1      25.485  26.188  -5.283  0.00  0.00    -0.027 C 
HETATM    2  C   UNK N   1      25.245  27.480  -5.039  0.00  0.00    -0.027 C 
ENDROOT
BRANCH   2   3
HETATM    3  C   UNK N   1      25.675  28.142  -3.764  0.00  0.00     0.053 C 
BRANCH   3   4
HETATM    4  C   UNK N   1      26.223  29.515  -4.017  0.00  0.00    -0.027 C 
HETATM    5  C   UNK N   1      27.283  30.013  -3.369  0.00  0.00    -0.027 C 
BRANCH   5   6
HETATM    6  C   UNK N   1      28.013  29.253  -2.304  0.00  0.00     0.053 C 
BRANCH   6   7
HETATM    7  C   UNK N   1      29.490  29.315  -2.550  0.00  0.00    -0.027 C 
HETATM    8  C   UNK N   1      30.133  28.419  -3.309  0.00  0.00    -0.027 C 
BRANCH   8   9
HETATM    9  C   UNK N   1      29.424  27.262  -3.939  0.00  0.00     0.053 C 
BRANCH   9  10
HETATM   10  C   UNK N   1      30.119  26.864  -5.202  0.00  0.00    -0.027 C 
HETATM   11  C   UNK N   1      29.645  27.193  -6.407  0.00  0.00    -0.031 C 
BRANCH  11  12
HETATM   12  C   UNK N   1      28.386  27.982  -6.580  0.00  0.00     0.022 C 
HETATM   13  C   UNK N   1      28.730  29.422  -6.889  0.00  0.00     0.009 C 
ENDBRANCH  11  12
ENDBRANCH   9  10
ENDBRANCH   8   9
ENDBRANCH   6   7
ENDBRANCH   5   6
ENDBRANCH   3   4
ENDBRANCH   2   3
BRANCH   1  14
HETATM   14  C   UNK N   1      26.240  25.317  -4.327  0.00  0.00     0.053 C 
BRANCH  14  15
HETATM   15  C   UNK N   1      27.251  24.492  -5.065  0.00  0.00    -0.027 C 
HETATM   16  C   UNK N   1      28.194  23.776  -4.439  0.00  0.00    -0.030 C 
BRANCH  16  17
HETATM   17  C   UNK N   1      28.336  23.735  -2.945  0.00  0.00     0.027 C 
BRANCH  17  18
HETATM   18  C   UNK N   1      29.521  22.866  -2.547  0.00  0.00     0.014 C 
BRANCH  18  19
HETATM   19  C   UNK N   1      30.839  23.390  -3.102  0.00  0.00     0.110 C 
BRANCH  19  20
HETATM   20  C   UNK N   1      31.884  22.325  -3.201  0.00  0.00     0.139 C 
HETATM   21  O   UNK N   1      32.534  22.190  -4.227  0.00  0.00    -0.650 OA
BRANCH  20  22
HETATM   22  O   UNK N   1      32.097  21.501  -2.160  0.00  0.00    -0.776 OA
HETATM   23  H   UNK N   1      32.654  20.806  -1.868  0.00  0.00     0.167 HD
ENDBRANCH  20  22
ENDBRANCH  19  20
ENDBRANCH  18  19
ENDBRANCH  17  18
ENDBRANCH  16  17
ENDBRANCH  14  15
ENDBRANCH   1  14
TORSDOF 14
ENDMDL
MODEL 5
REMARK VINA RESULT:      -4.8      2.771      5.327
REMARK  14 active torsions:
REMARK  status: ('A' for Active; 'I' for Inactive)
REMARK    1  A    between atoms: C_1  and  C_3 
REMARK    2  A    between atoms: C_2  and  C_4 
REMARK    3  A    between atoms: C_3  and  C_5 
REMARK    4  A    between atoms: C_4  and  C_6 
REMARK    5  A    between atoms: C_7  and  C_9 
REMARK    6  A    between atoms: C_8  and  C_10 
REMARK    7  A    between atoms: C_9  and  C_11 
REMARK    8  A    between atoms: C_10  and  C_12 
REMARK    9  A    between atoms: C_11  and  C_13 
REMARK   10  A    between atoms: C_13  and  C_15 
REMARK   11  A    between atoms: C_14  and  C_16 
REMARK   12  A    between atoms: C_15  and  O_17 
REMARK   13  A    between atoms: C_16  and  C_19 
REMARK   14  A    between atoms: C_20  and  C_21 
ROOT
HETATM    1  C   UNK N   1      26.462  28.991  -4.137  0.00  0.00    -0.027 C 
HETATM    2  C   UNK N   1      27.792  28.890  -4.044  0.00  0.00    -0.027 C 
ENDROOT
BRANCH   2   3
HETATM    3  C   UNK N   1      28.471  27.589  -3.734  0.00  0.00     0.053 C 
BRANCH   3   4
HETATM    4  C   UNK N   1      28.825  26.843  -4.985  0.00  0.00    -0.027 C 
HETATM    5  C   UNK N   1      29.564  25.728  -4.991  0.00  0.00    -0.027 C 
BRANCH   5   6
HETATM    6  C   UNK N   1      30.136  25.127  -3.743  0.00  0.00     0.053 C 
BRANCH   6   7
HETATM    7  C   UNK N   1      29.162  24.153  -3.150  0.00  0.00    -0.027 C 
HETATM    8  C   UNK N   1      29.518  22.919  -2.771  0.00  0.00    -0.027 C 
BRANCH   8   9
HETATM    9  C   UNK N   1      30.912  22.407  -2.949  0.00  0.00     0.053 C 
BRANCH   9  10
HETATM   10  C   UNK N   1      30.881  21.041  -3.556  0.00  0.00    -0.027 C 
HETATM   11  C   UNK N   1      30.817  20.852  -4.877  0.00  0.00    -0.031 C 
BRANCH  11  12
HETATM   12  C   UNK N   1      30.772  21.992  -5.843  0.00  0.00     0.022 C 
HETATM   13  C   UNK N   1      29.405  22.057  -6.487  0.00  0.00     0.009 C 
ENDBRANCH  11  12
ENDBRANCH   9  10
ENDBRANCH   8   9
ENDBRANCH   6   7
ENDBRANCH   5   6
ENDBRANCH   3   4
ENDBRANCH   2   3
BRANCH   1  14
HETATM   14  C   UNK N   1      25.554  27.810  -3.984  0.00  0.00     0.053 C 
BRANCH  14  15
HETATM   15  C   UNK N   1      25.101  27.327  -5.330  0.00  0.00    -0.027 C 
HETATM   16  C   UNK N   1      25.134  26.035  -5.681  0.00  0.00    -0.030 C 
BRANCH  16  17
HETATM   17  C   UNK N   1      25.633  24.950  -4.773  0.00  0.00     0.027 C 
BRANCH  17  18
HETATM   18  C   UNK N   1      26.397  23.900  -5.568  0.00  0.00     0.014 C 
BRANCH  18  19
HETATM   19  C   UNK N   1      26.120  23.989  -7.063  0.00  0.00     0.110 C 
BRANCH  19  20
HETATM   20  C   UNK N   1      25.116  22.979  -7.521  0.00  0.00     0.139 C 
HETATM   21  O   UNK N   1      24.549  23.116  -8.595  0.00  0.00    -0.650 OA
BRANCH  20  22
HETATM   22  O   UNK N   1      24.825  21.925  -6.739  0.00  0.00    -0.776 OA
HETATM   23  H   UNK N   1      24.161  21.587  -6.171  0.00  0.00     0.167 HD
ENDBRANCH  20  22
ENDBRANCH  19  20
ENDBRANCH  18  19
ENDBRANCH  17  18
ENDBRANCH  16  17
ENDBRANCH  14  15
ENDBRANCH   1  14
TORSDOF 14
ENDMDL
MODEL 6
REMARK VINA RESULT:      -4.8      1.591      3.757
REMARK  14 active torsions:
REMARK  status: ('A' for Active; 'I' for Inactive)
REMARK    1  A    between atoms: C_1  and  C_3 
REMARK    2  A    between atoms: C_2  and  C_4 
REMARK    3  A    between atoms: C_3  and  C_5 
REMARK    4  A    between atoms: C_4  and  C_6 
REMARK    5  A    between atoms: C_7  and  C_9 
REMARK    6  A    between atoms: C_8  and  C_10 
REMARK    7  A    between atoms: C_9  and  C_11 
REMARK    8  A    between atoms: C_10  and  C_12 
REMARK    9  A    between atoms: C_11  and  C_13 
REMARK   10  A    between atoms: C_13  and  C_15 
REMARK   11  A    between atoms: C_14  and  C_16 
REMARK   12  A    between atoms: C_15  and  O_17 
REMARK   13  A    between atoms: C_16  and  C_19 
REMARK   14  A    between atoms: C_20  and  C_21 
ROOT
HETATM    1  C   UNK N   1      26.876  24.547  -7.372  0.00  0.00    -0.027 C 
HETATM    2  C   UNK N   1      26.043  25.567  -7.136  0.00  0.00    -0.027 C 
ENDROOT
BRANCH   2   3
HETATM    3  C   UNK N   1      25.315  25.714  -5.833  0.00  0.00     0.053 C 
BRANCH   3   4
HETATM    4  C   UNK N   1      24.880  27.130  -5.604  0.00  0.00    -0.027 C 
HETATM    5  C   UNK N   1      25.267  27.856  -4.548  0.00  0.00    -0.027 C 
BRANCH   5   6
HETATM    6  C   UNK N   1      26.157  27.311  -3.472  0.00  0.00     0.053 C 
BRANCH   6   7
HETATM    7  C   UNK N   1      27.410  28.128  -3.380  0.00  0.00    -0.027 C 
HETATM    8  C   UNK N   1      28.599  27.673  -3.793  0.00  0.00    -0.027 C 
BRANCH   8   9
HETATM    9  C   UNK N   1      28.770  26.293  -4.346  0.00  0.00     0.053 C 
BRANCH   9  10
HETATM   10  C   UNK N   1      29.507  26.353  -5.646  0.00  0.00    -0.027 C 
HETATM   11  C   UNK N   1      30.826  26.151  -5.725  0.00  0.00    -0.031 C 
BRANCH  11  12
HETATM   12  C   UNK N   1      31.660  25.853  -4.520  0.00  0.00     0.022 C 
HETATM   13  C   UNK N   1      32.738  24.857  -4.884  0.00  0.00     0.009 C 
ENDBRANCH  11  12
ENDBRANCH   9  10
ENDBRANCH   8   9
ENDBRANCH   6   7
ENDBRANCH   5   6
ENDBRANCH   3   4
ENDBRANCH   2   3
BRANCH   1  14
HETATM   14  C   UNK N   1      27.179  23.503  -6.343  0.00  0.00     0.053 C 
BRANCH  14  15
HETATM   15  C   UNK N   1      27.729  22.272  -7.000  0.00  0.00    -0.027 C 
HETATM   16  C   UNK N   1      28.999  21.879  -6.846  0.00  0.00    -0.030 C 
BRANCH  16  17
HETATM   17  C   UNK N   1      29.996  22.631  -6.012  0.00  0.00     0.027 C 
BRANCH  17  18
HETATM   18  C   UNK N   1      30.594  21.721  -4.947  0.00  0.00     0.014 C 
BRANCH  18  19
HETATM   19  C   UNK N   1      29.945  21.919  -3.583  0.00  0.00     0.110 C 
BRANCH  19  20
HETATM   20  C   UNK N   1      30.897  22.474  -2.571  0.00  0.00     0.139 C 
HETATM   21  O   UNK N   1      30.664  23.543  -2.026  0.00  0.00    -0.650 OA
BRANCH  20  22
HETATM   22  O   UNK N   1      32.022  21.800  -2.274  0.00  0.00    -0.776 OA
HETATM   23  H   UNK N   1      32.952  21.833  -2.377  0.00  0.00     0.167 HD
ENDBRANCH  20  22
ENDBRANCH  19  20
ENDBRANCH  18  19
ENDBRANCH  17  18
ENDBRANCH  16  17
ENDBRANCH  14  15
ENDBRANCH   1  14
TORSDOF 14
ENDMDL
MODEL 7
REMARK VINA RESULT:      -4.8      1.272      3.451
REMARK  14 active torsions:
REMARK  status: ('A' for Active; 'I' for Inactive)
REMARK    1  A    between atoms: C_1  and  C_3 
REMARK    2  A    between atoms: C_2  and  C_4 
REMARK    3  A    between atoms: C_3  and  C_5 
REMARK    4  A    between atoms: C_4  and  C_6 
REMARK    5  A    between atoms: C_7  and  C_9 
REMARK    6  A    between atoms: C_8  and  C_10 
REMARK    7  A    between atoms: C_9  and  C_11 
REMARK    8  A    between atoms: C_10  and  C_12 
REMARK    9  A    between atoms: C_11  and  C_13 
REMARK   10  A    between atoms: C_13  and  C_15 
REMARK   11  A    between atoms: C_14  and  C_16 
REMARK   12  A    between atoms: C_15  and  O_17 
REMARK   13  A    between atoms: C_16  and  C_19 
REMARK   14  A    between atoms: C_20  and  C_21 
ROOT
HETATM    1  C   UNK N   1      26.997  24.476  -7.061  0.00  0.00    -0.027 C 
HETATM    2  C   UNK N   1      25.896  25.232  -6.989  0.00  0.00    -0.027 C 
ENDROOT
BRANCH   2   3
HETATM    3  C   UNK N   1      25.230  25.545  -5.681  0.00  0.00     0.053 C 
BRANCH   3   4
HETATM    4  C   UNK N   1      24.854  26.994  -5.591  0.00  0.00    -0.027 C 
HETATM    5  C   UNK N   1      25.369  27.830  -4.682  0.00  0.00    -0.027 C 
BRANCH   5   6
HETATM    6  C   UNK N   1      26.358  27.392  -3.645  0.00  0.00     0.053 C 
BRANCH   6   7
HETATM    7  C   UNK N   1      26.905  28.585  -2.921  0.00  0.00    -0.027 C 
HETATM    8  C   UNK N   1      28.124  29.082  -3.166  0.00  0.00    -0.027 C 
BRANCH   8   9
HETATM    9  C   UNK N   1      29.048  28.454  -4.160  0.00  0.00     0.053 C 
BRANCH   9  10
HETATM   10  C   UNK N   1      29.546  29.490  -5.118  0.00  0.00    -0.027 C 
HETATM   11  C   UNK N   1      29.006  29.654  -6.330  0.00  0.00    -0.031 C 
BRANCH  11  12
HETATM   12  C   UNK N   1      27.868  28.814  -6.816  0.00  0.00     0.022 C 
HETATM   13  C   UNK N   1      28.352  27.889  -7.910  0.00  0.00     0.009 C 
ENDBRANCH  11  12
ENDBRANCH   9  10
ENDBRANCH   8   9
ENDBRANCH   6   7
ENDBRANCH   5   6
ENDBRANCH   3   4
ENDBRANCH   2   3
BRANCH   1  14
HETATM   14  C   UNK N   1      27.672  23.924  -5.844  0.00  0.00     0.053 C 
BRANCH  14  15
HETATM   15  C   UNK N   1      28.619  24.937  -5.272  0.00  0.00    -0.027 C 
HETATM   16  C   UNK N   1      29.148  24.821  -4.048  0.00  0.00    -0.030 C 
BRANCH  16  17
HETATM   17  C   UNK N   1      28.841  23.676  -3.127  0.00  0.00     0.027 C 
BRANCH  17  18
HETATM   18  C   UNK N   1      30.127  23.087  -2.563  0.00  0.00     0.014 C 
BRANCH  18  19
HETATM   19  C   UNK N   1      30.484  21.752  -3.205  0.00  0.00     0.110 C 
BRANCH  19  20
HETATM   20  C   UNK N   1      31.955  21.482  -3.184  0.00  0.00     0.139 C 
HETATM   21  O   UNK N   1      32.589  21.435  -4.228  0.00  0.00    -0.650 OA
BRANCH  20  22
HETATM   22  O   UNK N   1      32.579  21.274  -2.011  0.00  0.00    -0.776 OA
HETATM   23  H   UNK N   1      32.561  21.528  -1.109  0.00  0.00     0.167 HD
ENDBRANCH  20  22
ENDBRANCH  19  20
ENDBRANCH  18  19
ENDBRANCH  17  18
ENDBRANCH  16  17
ENDBRANCH  14  15
ENDBRANCH   1  14
TORSDOF 14
ENDMDL
MODEL 8
REMARK VINA RESULT:      -4.8      3.001      4.136
REMARK  14 active torsions:
REMARK  status: ('A' for Active; 'I' for Inactive)
REMARK    1  A    between atoms: C_1  and  C_3 
REMARK    2  A    between atoms: C_2  and  C_4 
REMARK    3  A    between atoms: C_3  and  C_5 
REMARK    4  A    between atoms: C_4  and  C_6 
REMARK    5  A    between atoms: C_7  and  C_9 
REMARK    6  A    between atoms: C_8  and  C_10 
REMARK    7  A    between atoms: C_9  and  C_11 
REMARK    8  A    between atoms: C_10  and  C_12 
REMARK    9  A    between atoms: C_11  and  C_13 
REMARK   10  A    between atoms: C_13  and  C_15 
REMARK   11  A    between atoms: C_14  and  C_16 
REMARK   12  A    between atoms: C_15  and  O_17 
REMARK   13  A    between atoms: C_16  and  C_19 
REMARK   14  A    between atoms: C_20  and  C_21 
ROOT
HETATM    1  C   UNK N   1      30.301  26.172  -3.738  0.00  0.00    -0.027 C 
HETATM    2  C   UNK N   1      30.506  27.491  -3.666  0.00  0.00    -0.027 C 
ENDROOT
BRANCH   2   3
HETATM    3  C   UNK N   1      29.426  28.483  -3.984  0.00  0.00     0.053 C 
BRANCH   3   4
HETATM    4  C   UNK N   1      28.893  29.130  -2.741  0.00  0.00    -0.027 C 
HETATM    5  C   UNK N   1      27.598  29.414  -2.559  0.00  0.00    -0.027 C 
BRANCH   5   6
HETATM    6  C   UNK N   1      26.553  29.136  -3.596  0.00  0.00     0.053 C 
BRANCH   6   7
HETATM    7  C   UNK N   1      25.991  27.760  -3.402  0.00  0.00    -0.027 C 
HETATM    8  C   UNK N   1      25.553  27.009  -4.421  0.00  0.00    -0.027 C 
BRANCH   8   9
HETATM    9  C   UNK N   1      25.557  27.509  -5.831  0.00  0.00     0.053 C 
BRANCH   9  10
HETATM   10  C   UNK N   1      26.874  27.209  -6.474  0.00  0.00    -0.027 C 
HETATM   11  C   UNK N   1      26.963  26.583  -7.651  0.00  0.00    -0.031 C 
BRANCH  11  12
HETATM   12  C   UNK N   1      25.754  26.137  -8.410  0.00  0.00     0.022 C 
HETATM   13  C   UNK N   1      26.162  25.689  -9.796  0.00  0.00     0.009 C 
ENDBRANCH  11  12
ENDBRANCH   9  10
ENDBRANCH   8   9
ENDBRANCH   6   7
ENDBRANCH   5   6
ENDBRANCH   3   4
ENDBRANCH   2   3
BRANCH   1  14
HETATM   14  C   UNK N   1      28.971  25.584  -4.094  0.00  0.00     0.053 C 
BRANCH  14  15
HETATM   15  C   UNK N   1      29.133  24.545  -5.163  0.00  0.00    -0.027 C 
HETATM   16  C   UNK N   1      28.136  23.735  -5.539  0.00  0.00    -0.030 C 
BRANCH  16  17
HETATM   17  C   UNK N   1      26.767  23.779  -4.925  0.00  0.00     0.027 C 
BRANCH  17  18
HETATM   18  C   UNK N   1      25.706  23.441  -5.964  0.00  0.00     0.014 C 
BRANCH  18  19
HETATM   19  C   UNK N   1      26.266  22.622  -7.120  0.00  0.00     0.110 C 
BRANCH  19  20
HETATM   20  C   UNK N   1      25.219  21.798  -7.799  0.00  0.00     0.139 C 
HETATM   21  O   UNK N   1      25.412  20.612  -8.019  0.00  0.00    -0.650 OA
BRANCH  20  22
HETATM   22  O   UNK N   1      24.065  22.372  -8.183  0.00  0.00    -0.776 OA
HETATM   23  H   UNK N   1      23.578  22.615  -8.945  0.00  0.00     0.167 HD
ENDBRANCH  20  22
ENDBRANCH  19  20
ENDBRANCH  18  19
ENDBRANCH  17  18
ENDBRANCH  16  17
ENDBRANCH  14  15
ENDBRANCH   1  14
TORSDOF 14
ENDMDL
MODEL 9
REMARK VINA RESULT:      -4.7      1.632      3.374
REMARK  14 active torsions:
REMARK  status: ('A' for Active; 'I' for Inactive)
REMARK    1  A    between atoms: C_1  and  C_3 
REMARK    2  A    between atoms: C_2  and  C_4 
REMARK    3  A    between atoms: C_3  and  C_5 
REMARK    4  A    between atoms: C_4  and  C_6 
REMARK    5  A    between atoms: C_7  and  C_9 
REMARK    6  A    between atoms: C_8  and  C_10 
REMARK    7  A    between atoms: C_9  and  C_11 
REMARK    8  A    between atoms: C_10  and  C_12 
REMARK    9  A    between atoms: C_11  and  C_13 
REMARK   10  A    between atoms: C_13  and  C_15 
REMARK   11  A    between atoms: C_14  and  C_16 
REMARK   12  A    between atoms: C_15  and  O_17 
REMARK   13  A    between atoms: C_16  and  C_19 
REMARK   14  A    between atoms: C_20  and  C_21 
ROOT
HETATM    1  C   UNK N   1      26.290  26.843  -3.112  0.00  0.00    -0.027 C 
HETATM    2  C   UNK N   1      25.869  28.061  -3.467  0.00  0.00    -0.027 C 
ENDROOT
BRANCH   2   3
HETATM    3  C   UNK N   1      26.194  28.657  -4.805  0.00  0.00     0.053 C 
BRANCH   3   4
HETATM    4  C   UNK N   1      27.528  29.342  -4.791  0.00  0.00    -0.027 C 
HETATM    5  C   UNK N   1      28.322  29.426  -5.864  0.00  0.00    -0.027 C 
BRANCH   5   6
HETATM    6  C   UNK N   1      27.965  28.818  -7.187  0.00  0.00     0.053 C 
BRANCH   6   7
HETATM    7  C   UNK N   1      28.590  27.462  -7.313  0.00  0.00    -0.027 C 
HETATM    8  C   UNK N   1      27.881  26.365  -7.606  0.00  0.00    -0.027 C 
BRANCH   8   9
HETATM    9  C   UNK N   1      26.397  26.409  -7.792  0.00  0.00     0.053 C 
BRANCH   9  10
HETATM   10  C   UNK N   1      25.914  25.105  -8.344  0.00  0.00    -0.027 C 
HETATM   11  C   UNK N   1      25.346  25.011  -9.550  0.00  0.00    -0.031 C 
BRANCH  11  12
HETATM   12  C   UNK N   1      25.153  26.200 -10.435  0.00  0.00     0.022 C 
HETATM   13  C   UNK N   1      26.147  26.152 -11.573  0.00  0.00     0.009 C 
ENDBRANCH  11  12
ENDBRANCH   9  10
ENDBRANCH   8   9
ENDBRANCH   6   7
ENDBRANCH   5   6
ENDBRANCH   3   4
ENDBRANCH   2   3
BRANCH   1  14
HETATM   14  C   UNK N   1      27.077  25.965  -4.035  0.00  0.00     0.053 C 
BRANCH  14  15
HETATM   15  C   UNK N   1      26.298  24.725  -4.359  0.00  0.00    -0.027 C 
HETATM   16  C   UNK N   1      26.825  23.700  -5.041  0.00  0.00    -0.030 C 
BRANCH  16  17
HETATM   17  C   UNK N   1      28.235  23.694  -5.554  0.00  0.00     0.027 C 
BRANCH  17  18
HETATM   18  C   UNK N   1      29.130  22.863  -4.644  0.00  0.00     0.014 C 
BRANCH  18  19
HETATM   19  C   UNK N   1      29.771  23.696  -3.542  0.00  0.00     0.110 C 
BRANCH  19  20
HETATM   20  C   UNK N   1      29.445  23.185  -2.174  0.00  0.00     0.139 C 
HETATM   21  O   UNK N   1      28.283  22.995  -1.846  0.00  0.00    -0.650 OA
BRANCH  20  22
HETATM   22  O   UNK N   1      30.437  22.949  -1.297  0.00  0.00    -0.776 OA
HETATM   23  H   UNK N   1      31.054  23.386  -0.743  0.00  0.00     0.167 HD
ENDBRANCH  20  22
ENDBRANCH  19  20
ENDBRANCH  18  19
ENDBRANCH  17  18
ENDBRANCH  16  17
ENDBRANCH  14  15
ENDBRANCH   1  14
TORSDOF 14
ENDMDL
