REMARK  13 active torsions:
REMARK  status: ('A' for Active; 'I' for Inactive)
REMARK    1  A    between atoms: O_1  and  C_24 
REMARK    2  A    between atoms: O_3  and  C_28 
REMARK    3  A    between atoms: O_5  and  C_51 
REMARK    4  A    between atoms: O_7  and  C_54 
REMARK    5  A    between atoms: C_16  and  C_24 
REMARK    6  A    between atoms: C_20  and  C_28 
REMARK    7  A    between atoms: C_31  and  C_34 
REMARK    8  A    between atoms: C_34  and  C_42 
REMARK    9  A    between atoms: C_37  and  C_49 
REMARK   10  A    between atoms: C_41  and  C_47 
REMARK   11  A    between atoms: C_42  and  C_51 
REMARK   12  A    between atoms: C_47  and  C_52 
REMARK   13  A    between atoms: C_52  and  C_54 
ROOT
HETATM    1  N   UNK N   1       8.257   1.413  -0.080  0.00  0.00    -0.358 N 
ATOM      2  HN  UNK N   1       8.318   0.395  -0.057  1.00  0.00     0.166 HD
HETATM    3  N   UNK N   1       6.343  -0.761   0.506  0.00  0.00    -0.355 N 
HETATM    4  N   UNK N   1      10.314  -0.572  -0.373  0.00  0.00    -0.355 N 
HETATM    5  N   UNK N   1       8.418  -2.705   0.182  0.00  0.00    -0.355 N 
ATOM      6  HN  UNK N   1       8.343  -1.696   0.049  1.00  0.00     0.166 HD
HETATM    7  C   UNK N   1       7.326   3.644   0.080  0.00  0.00     0.045 A 
HETATM    8  C   UNK N   1       6.676   4.549  -0.976  0.00  0.00     0.143 C 
HETATM    9  C   UNK N   1       8.785   3.605  -0.235  0.00  0.00    -0.016 A 
HETATM   10  C   UNK N   1       7.066   2.170   0.072  0.00  0.00     0.026 A 
HETATM   11  C   UNK N   1       7.099   4.180   1.500  0.00  0.00     0.028 C 
HETATM   12  C   UNK N   1       7.304   5.953  -0.791  0.00  0.00     0.032 C 
HETATM   13  C   UNK N   1       9.242   2.214  -0.251  0.00  0.00     0.042 A 
HETATM   14  C   UNK N   1       9.456   4.729  -0.539  0.00  0.00     0.011 C 
HETATM   15  C   UNK N   1       8.659   5.996  -0.620  0.00  0.00     0.015 C 
HETATM   16  C   UNK N   1       5.858   1.683   0.371  0.00  0.00     0.056 C 
HETATM   17  C   UNK N   1      10.656   1.794  -0.392  0.00  0.00     0.060 C 
HETATM   18  C   UNK N   1       5.504   0.288   0.605  0.00  0.00     0.041 A 
HETATM   19  C   UNK N   1       4.272  -0.111   1.077  0.00  0.00    -0.027 A 
HETATM   20  C   UNK N   1      11.098   0.526  -0.427  0.00  0.00     0.041 A 
HETATM   21  C   UNK N   1       4.353  -1.467   1.281  0.00  0.00    -0.023 A 
HETATM   22  C   UNK N   1       5.636  -1.836   0.917  0.00  0.00     0.041 A 
HETATM   23  C   UNK N   1      12.436   0.169  -0.494  0.00  0.00    -0.023 A 
HETATM   24  C   UNK N   1       3.109   0.779   1.358  0.00  0.00     0.051 C 
HETATM   25  C   UNK N   1      11.157  -1.633  -0.427  0.00  0.00     0.045 A 
HETATM   26  C   UNK N   1      12.470  -1.212  -0.497  0.00  0.00    -0.002 A 
HETATM   27  C   UNK N   1       6.166  -3.201   1.009  0.00  0.00     0.060 C 
HETATM   28  C   UNK N   1       7.406  -3.565   0.663  0.00  0.00     0.041 A 
HETATM   29  C   UNK N   1       7.949  -4.922   0.738  0.00  0.00    -0.023 A 
HETATM   30  C   UNK N   1      10.800  -2.915  -0.338  0.00  0.00     0.060 C 
HETATM   31  C   UNK N   1       9.451  -3.432  -0.058  0.00  0.00     0.041 A 
HETATM   32  C   UNK N   1      13.603   1.099  -0.510  0.00  0.00     0.051 C 
HETATM   33  C   UNK N   1       9.188  -4.843   0.265  0.00  0.00    -0.027 A 
HETATM   34  C   UNK N   1      10.163  -5.970   0.158  0.00  0.00     0.051 C 
HETATM   35  H   UNK N   1       7.278  -0.747   0.198  0.00  0.00     0.166 HD
HETATM   36  H   UNK N   1       9.332  -0.598  -0.308  0.00  0.00     0.166 HD
ENDROOT
BRANCH  21  37
HETATM   37  C   UNK N   1       3.311  -2.384   1.860  0.00  0.00     0.051 C 
BRANCH  37  38
HETATM   38  C   UNK N   1       1.870  -2.138   1.408  0.00  0.00     0.116 C 
BRANCH  38  39
HETATM   39  C   UNK N   1       1.684  -2.146  -0.085  0.00  0.00     0.258 C 
HETATM   40  O   UNK N   1       2.155  -3.059  -0.743  0.00  0.00    -0.265 OA
BRANCH  39  41
HETATM   41  O   UNK N   1       0.964  -1.181  -0.709  0.00  0.00    -0.326 OA
HETATM   42  C   UNK N   1       0.306  -0.183  -0.028  0.00  0.00     0.213 C 
ENDBRANCH  39  41
ENDBRANCH  38  39
ENDBRANCH  37  38
ENDBRANCH  21  37
BRANCH  29  43
HETATM   43  C   UNK N   1       7.311  -6.165   1.297  0.00  0.00     0.052 C 
BRANCH  43  44
HETATM   44  C   UNK N   1       5.809  -6.218   1.064  0.00  0.00     0.115 C 
BRANCH  44  45
HETATM   45  C   UNK N   1       5.457  -6.450  -0.371  0.00  0.00     0.139 C 
HETATM   46  O   UNK N   1       4.286  -6.426  -0.710  0.00  0.00    -0.650 OA
BRANCH  45  47
HETATM   47  O   UNK N   1       6.414  -6.682  -1.292  0.00  0.00    -0.776 OA
HETATM   48  H   UNK N   1       6.607  -7.339  -1.932  0.00  0.00     0.167 HD
ENDBRANCH  45  47
ENDBRANCH  44  45
ENDBRANCH  43  44
ENDBRANCH  29  43
BRANCH   8  49
HETATM   49  C   UNK N   1       5.175   4.424  -0.996  0.00  0.00     0.268 C 
HETATM   50  O   UNK N   1       4.622   4.060  -2.025  0.00  0.00    -0.264 OA
BRANCH  49  51
HETATM   51  O   UNK N   1       4.457   4.647   0.132  0.00  0.00    -0.326 OA
HETATM   52  C   UNK N   1       3.101   4.425   0.197  0.00  0.00     0.213 C 
ENDBRANCH  49  51
ENDBRANCH   8  49
BRANCH  12  53
HETATM   53  C   UNK N   1       6.472   7.213  -0.724  0.00  0.00     0.289 C 
HETATM   54  O   UNK N   1       5.279   7.145  -0.967  0.00  0.00    -0.260 OA
BRANCH  53  55
HETATM   55  O   UNK N   1       6.974   8.435  -0.386  0.00  0.00    -0.323 OA
HETATM   56  C   UNK N   1       8.255   8.695   0.039  0.00  0.00     0.213 C 
ENDBRANCH  53  55
ENDBRANCH  12  53
BRANCH  26  57
HETATM   57  C   UNK N   1      13.646  -2.114  -0.488  0.00  0.00     0.004 C 
HETATM   58  C   UNK N   1      14.894  -1.669  -0.363  0.00  0.00     0.012 C 
ENDBRANCH  26  57
TORSDOF 13
