MODEL 1
REMARK VINA RESULT:      -6.2      0.000      0.000
REMARK  2 active torsions:
REMARK  status: ('A' for Active; 'I' for Inactive)
REMARK    1  A    between atoms: C_5  and  C_3 
REMARK    2  A    between atoms: C_5  and  C_4 
ROOT
HETATM    1  C   UNK N   1      34.774  11.760  15.159  0.00  0.00     0.066 C 
HETATM    2  C   UNK N   1      33.644  10.880  14.636  0.00  0.00     0.021 C 
ENDROOT
BRANCH   1   3
HETATM    3  C   UNK N   1      35.004  12.000  16.655  0.00  0.00    -0.042 A 
HETATM    4  C   UNK N   1      35.318  10.968  17.589  0.00  0.00    -0.049 A 
HETATM    5  C   UNK N   1      35.512  11.298  18.951  0.00  0.00    -0.056 A 
HETATM    6  C   UNK N   1      35.444   9.536  17.174  0.00  0.00     0.049 C 
HETATM    7  C   UNK N   1      35.399  12.620  19.379  0.00  0.00     0.007 A 
HETATM    8  C   UNK N   1      35.835  10.253  19.966  0.00  0.00     0.049 C 
HETATM    9  C   UNK N   1      35.094  13.626  18.473  0.00  0.00     0.001 A 
HETATM   10  C   UNK N   1      34.898  13.314  17.132  0.00  0.00     0.008 A 
ENDBRANCH   1   3
BRANCH   1  11
HETATM   11  C   UNK N   1      35.709  12.337  14.115  0.00  0.00     0.033 A 
HETATM   12  N   UNK N   1      35.423  13.382  13.323  0.00  0.00    -0.354 N 
HETATM   13  C   UNK N   1      36.516  13.560  12.557  0.00  0.00     0.180 A 
ATOM     14  HN  UNK N   1      34.561  13.926  13.304  1.00  0.00     0.166 HD
HETATM   15  N   UNK N   1      37.476  12.659  12.845  0.00  0.00    -0.360 N 
HETATM   16  C   UNK N   1      36.976  11.882  13.826  0.00  0.00     0.114 A 
HETATM   17  H   UNK N   1      38.364  12.582  12.424  0.00  0.00     0.166 HD
ENDBRANCH   1  11
TORSDOF 2
ENDMDL
MODEL 2
REMARK VINA RESULT:      -6.1      1.729      3.240
REMARK  2 active torsions:
REMARK  status: ('A' for Active; 'I' for Inactive)
REMARK    1  A    between atoms: C_5  and  C_3 
REMARK    2  A    between atoms: C_5  and  C_4 
ROOT
HETATM    1  C   UNK N   1      36.619  13.842  14.814  0.00  0.00     0.066 C 
HETATM    2  C   UNK N   1      37.226  15.036  15.541  0.00  0.00     0.021 C 
ENDROOT
BRANCH   1   3
HETATM    3  C   UNK N   1      36.599  12.435  15.419  0.00  0.00    -0.042 A 
HETATM    4  C   UNK N   1      35.804  12.061  16.543  0.00  0.00    -0.049 A 
HETATM    5  C   UNK N   1      35.858  10.732  17.024  0.00  0.00    -0.056 A 
HETATM    6  C   UNK N   1      34.911  13.039  17.240  0.00  0.00     0.049 C 
HETATM    7  C   UNK N   1      36.681   9.792  16.405  0.00  0.00     0.007 A 
HETATM    8  C   UNK N   1      35.050  10.297  18.200  0.00  0.00     0.049 C 
HETATM    9  C   UNK N   1      37.456  10.151  15.310  0.00  0.00     0.001 A 
HETATM   10  C   UNK N   1      37.413  11.455  14.831  0.00  0.00     0.008 A 
ENDBRANCH   1   3
BRANCH   1  11
HETATM   11  C   UNK N   1      35.971  14.134  13.475  0.00  0.00     0.033 A 
HETATM   12  N   UNK N   1      36.278  15.175  12.685  0.00  0.00    -0.354 N 
HETATM   13  C   UNK N   1      35.477  15.055  11.609  0.00  0.00     0.180 A 
ATOM     14  HN  UNK N   1      36.970  15.902  12.862  1.00  0.00     0.166 HD
HETATM   15  N   UNK N   1      34.679  13.972  11.702  0.00  0.00    -0.360 N 
HETATM   16  C   UNK N   1      34.983  13.386  12.876  0.00  0.00     0.114 A 
HETATM   17  H   UNK N   1      34.009  13.671  11.045  0.00  0.00     0.166 HD
ENDBRANCH   1  11
TORSDOF 2
ENDMDL
MODEL 3
REMARK VINA RESULT:      -6.1      2.056      4.164
REMARK  2 active torsions:
REMARK  status: ('A' for Active; 'I' for Inactive)
REMARK    1  A    between atoms: C_5  and  C_3 
REMARK    2  A    between atoms: C_5  and  C_4 
ROOT
HETATM    1  C   UNK N   1      36.214  13.241  12.222  0.00  0.00     0.066 C 
HETATM    2  C   UNK N   1      37.509  12.700  11.630  0.00  0.00     0.021 C 
ENDROOT
BRANCH   1   3
HETATM    3  C   UNK N   1      35.508  12.570  13.405  0.00  0.00    -0.042 A 
HETATM    4  C   UNK N   1      35.717  12.933  14.769  0.00  0.00    -0.049 A 
HETATM    5  C   UNK N   1      35.014  12.249  15.788  0.00  0.00    -0.056 A 
HETATM    6  C   UNK N   1      36.669  14.019  15.162  0.00  0.00     0.049 C 
HETATM    7  C   UNK N   1      34.121  11.228  15.464  0.00  0.00     0.007 A 
HETATM    8  C   UNK N   1      35.204  12.589  17.228  0.00  0.00     0.049 C 
HETATM    9  C   UNK N   1      33.915  10.872  14.138  0.00  0.00     0.001 A 
HETATM   10  C   UNK N   1      34.603  11.535  13.129  0.00  0.00     0.008 A 
ENDBRANCH   1   3
BRANCH   1  11
HETATM   11  C   UNK N   1      35.688  14.528  11.618  0.00  0.00     0.033 A 
HETATM   12  N   UNK N   1      36.412  15.645  11.444  0.00  0.00    -0.354 N 
HETATM   13  C   UNK N   1      35.568  16.533  10.884  0.00  0.00     0.180 A 
ATOM     14  HN  UNK N   1      37.392  15.790  11.685  1.00  0.00     0.166 HD
HETATM   15  N   UNK N   1      34.341  16.007  10.703  0.00  0.00    -0.360 N 
HETATM   16  C   UNK N   1      34.406  14.742  11.165  0.00  0.00     0.114 A 
HETATM   17  H   UNK N   1      33.555  16.455  10.314  0.00  0.00     0.166 HD
ENDBRANCH   1  11
TORSDOF 2
ENDMDL
MODEL 4
REMARK VINA RESULT:      -6.0     13.422     15.434
REMARK  2 active torsions:
REMARK  status: ('A' for Active; 'I' for Inactive)
REMARK    1  A    between atoms: C_5  and  C_3 
REMARK    2  A    between atoms: C_5  and  C_4 
ROOT
HETATM    1  C   UNK N   1      21.531  13.510   8.215  0.00  0.00     0.066 C 
HETATM    2  C   UNK N   1      21.053  12.588   7.100  0.00  0.00     0.021 C 
ENDROOT
BRANCH   1   3
HETATM    3  C   UNK N   1      22.552  13.066   9.267  0.00  0.00    -0.042 A 
HETATM    4  C   UNK N   1      22.203  12.580  10.562  0.00  0.00    -0.049 A 
HETATM    5  C   UNK N   1      23.224  12.194  11.461  0.00  0.00    -0.056 A 
HETATM    6  C   UNK N   1      20.778  12.468  11.008  0.00  0.00     0.049 C 
HETATM    7  C   UNK N   1      24.564  12.287  11.086  0.00  0.00     0.007 A 
HETATM    8  C   UNK N   1      22.908  11.686  12.828  0.00  0.00     0.049 C 
HETATM    9  C   UNK N   1      24.909  12.759   9.827  0.00  0.00     0.001 A 
HETATM   10  C   UNK N   1      23.913  13.144   8.936  0.00  0.00     0.008 A 
ENDBRANCH   1   3
BRANCH   1  11
HETATM   11  C   UNK N   1      20.991  14.926   8.190  0.00  0.00     0.033 A 
HETATM   12  N   UNK N   1      20.058  15.405   9.027  0.00  0.00    -0.354 N 
HETATM   13  C   UNK N   1      19.874  16.688   8.661  0.00  0.00     0.180 A 
ATOM     14  HN  UNK N   1      19.588  14.904   9.781  1.00  0.00     0.166 HD
HETATM   15  N   UNK N   1      20.662  17.025   7.620  0.00  0.00    -0.360 N 
HETATM   16  C   UNK N   1      21.369  15.919   7.316  0.00  0.00     0.114 A 
HETATM   17  H   UNK N   1      20.711  17.901   7.173  0.00  0.00     0.166 HD
ENDBRANCH   1  11
TORSDOF 2
ENDMDL
MODEL 5
REMARK VINA RESULT:      -6.0      3.760      6.139
REMARK  2 active torsions:
REMARK  status: ('A' for Active; 'I' for Inactive)
REMARK    1  A    between atoms: C_5  and  C_3 
REMARK    2  A    between atoms: C_5  and  C_4 
ROOT
HETATM    1  C   UNK N   1      35.394  10.820  20.220  0.00  0.00     0.066 C 
HETATM    2  C   UNK N   1      36.733  10.401  20.816  0.00  0.00     0.021 C 
ENDROOT
BRANCH   1   3
HETATM    3  C   UNK N   1      35.287  11.602  18.907  0.00  0.00    -0.042 A 
HETATM    4  C   UNK N   1      35.213  10.994  17.619  0.00  0.00    -0.049 A 
HETATM    5  C   UNK N   1      35.117  11.809  16.467  0.00  0.00    -0.056 A 
HETATM    6  C   UNK N   1      35.240   9.508  17.443  0.00  0.00     0.049 C 
HETATM    7  C   UNK N   1      35.093  13.198  16.588  0.00  0.00     0.007 A 
HETATM    8  C   UNK N   1      35.043  11.219  15.100  0.00  0.00     0.049 C 
HETATM    9  C   UNK N   1      35.165  13.795  17.839  0.00  0.00     0.001 A 
HETATM   10  C   UNK N   1      35.263  13.003  18.978  0.00  0.00     0.008 A 
ENDBRANCH   1   3
BRANCH   1  11
HETATM   11  C   UNK N   1      34.157  10.360  20.965  0.00  0.00     0.033 A 
HETATM   12  N   UNK N   1      33.571  11.033  21.968  0.00  0.00    -0.354 N 
HETATM   13  C   UNK N   1      32.518  10.279  22.337  0.00  0.00     0.180 A 
ATOM     14  HN  UNK N   1      33.861  11.926  22.365  1.00  0.00     0.166 HD
HETATM   15  N   UNK N   1      32.428   9.156  21.598  0.00  0.00    -0.360 N 
HETATM   16  C   UNK N   1      33.458   9.197  20.731  0.00  0.00     0.114 A 
HETATM   17  H   UNK N   1      31.748   8.447  21.676  0.00  0.00     0.166 HD
ENDBRANCH   1  11
TORSDOF 2
ENDMDL
MODEL 6
REMARK VINA RESULT:      -5.8      7.817     11.023
REMARK  2 active torsions:
REMARK  status: ('A' for Active; 'I' for Inactive)
REMARK    1  A    between atoms: C_5  and  C_3 
REMARK    2  A    between atoms: C_5  and  C_4 
ROOT
HETATM    1  C   UNK N   1      32.780  17.388   8.446  0.00  0.00     0.066 C 
HETATM    2  C   UNK N   1      33.888  18.294   7.923  0.00  0.00     0.021 C 
ENDROOT
BRANCH   1   3
HETATM    3  C   UNK N   1      31.302  17.624   8.120  0.00  0.00    -0.042 A 
HETATM    4  C   UNK N   1      30.662  17.155   6.934  0.00  0.00    -0.049 A 
HETATM    5  C   UNK N   1      29.289  17.427   6.729  0.00  0.00    -0.056 A 
HETATM    6  C   UNK N   1      31.402  16.382   5.888  0.00  0.00     0.049 C 
HETATM    7  C   UNK N   1      28.565  18.148   7.677  0.00  0.00     0.007 A 
HETATM    8  C   UNK N   1      28.579  16.963   5.502  0.00  0.00     0.049 C 
HETATM    9  C   UNK N   1      29.184  18.606   8.832  0.00  0.00     0.001 A 
HETATM   10  C   UNK N   1      30.533  18.347   9.044  0.00  0.00     0.008 A 
ENDBRANCH   1   3
BRANCH   1  11
HETATM   11  C   UNK N   1      33.226  16.189   9.259  0.00  0.00     0.033 A 
HETATM   12  N   UNK N   1      34.157  16.221  10.226  0.00  0.00    -0.354 N 
HETATM   13  C   UNK N   1      34.242  14.957  10.682  0.00  0.00     0.180 A 
ATOM     14  HN  UNK N   1      34.687  17.031  10.547  1.00  0.00     0.166 HD
HETATM   15  N   UNK N   1      33.395  14.136  10.031  0.00  0.00    -0.360 N 
HETATM   16  C   UNK N   1      32.750  14.904   9.130  0.00  0.00     0.114 A 
HETATM   17  H   UNK N   1      33.271  13.170  10.181  0.00  0.00     0.166 HD
ENDBRANCH   1  11
TORSDOF 2
ENDMDL
MODEL 7
REMARK VINA RESULT:      -5.7     27.334     28.697
REMARK  2 active torsions:
REMARK  status: ('A' for Active; 'I' for Inactive)
REMARK    1  A    between atoms: C_5  and  C_3 
REMARK    2  A    between atoms: C_5  and  C_4 
ROOT
HETATM    1  C   UNK N   1      26.244  25.860  -8.164  0.00  0.00     0.066 C 
HETATM    2  C   UNK N   1      25.602  26.085  -9.528  0.00  0.00     0.021 C 
ENDROOT
BRANCH   1   3
HETATM    3  C   UNK N   1      26.729  27.016  -7.283  0.00  0.00    -0.042 A 
HETATM    4  C   UNK N   1      26.115  27.392  -6.051  0.00  0.00    -0.049 A 
HETATM    5  C   UNK N   1      26.643  28.478  -5.313  0.00  0.00    -0.056 A 
HETATM    6  C   UNK N   1      24.918  26.674  -5.512  0.00  0.00     0.049 C 
HETATM    7  C   UNK N   1      27.754  29.175  -5.783  0.00  0.00     0.007 A 
HETATM    8  C   UNK N   1      26.031  28.911  -4.023  0.00  0.00     0.049 C 
HETATM    9  C   UNK N   1      28.354  28.813  -6.981  0.00  0.00     0.001 A 
HETATM   10  C   UNK N   1      27.843  27.750  -7.717  0.00  0.00     0.008 A 
ENDBRANCH   1   3
BRANCH   1  11
HETATM   11  C   UNK N   1      26.319  24.423  -7.689  0.00  0.00     0.033 A 
HETATM   12  N   UNK N   1      25.260  23.615  -7.521  0.00  0.00    -0.354 N 
HETATM   13  C   UNK N   1      25.770  22.443  -7.094  0.00  0.00     0.180 A 
ATOM     14  HN  UNK N   1      24.279  23.839  -7.683  1.00  0.00     0.166 HD
HETATM   15  N   UNK N   1      27.112  22.494  -6.988  0.00  0.00    -0.360 N 
HETATM   16  C   UNK N   1      27.468  23.740  -7.360  0.00  0.00     0.114 A 
HETATM   17  H   UNK N   1      27.713  21.769  -6.697  0.00  0.00     0.166 HD
ENDBRANCH   1  11
TORSDOF 2
ENDMDL
MODEL 8
REMARK VINA RESULT:      -5.7     25.407     28.026
REMARK  2 active torsions:
REMARK  status: ('A' for Active; 'I' for Inactive)
REMARK    1  A    between atoms: C_5  and  C_3 
REMARK    2  A    between atoms: C_5  and  C_4 
ROOT
HETATM    1  C   UNK N   1      25.914  27.178  -5.218  0.00  0.00     0.066 C 
HETATM    2  C   UNK N   1      24.517  27.043  -5.815  0.00  0.00     0.021 C 
ENDROOT
BRANCH   1   3
HETATM    3  C   UNK N   1      26.578  28.539  -4.982  0.00  0.00    -0.042 A 
HETATM    4  C   UNK N   1      27.565  29.104  -5.843  0.00  0.00    -0.049 A 
HETATM    5  C   UNK N   1      28.116  30.370  -5.534  0.00  0.00    -0.056 A 
HETATM    6  C   UNK N   1      28.046  28.395  -7.070  0.00  0.00     0.049 C 
HETATM    7  C   UNK N   1      27.699  31.061  -4.398  0.00  0.00     0.007 A 
HETATM    8  C   UNK N   1      29.155  30.998  -6.400  0.00  0.00     0.049 C 
HETATM    9  C   UNK N   1      26.738  30.515  -3.558  0.00  0.00     0.001 A 
HETATM   10  C   UNK N   1      26.191  29.270  -3.849  0.00  0.00     0.008 A 
ENDBRANCH   1   3
BRANCH   1  11
HETATM   11  C   UNK N   1      26.592  25.888  -4.805  0.00  0.00     0.033 A 
HETATM   12  N   UNK N   1      27.150  25.009  -5.652  0.00  0.00    -0.354 N 
HETATM   13  C   UNK N   1      27.632  24.020  -4.875  0.00  0.00     0.180 A 
ATOM     14  HN  UNK N   1      27.200  25.076  -6.668  1.00  0.00     0.166 HD
HETATM   15  N   UNK N   1      27.392  24.253  -3.569  0.00  0.00    -0.360 N 
HETATM   16  C   UNK N   1      26.735  25.428  -3.515  0.00  0.00     0.114 A 
HETATM   17  H   UNK N   1      27.644  23.680  -2.808  0.00  0.00     0.166 HD
ENDBRANCH   1  11
TORSDOF 2
ENDMDL
MODEL 9
REMARK VINA RESULT:      -5.7     27.586     28.724
REMARK  2 active torsions:
REMARK  status: ('A' for Active; 'I' for Inactive)
REMARK    1  A    between atoms: C_5  and  C_3 
REMARK    2  A    between atoms: C_5  and  C_4 
ROOT
HETATM    1  C   UNK N   1      25.973  25.724  -8.031  0.00  0.00     0.066 C 
HETATM    2  C   UNK N   1      25.618  26.125  -9.458  0.00  0.00     0.021 C 
ENDROOT
BRANCH   1   3
HETATM    3  C   UNK N   1      26.111  26.749  -6.901  0.00  0.00    -0.042 A 
HETATM    4  C   UNK N   1      27.151  27.723  -6.829  0.00  0.00    -0.049 A 
HETATM    5  C   UNK N   1      27.188  28.624  -5.740  0.00  0.00    -0.056 A 
HETATM    6  C   UNK N   1      28.219  27.819  -7.874  0.00  0.00     0.049 C 
HETATM    7  C   UNK N   1      26.214  28.565  -4.743  0.00  0.00     0.007 A 
HETATM    8  C   UNK N   1      28.259  29.655  -5.618  0.00  0.00     0.049 C 
HETATM    9  C   UNK N   1      25.200  27.619  -4.809  0.00  0.00     0.001 A 
HETATM   10  C   UNK N   1      25.156  26.726  -5.873  0.00  0.00     0.008 A 
ENDBRANCH   1   3
BRANCH   1  11
HETATM   11  C   UNK N   1      26.119  24.239  -7.770  0.00  0.00     0.033 A 
HETATM   12  N   UNK N   1      25.102  23.364  -7.730  0.00  0.00    -0.354 N 
HETATM   13  C   UNK N   1      25.669  22.169  -7.475  0.00  0.00     0.180 A 
ATOM     14  HN  UNK N   1      24.111  23.561  -7.864  1.00  0.00     0.166 HD
HETATM   15  N   UNK N   1      27.007  22.270  -7.354  0.00  0.00    -0.360 N 
HETATM   16  C   UNK N   1      27.301  23.572  -7.537  0.00  0.00     0.114 A 
HETATM   17  H   UNK N   1      27.643  21.540  -7.168  0.00  0.00     0.166 HD
ENDBRANCH   1  11
TORSDOF 2
ENDMDL
