MODEL 1
REMARK VINA RESULT:      -4.5      0.000      0.000
REMARK  8 active torsions:
REMARK  status: ('A' for Active; 'I' for Inactive)
REMARK    1  A    between atoms: O_1  and  C_7 
REMARK    2  A    between atoms: C_2  and  C_9 
REMARK    3  A    between atoms: C_3  and  C_2 
REMARK    4  A    between atoms: C_4  and  C_3 
REMARK    5  A    between atoms: C_5  and  C_4 
REMARK    6  A    between atoms: N_6  and  C_5 
REMARK    7  A    between atoms: C_9  and  C_7 
REMARK    8  A    between atoms: C_9  and  N_10 
ROOT
HETATM    1  C   UNK N   1      33.024  17.715   8.482  0.00  0.00     0.173 C 
ENDROOT
BRANCH   1   2
HETATM    2  C   UNK N   1      34.257  18.244   7.797  0.00  0.00     0.163 C 
HETATM    3  O   UNK N   1      34.506  17.933   6.641  0.00  0.00    -0.648 OA
BRANCH   2   4
HETATM    4  O   UNK N   1      35.047  19.135   8.427  0.00  0.00    -0.775 OA
HETATM    5  H   UNK N   1      35.962  19.173   8.230  0.00  0.00     0.167 HD
ENDBRANCH   2   4
ENDBRANCH   1   2
BRANCH   1   6
HETATM    6  C   UNK N   1      32.003  17.148   7.494  0.00  0.00     0.035 C 
BRANCH   6   7
HETATM    7  C   UNK N   1      30.598  17.219   8.072  0.00  0.00     0.004 C 
BRANCH   7   8
HETATM    8  C   UNK N   1      30.420  18.492   8.875  0.00  0.00     0.019 C 
BRANCH   8   9
HETATM    9  C   UNK N   1      29.238  18.335   9.810  0.00  0.00     0.111 C 
BRANCH   9  10
HETATM   10  N   UNK N   1      28.003  18.525   9.071  0.00  0.00    -0.430 N 
HETATM   11  H   UNK N   1      27.873  19.362   8.502  0.00  0.00     0.149 HD
HETATM   12  H   UNK N   1      27.265  17.823   9.121  0.00  0.00     0.149 HD
ENDBRANCH   9  10
ENDBRANCH   8   9
ENDBRANCH   7   8
ENDBRANCH   6   7
ENDBRANCH   1   6
BRANCH   1  13
HETATM   13  N   UNK N   1      33.396  16.706   9.463  0.00  0.00    -0.418 N 
HETATM   14  H   UNK N   1      33.615  16.904  10.440  0.00  0.00     0.150 HD
HETATM   15  H   UNK N   1      33.439  15.736   9.154  0.00  0.00     0.150 HD
ENDBRANCH   1  13
TORSDOF 8
ENDMDL
MODEL 2
REMARK VINA RESULT:      -4.2      2.279      2.827
REMARK  8 active torsions:
REMARK  status: ('A' for Active; 'I' for Inactive)
REMARK    1  A    between atoms: O_1  and  C_7 
REMARK    2  A    between atoms: C_2  and  C_9 
REMARK    3  A    between atoms: C_3  and  C_2 
REMARK    4  A    between atoms: C_4  and  C_3 
REMARK    5  A    between atoms: C_5  and  C_4 
REMARK    6  A    between atoms: N_6  and  C_5 
REMARK    7  A    between atoms: C_9  and  C_7 
REMARK    8  A    between atoms: C_9  and  N_10 
ROOT
HETATM    1  C   UNK N   1      34.048  17.250   9.099  0.00  0.00     0.173 C 
ENDROOT
BRANCH   1   2
HETATM    2  C   UNK N   1      34.611  18.253   8.127  0.00  0.00     0.163 C 
HETATM    3  O   UNK N   1      35.276  19.199   8.527  0.00  0.00    -0.648 OA
BRANCH   2   4
HETATM    4  O   UNK N   1      34.458  18.067   6.802  0.00  0.00    -0.775 OA
HETATM    5  H   UNK N   1      34.856  18.659   6.195  0.00  0.00     0.167 HD
ENDBRANCH   2   4
ENDBRANCH   1   2
BRANCH   1   6
HETATM    6  C   UNK N   1      33.880  15.863   8.476  0.00  0.00     0.035 C 
BRANCH   6   7
HETATM    7  C   UNK N   1      32.471  15.338   8.703  0.00  0.00     0.004 C 
BRANCH   7   8
HETATM    8  C   UNK N   1      31.450  16.301   8.132  0.00  0.00     0.019 C 
BRANCH   8   9
HETATM    9  C   UNK N   1      31.285  16.037   6.648  0.00  0.00     0.111 C 
BRANCH   9  10
HETATM   10  N   UNK N   1      31.707  17.205   5.896  0.00  0.00    -0.430 N 
HETATM   11  H   UNK N   1      32.310  17.902   6.332  0.00  0.00     0.149 HD
HETATM   12  H   UNK N   1      31.401  17.328   4.931  0.00  0.00     0.149 HD
ENDBRANCH   9  10
ENDBRANCH   8   9
ENDBRANCH   7   8
ENDBRANCH   6   7
ENDBRANCH   1   6
BRANCH   1  13
HETATM   13  N   UNK N   1      34.892  17.176  10.282  0.00  0.00    -0.418 N 
HETATM   14  H   UNK N   1      34.690  17.645  11.165  0.00  0.00     0.150 HD
HETATM   15  H   UNK N   1      35.744  16.618  10.225  0.00  0.00     0.150 HD
ENDBRANCH   1  13
TORSDOF 8
ENDMDL
MODEL 3
REMARK VINA RESULT:      -4.2     12.984     14.073
REMARK  8 active torsions:
REMARK  status: ('A' for Active; 'I' for Inactive)
REMARK    1  A    between atoms: O_1  and  C_7 
REMARK    2  A    between atoms: C_2  and  C_9 
REMARK    3  A    between atoms: C_3  and  C_2 
REMARK    4  A    between atoms: C_4  and  C_3 
REMARK    5  A    between atoms: C_5  and  C_4 
REMARK    6  A    between atoms: N_6  and  C_5 
REMARK    7  A    between atoms: C_9  and  C_7 
REMARK    8  A    between atoms: C_9  and  N_10 
ROOT
HETATM    1  C   UNK N   1      20.842  19.893   1.655  0.00  0.00     0.173 C 
ENDROOT
BRANCH   1   2
HETATM    2  C   UNK N   1      21.229  20.811   2.783  0.00  0.00     0.163 C 
HETATM    3  O   UNK N   1      22.303  21.396   2.767  0.00  0.00    -0.648 OA
BRANCH   2   4
HETATM    4  O   UNK N   1      20.355  21.062   3.778  0.00  0.00    -0.775 OA
HETATM    5  H   UNK N   1      20.499  20.706   4.631  0.00  0.00     0.167 HD
ENDBRANCH   2   4
ENDBRANCH   1   2
BRANCH   1   6
HETATM    6  C   UNK N   1      19.772  18.880   2.065  0.00  0.00     0.035 C 
BRANCH   6   7
HETATM    7  C   UNK N   1      20.264  17.458   1.845  0.00  0.00     0.004 C 
BRANCH   7   8
HETATM    8  C   UNK N   1      20.194  17.096   0.375  0.00  0.00     0.019 C 
BRANCH   8   9
HETATM    9  C   UNK N   1      19.220  15.949   0.186  0.00  0.00     0.111 C 
BRANCH   9  10
HETATM   10  N   UNK N   1      17.927  16.470  -0.220  0.00  0.00    -0.430 N 
HETATM   11  H   UNK N   1      17.084  15.916  -0.069  0.00  0.00     0.149 HD
HETATM   12  H   UNK N   1      17.862  17.390  -0.655  0.00  0.00     0.149 HD
ENDBRANCH   9  10
ENDBRANCH   8   9
ENDBRANCH   7   8
ENDBRANCH   6   7
ENDBRANCH   1   6
BRANCH   1  13
HETATM   13  N   UNK N   1      20.390  20.673   0.512  0.00  0.00    -0.418 N 
HETATM   14  H   UNK N   1      20.936  21.409   0.064  0.00  0.00     0.150 HD
HETATM   15  H   UNK N   1      19.466  20.469   0.133  0.00  0.00     0.150 HD
ENDBRANCH   1  13
TORSDOF 8
ENDMDL
MODEL 4
REMARK VINA RESULT:      -4.1      3.369      5.364
REMARK  8 active torsions:
REMARK  status: ('A' for Active; 'I' for Inactive)
REMARK    1  A    between atoms: O_1  and  C_7 
REMARK    2  A    between atoms: C_2  and  C_9 
REMARK    3  A    between atoms: C_3  and  C_2 
REMARK    4  A    between atoms: C_4  and  C_3 
REMARK    5  A    between atoms: C_5  and  C_4 
REMARK    6  A    between atoms: N_6  and  C_5 
REMARK    7  A    between atoms: C_9  and  C_7 
REMARK    8  A    between atoms: C_9  and  N_10 
ROOT
HETATM    1  C   UNK N   1      34.276  16.999   8.888  0.00  0.00     0.173 C 
ENDROOT
BRANCH   1   2
HETATM    2  C   UNK N   1      34.632  18.175   8.017  0.00  0.00     0.163 C 
HETATM    3  O   UNK N   1      35.193  19.152   8.492  0.00  0.00    -0.648 OA
BRANCH   2   4
HETATM    4  O   UNK N   1      34.413  18.120   6.688  0.00  0.00    -0.775 OA
HETATM    5  H   UNK N   1      34.486  17.305   6.233  0.00  0.00     0.167 HD
ENDBRANCH   2   4
ENDBRANCH   1   2
BRANCH   1   6
HETATM    6  C   UNK N   1      35.125  16.934  10.158  0.00  0.00     0.035 C 
BRANCH   6   7
HETATM    7  C   UNK N   1      35.731  15.550  10.331  0.00  0.00     0.004 C 
BRANCH   7   8
HETATM    8  C   UNK N   1      35.061  14.818  11.476  0.00  0.00     0.019 C 
BRANCH   8   9
HETATM    9  C   UNK N   1      36.008  14.761  12.658  0.00  0.00     0.111 C 
BRANCH   9  10
HETATM   10  N   UNK N   1      37.014  13.739  12.428  0.00  0.00    -0.430 N 
HETATM   11  H   UNK N   1      36.986  13.179  11.576  0.00  0.00     0.149 HD
HETATM   12  H   UNK N   1      37.749  13.583  13.117  0.00  0.00     0.149 HD
ENDBRANCH   9  10
ENDBRANCH   8   9
ENDBRANCH   7   8
ENDBRANCH   6   7
ENDBRANCH   1   6
BRANCH   1  13
HETATM   13  N   UNK N   1      32.861  17.041   9.224  0.00  0.00    -0.418 N 
HETATM   14  H   UNK N   1      32.483  17.444  10.082  0.00  0.00     0.150 HD
HETATM   15  H   UNK N   1      32.202  16.640   8.557  0.00  0.00     0.150 HD
ENDBRANCH   1  13
TORSDOF 8
ENDMDL
MODEL 5
REMARK VINA RESULT:      -4.0     16.036     16.652
REMARK  8 active torsions:
REMARK  status: ('A' for Active; 'I' for Inactive)
REMARK    1  A    between atoms: O_1  and  C_7 
REMARK    2  A    between atoms: C_2  and  C_9 
REMARK    3  A    between atoms: C_3  and  C_2 
REMARK    4  A    between atoms: C_4  and  C_3 
REMARK    5  A    between atoms: C_5  and  C_4 
REMARK    6  A    between atoms: N_6  and  C_5 
REMARK    7  A    between atoms: C_9  and  C_7 
REMARK    8  A    between atoms: C_9  and  N_10 
ROOT
HETATM    1  C   UNK N   1      25.494  24.467  -5.274  0.00  0.00     0.173 C 
ENDROOT
BRANCH   1   2
HETATM    2  C   UNK N   1      26.638  24.377  -4.299  0.00  0.00     0.163 C 
HETATM    3  O   UNK N   1      27.795  24.413  -4.695  0.00  0.00    -0.648 OA
BRANCH   2   4
HETATM    4  O   UNK N   1      26.393  24.345  -2.974  0.00  0.00    -0.775 OA
HETATM    5  H   UNK N   1      25.850  23.674  -2.613  0.00  0.00     0.167 HD
ENDBRANCH   2   4
ENDBRANCH   1   2
BRANCH   1   6
HETATM    6  C   UNK N   1      25.581  25.706  -6.167  0.00  0.00     0.035 C 
BRANCH   6   7
HETATM    7  C   UNK N   1      25.015  26.924  -5.453  0.00  0.00     0.004 C 
BRANCH   7   8
HETATM    8  C   UNK N   1      26.108  27.944  -5.202  0.00  0.00     0.019 C 
BRANCH   8   9
HETATM    9  C   UNK N   1      25.918  28.556  -3.829  0.00  0.00     0.111 C 
BRANCH   9  10
HETATM   10  N   UNK N   1      25.902  27.507  -2.825  0.00  0.00    -0.430 N 
HETATM   11  H   UNK N   1      25.196  27.516  -2.089  0.00  0.00     0.149 HD
HETATM   12  H   UNK N   1      26.597  26.761  -2.857  0.00  0.00     0.149 HD
ENDBRANCH   9  10
ENDBRANCH   8   9
ENDBRANCH   7   8
ENDBRANCH   6   7
ENDBRANCH   1   6
BRANCH   1  13
HETATM   13  N   UNK N   1      25.437  23.259  -6.085  0.00  0.00    -0.418 N 
HETATM   14  H   UNK N   1      24.588  22.895  -6.519  0.00  0.00     0.150 HD
HETATM   15  H   UNK N   1      26.304  22.743  -6.230  0.00  0.00     0.150 HD
ENDBRANCH   1  13
TORSDOF 8
ENDMDL
MODEL 6
REMARK VINA RESULT:      -4.0     10.552     11.223
REMARK  8 active torsions:
REMARK  status: ('A' for Active; 'I' for Inactive)
REMARK    1  A    between atoms: O_1  and  C_7 
REMARK    2  A    between atoms: C_2  and  C_9 
REMARK    3  A    between atoms: C_3  and  C_2 
REMARK    4  A    between atoms: C_4  and  C_3 
REMARK    5  A    between atoms: C_5  and  C_4 
REMARK    6  A    between atoms: N_6  and  C_5 
REMARK    7  A    between atoms: C_9  and  C_7 
REMARK    8  A    between atoms: C_9  and  N_10 
ROOT
HETATM    1  C   UNK N   1      22.967  11.601  10.761  0.00  0.00     0.173 C 
ENDROOT
BRANCH   1   2
HETATM    2  C   UNK N   1      23.931  12.057  11.824  0.00  0.00     0.163 C 
HETATM    3  O   UNK N   1      23.620  12.009  13.006  0.00  0.00    -0.648 OA
BRANCH   2   4
HETATM    4  O   UNK N   1      25.177  12.440  11.484  0.00  0.00    -0.775 OA
HETATM    5  H   UNK N   1      25.832  11.797  11.297  0.00  0.00     0.167 HD
ENDBRANCH   2   4
ENDBRANCH   1   2
BRANCH   1   6
HETATM    6  C   UNK N   1      21.672  12.414  10.758  0.00  0.00     0.035 C 
BRANCH   6   7
HETATM    7  C   UNK N   1      21.816  13.653   9.887  0.00  0.00     0.004 C 
BRANCH   7   8
HETATM    8  C   UNK N   1      20.453  14.227   9.555  0.00  0.00     0.019 C 
BRANCH   8   9
HETATM    9  C   UNK N   1      20.626  15.576   8.886  0.00  0.00     0.111 C 
BRANCH   9  10
HETATM   10  N   UNK N   1      21.472  15.436   7.715  0.00  0.00    -0.430 N 
HETATM   11  H   UNK N   1      21.247  14.740   7.004  0.00  0.00     0.149 HD
HETATM   12  H   UNK N   1      22.292  16.032   7.604  0.00  0.00     0.149 HD
ENDBRANCH   9  10
ENDBRANCH   8   9
ENDBRANCH   7   8
ENDBRANCH   6   7
ENDBRANCH   1   6
BRANCH   1  13
HETATM   13  N   UNK N   1      23.605  11.657   9.454  0.00  0.00    -0.418 N 
HETATM   14  H   UNK N   1      23.107  11.607   8.565  0.00  0.00     0.150 HD
HETATM   15  H   UNK N   1      24.620  11.753   9.425  0.00  0.00     0.150 HD
ENDBRANCH   1  13
TORSDOF 8
ENDMDL
MODEL 7
REMARK VINA RESULT:      -3.9     12.687     13.276
REMARK  8 active torsions:
REMARK  status: ('A' for Active; 'I' for Inactive)
REMARK    1  A    between atoms: O_1  and  C_7 
REMARK    2  A    between atoms: C_2  and  C_9 
REMARK    3  A    between atoms: C_3  and  C_2 
REMARK    4  A    between atoms: C_4  and  C_3 
REMARK    5  A    between atoms: C_5  and  C_4 
REMARK    6  A    between atoms: N_6  and  C_5 
REMARK    7  A    between atoms: C_9  and  C_7 
REMARK    8  A    between atoms: C_9  and  N_10 
ROOT
HETATM    1  C   UNK N   1      20.600  19.348   2.011  0.00  0.00     0.173 C 
ENDROOT
BRANCH   1   2
HETATM    2  C   UNK N   1      20.925  20.621   1.274  0.00  0.00     0.163 C 
HETATM    3  O   UNK N   1      21.047  20.619   0.058  0.00  0.00    -0.648 OA
BRANCH   2   4
HETATM    4  O   UNK N   1      20.996  21.788   1.944  0.00  0.00    -0.775 OA
HETATM    5  H   UNK N   1      20.385  22.473   1.761  0.00  0.00     0.167 HD
ENDBRANCH   2   4
ENDBRANCH   1   2
BRANCH   1   6
HETATM    6  C   UNK N   1      21.421  19.187   3.291  0.00  0.00     0.035 C 
BRANCH   6   7
HETATM    7  C   UNK N   1      21.000  17.936   4.048  0.00  0.00     0.004 C 
BRANCH   7   8
HETATM    8  C   UNK N   1      21.371  16.694   3.263  0.00  0.00     0.019 C 
BRANCH   8   9
HETATM    9  C   UNK N   1      20.193  15.741   3.245  0.00  0.00     0.111 C 
BRANCH   9  10
HETATM   10  N   UNK N   1      19.138  16.252   4.102  0.00  0.00    -0.430 N 
HETATM   11  H   UNK N   1      18.870  15.739   4.942  0.00  0.00     0.149 HD
HETATM   12  H   UNK N   1      18.666  17.125   3.864  0.00  0.00     0.149 HD
ENDBRANCH   9  10
ENDBRANCH   8   9
ENDBRANCH   7   8
ENDBRANCH   6   7
ENDBRANCH   1   6
BRANCH   1  13
HETATM   13  N   UNK N   1      19.177  19.297   2.311  0.00  0.00    -0.418 N 
HETATM   14  H   UNK N   1      18.511  18.679   1.847  0.00  0.00     0.150 HD
HETATM   15  H   UNK N   1      18.820  19.921   3.034  0.00  0.00     0.150 HD
ENDBRANCH   1  13
TORSDOF 8
ENDMDL
MODEL 8
REMARK VINA RESULT:      -3.9      1.863      2.257
REMARK  8 active torsions:
REMARK  status: ('A' for Active; 'I' for Inactive)
REMARK    1  A    between atoms: O_1  and  C_7 
REMARK    2  A    between atoms: C_2  and  C_9 
REMARK    3  A    between atoms: C_3  and  C_2 
REMARK    4  A    between atoms: C_4  and  C_3 
REMARK    5  A    between atoms: C_5  and  C_4 
REMARK    6  A    between atoms: N_6  and  C_5 
REMARK    7  A    between atoms: C_9  and  C_7 
REMARK    8  A    between atoms: C_9  and  N_10 
ROOT
HETATM    1  C   UNK N   1      32.953  17.804   8.339  0.00  0.00     0.173 C 
ENDROOT
BRANCH   1   2
HETATM    2  C   UNK N   1      34.268  18.238   7.746  0.00  0.00     0.163 C 
HETATM    3  O   UNK N   1      34.593  17.874   6.625  0.00  0.00    -0.648 OA
BRANCH   2   4
HETATM    4  O   UNK N   1      35.055  19.104   8.414  0.00  0.00    -0.775 OA
HETATM    5  H   UNK N   1      35.519  19.772   7.950  0.00  0.00     0.167 HD
ENDBRANCH   2   4
ENDBRANCH   1   2
BRANCH   1   6
HETATM    6  C   UNK N   1      31.998  17.235   7.290  0.00  0.00     0.035 C 
BRANCH   6   7
HETATM    7  C   UNK N   1      30.600  17.072   7.867  0.00  0.00     0.004 C 
BRANCH   7   8
HETATM    8  C   UNK N   1      29.559  17.538   6.869  0.00  0.00     0.019 C 
BRANCH   8   9
HETATM    9  C   UNK N   1      29.882  16.969   5.502  0.00  0.00     0.111 C 
BRANCH   9  10
HETATM   10  N   UNK N   1      29.734  18.005   4.495  0.00  0.00    -0.430 N 
HETATM   11  H   UNK N   1      28.995  18.703   4.587  0.00  0.00     0.149 HD
HETATM   12  H   UNK N   1      30.369  18.036   3.698  0.00  0.00     0.149 HD
ENDBRANCH   9  10
ENDBRANCH   8   9
ENDBRANCH   7   8
ENDBRANCH   6   7
ENDBRANCH   1   6
BRANCH   1  13
HETATM   13  N   UNK N   1      33.183  16.832   9.398  0.00  0.00    -0.418 N 
HETATM   14  H   UNK N   1      33.493  15.873   9.243  0.00  0.00     0.150 HD
HETATM   15  H   UNK N   1      33.023  17.131  10.360  0.00  0.00     0.150 HD
ENDBRANCH   1  13
TORSDOF 8
ENDMDL
MODEL 9
REMARK VINA RESULT:      -3.9      8.567      9.407
REMARK  8 active torsions:
REMARK  status: ('A' for Active; 'I' for Inactive)
REMARK    1  A    between atoms: O_1  and  C_7 
REMARK    2  A    between atoms: C_2  and  C_9 
REMARK    3  A    between atoms: C_3  and  C_2 
REMARK    4  A    between atoms: C_4  and  C_3 
REMARK    5  A    between atoms: C_5  and  C_4 
REMARK    6  A    between atoms: N_6  and  C_5 
REMARK    7  A    between atoms: C_9  and  C_7 
REMARK    8  A    between atoms: C_9  and  N_10 
ROOT
HETATM    1  C   UNK N   1      36.152  13.924  14.594  0.00  0.00     0.173 C 
ENDROOT
BRANCH   1   2
HETATM    2  C   UNK N   1      35.783  13.698  13.152  0.00  0.00     0.163 C 
HETATM    3  O   UNK N   1      36.639  13.734  12.279  0.00  0.00    -0.648 OA
BRANCH   2   4
HETATM    4  O   UNK N   1      34.519  13.366  12.824  0.00  0.00    -0.775 OA
HETATM    5  H   UNK N   1      33.822  13.513  13.431  0.00  0.00     0.167 HD
ENDBRANCH   2   4
ENDBRANCH   1   2
BRANCH   1   6
HETATM    6  C   UNK N   1      36.716  12.668  15.258  0.00  0.00     0.035 C 
BRANCH   6   7
HETATM    7  C   UNK N   1      35.701  12.063  16.216  0.00  0.00     0.004 C 
BRANCH   7   8
HETATM    8  C   UNK N   1      34.807  13.144  16.789  0.00  0.00     0.019 C 
BRANCH   8   9
HETATM    9  C   UNK N   1      35.193  13.403  18.232  0.00  0.00     0.111 C 
BRANCH   9  10
HETATM   10  N   UNK N   1      35.588  14.792  18.388  0.00  0.00    -0.430 N 
HETATM   11  H   UNK N   1      34.890  15.532  18.308  0.00  0.00     0.149 HD
HETATM   12  H   UNK N   1      36.562  15.027  18.578  0.00  0.00     0.149 HD
ENDBRANCH   9  10
ENDBRANCH   8   9
ENDBRANCH   7   8
ENDBRANCH   6   7
ENDBRANCH   1   6
BRANCH   1  13
HETATM   13  N   UNK N   1      37.102  15.023  14.697  0.00  0.00    -0.418 N 
HETATM   14  H   UNK N   1      36.850  16.010  14.646  0.00  0.00     0.150 HD
HETATM   15  H   UNK N   1      38.086  14.790  14.830  0.00  0.00     0.150 HD
ENDBRANCH   1  13
TORSDOF 8
ENDMDL
