MODEL 1
REMARK VINA RESULT:      -7.4      0.000      0.000
REMARK WARNING: 32 MAX_TORS EXCEEDED!!!
REMARK  36 active torsions:
REMARK  status: ('A' for Active; 'I' for Inactive)
REMARK    1  A    between atoms: C_2  and  C_3 
REMARK    2  A    between atoms: C_3  and  C_5 
REMARK    3  A    between atoms: C_5  and  C_6 
REMARK    4  A    between atoms: C_6  and  C_7 
REMARK    5  A    between atoms: C_7  and  C_8 
REMARK    6  A    between atoms: C_8  and  C_9 
REMARK       I    between atoms: C_9  and  N_11 
REMARK    7  A    between atoms: N_11  and  C_12 
REMARK    8  A    between atoms: C_12  and  C_13 
REMARK    9  A    between atoms: C_12  and  C_16 
REMARK   10  A    between atoms: C_13  and  C_14 
REMARK   11  A    between atoms: C_14  and  N_15 
REMARK       I    between atoms: C_16  and  N_18 
REMARK   12  A    between atoms: N_18  and  C_19 
REMARK   13  A    between atoms: C_19  and  C_20 
REMARK   14  A    between atoms: C_19  and  C_23 
REMARK   15  A    between atoms: C_20  and  O_22 
REMARK       I    between atoms: C_23  and  N_25 
REMARK   16  A    between atoms: N_25  and  C_26 
REMARK   17  A    between atoms: C_26  and  C_27 
REMARK   18  A    between atoms: C_26  and  C_30 
REMARK   19  A    between atoms: C_27  and  C_28 
REMARK   20  A    between atoms: C_28  and  N_29 
REMARK       I    between atoms: C_30  and  N_32 
REMARK   21  A    between atoms: N_32  and  C_33 
REMARK   22  A    between atoms: C_39  and  C_83 
REMARK   23  A    between atoms: C_43  and  C_44 
REMARK   24  A    between atoms: C_44  and  C_45 
REMARK   25  A    between atoms: C_45  and  N_46 
REMARK   26  A    between atoms: C_50  and  C_51 
REMARK   27  A    between atoms: C_51  and  C_52 
REMARK   28  A    between atoms: C_52  and  N_53 
REMARK   29  A    between atoms: C_57  and  C_58 
REMARK   30  A    between atoms: C_58  and  C_59 
REMARK   31  A    between atoms: C_65  and  C_66 
REMARK   32  A    between atoms: C_66  and  C_67 
REMARK   33  A    between atoms: C_76  and  C_77 
REMARK   34  A    between atoms: C_77  and  C_78 
REMARK   35  A    between atoms: C_78  and  N_79 
REMARK   36  A    between atoms: C_83  and  O_85 
ROOT
HETATM    1  C   UNK N   1      31.927  16.155   5.236  0.00  0.00     0.178 C 
HETATM    2  C   UNK N   1      33.179  16.739   4.588  0.00  0.00     0.054 C 
HETATM    3  C   UNK N   1      33.063  16.659   3.078  0.00  0.00     0.125 C 
HETATM    4  N   UNK N   1      32.803  15.291   2.728  0.00  0.00    -0.359 N 
HETATM    5  C   UNK N   1      33.714  14.533   2.091  0.00  0.00     0.243 C 
HETATM    6  O   UNK N   1      34.761  15.017   1.690  0.00  0.00    -0.271 OA
HETATM    7  C   UNK N   1      33.475  13.070   1.978  0.00  0.00     0.205 C 
HETATM    8  N   UNK N   1      33.473  12.488   0.659  0.00  0.00    -0.344 N 
HETATM    9  C   UNK N   1      32.348  11.958   0.136  0.00  0.00     0.241 C 
HETATM   10  O   UNK N   1      31.305  12.030   0.754  0.00  0.00    -0.271 OA
HETATM   11  C   UNK N   1      32.375  11.286  -1.214  0.00  0.00     0.178 C 
HETATM   12  N   UNK N   1      31.273  10.357  -1.376  0.00  0.00    -0.346 N 
HETATM   13  C   UNK N   1      31.068   9.283  -0.568  0.00  0.00     0.241 C 
HETATM   14  O   UNK N   1      31.890   8.966   0.277  0.00  0.00    -0.271 OA
HETATM   15  C   UNK N   1      29.738   8.600  -0.567  0.00  0.00     0.178 C 
HETATM   16  N   UNK N   1      28.931   9.068   0.555  0.00  0.00    -0.346 N 
HETATM   17  C   UNK N   1      28.602  10.375   0.784  0.00  0.00     0.241 C 
HETATM   18  O   UNK N   1      28.971  11.256   0.024  0.00  0.00    -0.271 OA
HETATM   19  C   UNK N   1      27.632  10.701   1.882  0.00  0.00     0.177 C 
HETATM   20  N   UNK N   1      28.113  11.393   3.071  0.00  0.00    -0.346 N 
HETATM   21  C   UNK N   1      28.635  12.650   3.186  0.00  0.00     0.241 C 
HETATM   22  O   UNK N   1      29.049  13.258   2.211  0.00  0.00    -0.271 OA
HETATM   23  C   UNK N   1      28.388  13.346   4.518  0.00  0.00     0.180 C 
HETATM   24  N   UNK N   1      29.065  14.552   4.996  0.00  0.00    -0.346 N 
HETATM   25  C   UNK N   1      29.103  15.767   4.385  0.00  0.00     0.241 C 
HETATM   26  O   UNK N   1      29.003  15.858   3.173  0.00  0.00    -0.271 OA
HETATM   27  C   UNK N   1      28.950  17.024   5.225  0.00  0.00     0.178 C 
HETATM   28  N   UNK N   1      30.004  17.450   6.141  0.00  0.00    -0.346 N 
HETATM   29  C   UNK N   1      31.308  17.085   6.217  0.00  0.00     0.241 C 
HETATM   30  O   UNK N   1      31.993  17.533   7.123  0.00  0.00    -0.271 OA
HETATM   31  H   UNK N   1      31.933  14.894   2.963  0.00  0.00     0.162 HD
HETATM   32  H   UNK N   1      34.305  12.476   0.132  0.00  0.00     0.163 HD
HETATM   33  H   UNK N   1      30.638  10.514  -2.111  0.00  0.00     0.163 HD
HETATM   34  H   UNK N   1      28.601   8.394   1.192  0.00  0.00     0.163 HD
HETATM   35  H   UNK N   1      28.053  10.883   3.910  0.00  0.00     0.163 HD
HETATM   36  H   UNK N   1      29.544  14.476   5.852  0.00  0.00     0.163 HD
HETATM   37  H   UNK N   1      29.722  18.112   6.813  0.00  0.00     0.163 HD
ENDROOT
BRANCH   1  38
HETATM   38  N   UNK N   1      31.995  14.810   5.788  0.00  0.00    -0.346 N 
HETATM   39  C   UNK N   1      32.802  14.220   6.716  0.00  0.00     0.241 C 
HETATM   40  O   UNK N   1      32.576  13.059   7.011  0.00  0.00    -0.271 OA
HETATM   41  H   UNK N   1      31.318  14.200   5.416  0.00  0.00     0.163 HD
BRANCH  39  42
HETATM   42  C   UNK N   1      33.925  14.900   7.452  0.00  0.00     0.178 C 
BRANCH  42  43
HETATM   43  N   UNK N   1      33.971  14.617   8.874  0.00  0.00    -0.346 N 
HETATM   44  C   UNK N   1      34.281  15.594   9.771  0.00  0.00     0.243 C 
HETATM   45  O   UNK N   1      34.402  16.751   9.394  0.00  0.00    -0.271 OA
HETATM   46  H   UNK N   1      33.776  13.707   9.194  0.00  0.00     0.163 HD
BRANCH  44  47
HETATM   47  C   UNK N   1      34.572  15.235  11.218  0.00  0.00     0.205 C 
BRANCH  47  48
HETATM   48  N   UNK N   1      34.394  13.816  11.402  0.00  0.00    -0.344 N 
HETATM   49  C   UNK N   1      35.209  12.867  10.873  0.00  0.00     0.241 C 
HETATM   50  O   UNK N   1      36.278  13.169  10.362  0.00  0.00    -0.271 OA
HETATM   51  H   UNK N   1      33.633  13.515  11.947  0.00  0.00     0.163 HD
BRANCH  49  52
HETATM   52  C   UNK N   1      34.686  11.475  10.734  0.00  0.00     0.178 C 
BRANCH  52  53
HETATM   53  N   UNK N   1      35.540  10.585  11.488  0.00  0.00    -0.348 N 
HETATM   54  C   UNK N   1      35.205  10.101  12.702  0.00  0.00     0.218 C 
HETATM   55  O   UNK N   1      35.983   9.368  13.290  0.00  0.00    -0.274 OA
HETATM   56  H   UNK N   1      36.405  10.322  11.098  0.00  0.00     0.163 HD
BRANCH  54  57
HETATM   57  C   UNK N   1      33.876  10.416  13.313  0.00  0.00     0.103 C 
BRANCH  57  58
HETATM   58  C   UNK N   1      34.039  10.771  14.785  0.00  0.00     0.009 C 
BRANCH  58  59
HETATM   59  C   UNK N   1      34.449  12.230  14.947  0.00  0.00     0.001 C 
BRANCH  59  60
HETATM   60  C   UNK N   1      35.560  12.369  15.980  0.00  0.00     0.004 C 
BRANCH  60  61
HETATM   61  C   UNK N   1      34.985  12.698  17.353  0.00  0.00    -0.019 C 
HETATM   62  C   UNK N   1      35.441  14.066  17.830  0.00  0.00     0.010 C 
BRANCH  61  63
HETATM   63  C   UNK N   1      35.364  11.616  18.351  0.00  0.00    -0.000 C 
HETATM   64  C   UNK N   1      35.360  12.165  19.767  0.00  0.00     0.005 C 
ENDBRANCH  61  63
ENDBRANCH  60  61
ENDBRANCH  59  60
ENDBRANCH  58  59
ENDBRANCH  57  58
ENDBRANCH  54  57
ENDBRANCH  52  53
BRANCH  52  65
HETATM   65  C   UNK N   1      34.780  11.087   9.263  0.00  0.00     0.054 C 
BRANCH  65  66
HETATM   66  C   UNK N   1      33.473  10.479   8.777  0.00  0.00     0.113 C 
BRANCH  66  67
HETATM   67  N   UNK N   1      32.357  11.107   9.458  0.00  0.00    -0.430 N 
HETATM   68  H   UNK N   1      31.443  11.169   9.009  0.00  0.00     0.149 HD
HETATM   69  H   UNK N   1      32.487  11.490  10.395  0.00  0.00     0.149 HD
ENDBRANCH  66  67
ENDBRANCH  65  66
ENDBRANCH  52  65
ENDBRANCH  49  52
ENDBRANCH  47  48
BRANCH  47  70
HETATM   70  C   UNK N   1      35.867  15.775  11.845  0.00  0.00     0.146 C 
HETATM   71  C   UNK N   1      36.273  14.954  13.054  0.00  0.00     0.042 C 
BRANCH  70  72
HETATM   72  O   UNK N   1      36.926  15.861  10.943  0.00  0.00    -0.393 OA
HETATM   73  H   UNK N   1      37.309  15.394  10.185  0.00  0.00     0.210 HD
ENDBRANCH  70  72
ENDBRANCH  47  70
ENDBRANCH  44  47
ENDBRANCH  42  43
BRANCH  42  74
HETATM   74  C   UNK N   1      35.279  14.802   6.762  0.00  0.00     0.054 C 
BRANCH  74  75
HETATM   75  C   UNK N   1      35.984  13.503   7.099  0.00  0.00     0.113 C 
BRANCH  75  76
HETATM   76  N   UNK N   1      37.267  13.807   7.706  0.00  0.00    -0.430 N 
HETATM   77  H   UNK N   1      38.205  13.509   7.978  0.00  0.00     0.149 HD
HETATM   78  H   UNK N   1      37.200  14.781   7.999  0.00  0.00     0.149 HD
ENDBRANCH  75  76
ENDBRANCH  74  75
ENDBRANCH  42  74
ENDBRANCH  39  42
ENDBRANCH   1  38
BRANCH  27  79
HETATM   79  C   UNK N   1      27.670  16.846   6.039  0.00  0.00     0.054 C 
BRANCH  79  80
HETATM   80  C   UNK N   1      26.458  17.385   5.312  0.00  0.00     0.113 C 
BRANCH  80  81
HETATM   81  N   UNK N   1      25.271  16.711   5.806  0.00  0.00    -0.430 N 
HETATM   82  H   UNK N   1      24.660  16.821   6.615  0.00  0.00     0.149 HD
HETATM   83  H   UNK N   1      24.978  15.946   5.199  0.00  0.00     0.149 HD
ENDBRANCH  80  81
ENDBRANCH  79  80
ENDBRANCH  27  79
BRANCH   7  84
HETATM   84  C   UNK N   1      33.153  12.193   3.198  0.00  0.00     0.146 C 
HETATM   85  C   UNK N   1      34.306  12.096   4.168  0.00  0.00     0.042 C 
BRANCH  84  86
HETATM   86  O   UNK N   1      32.010  12.640   3.860  0.00  0.00    -0.393 OA
HETATM   87  H   UNK N   1      31.322  12.060   4.223  0.00  0.00     0.210 HD
ENDBRANCH  84  86
ENDBRANCH   7  84
BRANCH  23  88
HETATM   88  C   UNK N   1      26.871  13.456   4.783  0.00  0.00     0.073 C 
BRANCH  88  89
HETATM   89  C   UNK N   1      26.001  13.944   3.640  0.00  0.00    -0.056 A 
HETATM   90  C   UNK N   1      26.489  14.787   2.629  0.00  0.00     0.007 A 
HETATM   91  C   UNK N   1      25.673  15.168   1.562  0.00  0.00     0.001 A 
HETATM   92  C   UNK N   1      24.357  14.709   1.494  0.00  0.00     0.000 A 
HETATM   93  C   UNK N   1      23.858  13.876   2.500  0.00  0.00     0.001 A 
HETATM   94  C   UNK N   1      24.679  13.493   3.567  0.00  0.00     0.007 A 
ENDBRANCH  88  89
ENDBRANCH  23  88
BRANCH  11  95
HETATM   95  C   UNK N   1      33.729  10.827  -1.771  0.00  0.00     0.054 C 
BRANCH  95  96
HETATM   96  C   UNK N   1      34.333  11.732  -2.835  0.00  0.00     0.113 C 
BRANCH  96  97
HETATM   97  N   UNK N   1      33.474  11.799  -4.003  0.00  0.00    -0.430 N 
HETATM   98  H   UNK N   1      32.963  12.569  -4.436  0.00  0.00     0.149 HD
HETATM   99  H   UNK N   1      33.358  10.906  -4.482  0.00  0.00     0.149 HD
ENDBRANCH  96  97
ENDBRANCH  95  96
ENDBRANCH  11  95
BRANCH  19 100
HETATM  100  C   UNK N   1      26.379  11.399   1.359  0.00  0.00     0.038 C 
BRANCH 100 101
HETATM  101  C   UNK N   1      25.237  10.441   1.062  0.00  0.00    -0.020 C 
HETATM  102  C   UNK N   1      24.553  10.003   2.343  0.00  0.00     0.009 C 
HETATM  103  C   UNK N   1      24.233  11.143   0.176  0.00  0.00     0.009 C 
ENDBRANCH 100 101
ENDBRANCH  19 100
BRANCH  15 104
HETATM  104  C   UNK N   1      28.989   8.718  -1.890  0.00  0.00     0.054 C 
BRANCH 104 105
HETATM  105  C   UNK N   1      27.771   7.811  -1.885  0.00  0.00     0.113 C 
BRANCH 105 106
HETATM  106  N   UNK N   1      27.894   6.814  -2.937  0.00  0.00    -0.430 N 
HETATM  107  H   UNK N   1      28.545   6.949  -3.710  0.00  0.00     0.149 HD
HETATM  108  H   UNK N   1      27.321   5.971  -2.900  0.00  0.00     0.149 HD
ENDBRANCH 105 106
ENDBRANCH 104 105
ENDBRANCH  15 104
TORSDOF 36
ENDMDL
MODEL 2
REMARK VINA RESULT:      -7.2      1.207      1.707
REMARK WARNING: 32 MAX_TORS EXCEEDED!!!
REMARK  36 active torsions:
REMARK  status: ('A' for Active; 'I' for Inactive)
REMARK    1  A    between atoms: C_2  and  C_3 
REMARK    2  A    between atoms: C_3  and  C_5 
REMARK    3  A    between atoms: C_5  and  C_6 
REMARK    4  A    between atoms: C_6  and  C_7 
REMARK    5  A    between atoms: C_7  and  C_8 
REMARK    6  A    between atoms: C_8  and  C_9 
REMARK       I    between atoms: C_9  and  N_11 
REMARK    7  A    between atoms: N_11  and  C_12 
REMARK    8  A    between atoms: C_12  and  C_13 
REMARK    9  A    between atoms: C_12  and  C_16 
REMARK   10  A    between atoms: C_13  and  C_14 
REMARK   11  A    between atoms: C_14  and  N_15 
REMARK       I    between atoms: C_16  and  N_18 
REMARK   12  A    between atoms: N_18  and  C_19 
REMARK   13  A    between atoms: C_19  and  C_20 
REMARK   14  A    between atoms: C_19  and  C_23 
REMARK   15  A    between atoms: C_20  and  O_22 
REMARK       I    between atoms: C_23  and  N_25 
REMARK   16  A    between atoms: N_25  and  C_26 
REMARK   17  A    between atoms: C_26  and  C_27 
REMARK   18  A    between atoms: C_26  and  C_30 
REMARK   19  A    between atoms: C_27  and  C_28 
REMARK   20  A    between atoms: C_28  and  N_29 
REMARK       I    between atoms: C_30  and  N_32 
REMARK   21  A    between atoms: N_32  and  C_33 
REMARK   22  A    between atoms: C_39  and  C_83 
REMARK   23  A    between atoms: C_43  and  C_44 
REMARK   24  A    between atoms: C_44  and  C_45 
REMARK   25  A    between atoms: C_45  and  N_46 
REMARK   26  A    between atoms: C_50  and  C_51 
REMARK   27  A    between atoms: C_51  and  C_52 
REMARK   28  A    between atoms: C_52  and  N_53 
REMARK   29  A    between atoms: C_57  and  C_58 
REMARK   30  A    between atoms: C_58  and  C_59 
REMARK   31  A    between atoms: C_65  and  C_66 
REMARK   32  A    between atoms: C_66  and  C_67 
REMARK   33  A    between atoms: C_76  and  C_77 
REMARK   34  A    between atoms: C_77  and  C_78 
REMARK   35  A    between atoms: C_78  and  N_79 
REMARK   36  A    between atoms: C_83  and  O_85 
ROOT
HETATM    1  C   UNK N   1      32.103  15.944   5.146  0.00  0.00     0.178 C 
HETATM    2  C   UNK N   1      33.480  16.239   4.558  0.00  0.00     0.054 C 
HETATM    3  C   UNK N   1      33.445  16.068   3.051  0.00  0.00     0.125 C 
HETATM    4  N   UNK N   1      32.955  14.747   2.770  0.00  0.00    -0.359 N 
HETATM    5  C   UNK N   1      33.746  13.790   2.251  0.00  0.00     0.243 C 
HETATM    6  O   UNK N   1      34.887  14.043   1.900  0.00  0.00    -0.271 OA
HETATM    7  C   UNK N   1      33.244  12.390   2.213  0.00  0.00     0.205 C 
HETATM    8  N   UNK N   1      33.215  11.720   0.937  0.00  0.00    -0.344 N 
HETATM    9  C   UNK N   1      32.045  11.367   0.366  0.00  0.00     0.241 C 
HETATM   10  O   UNK N   1      30.998  11.675   0.899  0.00  0.00    -0.271 OA
HETATM   11  C   UNK N   1      32.029  10.601  -0.933  0.00  0.00     0.178 C 
HETATM   12  N   UNK N   1      30.785   9.879  -1.118  0.00  0.00    -0.346 N 
HETATM   13  C   UNK N   1      30.333   8.924  -0.261  0.00  0.00     0.241 C 
HETATM   14  O   UNK N   1      31.028   8.528   0.661  0.00  0.00    -0.271 OA
HETATM   15  C   UNK N   1      28.902   8.497  -0.316  0.00  0.00     0.178 C 
HETATM   16  N   UNK N   1      28.129   9.188   0.710  0.00  0.00    -0.346 N 
HETATM   17  C   UNK N   1      28.036  10.546   0.831  0.00  0.00     0.241 C 
HETATM   18  O   UNK N   1      28.610  11.286   0.047  0.00  0.00    -0.271 OA
HETATM   19  C   UNK N   1      27.079  11.126   1.832  0.00  0.00     0.177 C 
HETATM   20  N   UNK N   1      27.607  11.807   3.007  0.00  0.00    -0.346 N 
HETATM   21  C   UNK N   1      28.347  12.953   3.081  0.00  0.00     0.241 C 
HETATM   22  O   UNK N   1      28.927  13.400   2.104  0.00  0.00    -0.271 OA
HETATM   23  C   UNK N   1      28.152  13.780   4.345  0.00  0.00     0.180 C 
HETATM   24  N   UNK N   1      29.012  14.876   4.795  0.00  0.00    -0.346 N 
HETATM   25  C   UNK N   1      29.314  16.014   4.113  0.00  0.00     0.241 C 
HETATM   26  O   UNK N   1      29.308  16.029   2.894  0.00  0.00    -0.271 OA
HETATM   27  C   UNK N   1      29.348  17.338   4.859  0.00  0.00     0.178 C 
HETATM   28  N   UNK N   1      30.405  17.633   5.822  0.00  0.00    -0.346 N 
HETATM   29  C   UNK N   1      31.610  17.043   6.017  0.00  0.00     0.241 C 
HETATM   30  O   UNK N   1      32.310  17.426   6.943  0.00  0.00    -0.271 OA
HETATM   31  H   UNK N   1      32.014  14.535   2.964  0.00  0.00     0.162 HD
HETATM   32  H   UNK N   1      34.062  11.518   0.475  0.00  0.00     0.163 HD
HETATM   33  H   UNK N   1      30.237  10.092  -1.907  0.00  0.00     0.163 HD
HETATM   34  H   UNK N   1      27.640   8.636   1.362  0.00  0.00     0.163 HD
HETATM   35  H   UNK N   1      27.400  11.381   3.870  0.00  0.00     0.163 HD
HETATM   36  H   UNK N   1      29.415  14.779   5.687  0.00  0.00     0.163 HD
HETATM   37  H   UNK N   1      30.211  18.384   6.428  0.00  0.00     0.163 HD
ENDROOT
BRANCH   1  38
HETATM   38  N   UNK N   1      31.884  14.655   5.786  0.00  0.00    -0.346 N 
HETATM   39  C   UNK N   1      32.576  13.949   6.725  0.00  0.00     0.241 C 
HETATM   40  O   UNK N   1      32.101  12.891   7.105  0.00  0.00    -0.271 OA
HETATM   41  H   UNK N   1      31.069  14.198   5.476  0.00  0.00     0.163 HD
BRANCH  39  42
HETATM   42  C   UNK N   1      33.857  14.390   7.379  0.00  0.00     0.178 C 
BRANCH  42  43
HETATM   43  N   UNK N   1      33.814  14.421   8.829  0.00  0.00    -0.346 N 
HETATM   44  C   UNK N   1      34.470  15.390   9.526  0.00  0.00     0.243 C 
HETATM   45  O   UNK N   1      35.002  16.316   8.930  0.00  0.00    -0.271 OA
HETATM   46  H   UNK N   1      33.303  13.734   9.314  0.00  0.00     0.163 HD
BRANCH  44  47
HETATM   47  C   UNK N   1      34.627  15.270  11.032  0.00  0.00     0.205 C 
BRANCH  47  48
HETATM   48  N   UNK N   1      34.466  13.891  11.420  0.00  0.00    -0.344 N 
HETATM   49  C   UNK N   1      35.222  12.868  10.945  0.00  0.00     0.241 C 
HETATM   50  O   UNK N   1      36.235  13.083  10.295  0.00  0.00    -0.271 OA
HETATM   51  H   UNK N   1      33.762  13.676  12.073  0.00  0.00     0.163 HD
BRANCH  49  52
HETATM   52  C   UNK N   1      34.684  11.478  11.044  0.00  0.00     0.178 C 
BRANCH  52  53
HETATM   53  N   UNK N   1      35.573  10.700  11.878  0.00  0.00    -0.348 N 
HETATM   54  C   UNK N   1      35.217  10.232  13.092  0.00  0.00     0.218 C 
HETATM   55  O   UNK N   1      36.025   9.597  13.750  0.00  0.00    -0.274 OA
HETATM   56  H   UNK N   1      36.479  10.504  11.545  0.00  0.00     0.163 HD
BRANCH  54  57
HETATM   57  C   UNK N   1      33.833  10.444  13.621  0.00  0.00     0.103 C 
BRANCH  57  58
HETATM   58  C   UNK N   1      33.882  10.855  15.086  0.00  0.00     0.009 C 
BRANCH  58  59
HETATM   59  C   UNK N   1      34.535  12.223  15.242  0.00  0.00     0.001 C 
BRANCH  59  60
HETATM   60  C   UNK N   1      35.554  12.211  16.375  0.00  0.00     0.004 C 
BRANCH  60  61
HETATM   61  C   UNK N   1      35.026  12.969  17.587  0.00  0.00    -0.019 C 
HETATM   62  C   UNK N   1      35.639  14.356  17.681  0.00  0.00     0.010 C 
BRANCH  61  63
HETATM   63  C   UNK N   1      35.282  12.170  18.855  0.00  0.00    -0.000 C 
HETATM   64  C   UNK N   1      35.367  10.685  18.547  0.00  0.00     0.005 C 
ENDBRANCH  61  63
ENDBRANCH  60  61
ENDBRANCH  59  60
ENDBRANCH  58  59
ENDBRANCH  57  58
ENDBRANCH  54  57
ENDBRANCH  52  53
BRANCH  52  65
HETATM   65  C   UNK N   1      34.698  10.872   9.645  0.00  0.00     0.054 C 
BRANCH  65  66
HETATM   66  C   UNK N   1      33.349  10.251   9.310  0.00  0.00     0.113 C 
BRANCH  66  67
HETATM   67  N   UNK N   1      32.304  11.248   9.444  0.00  0.00    -0.430 N 
HETATM   68  H   UNK N   1      31.413  11.010   9.880  0.00  0.00     0.149 HD
HETATM   69  H   UNK N   1      32.461  12.195   9.099  0.00  0.00     0.149 HD
ENDBRANCH  66  67
ENDBRANCH  65  66
ENDBRANCH  52  65
ENDBRANCH  49  52
ENDBRANCH  47  48
BRANCH  47  70
HETATM   70  C   UNK N   1      35.842  15.950  11.683  0.00  0.00     0.146 C 
HETATM   71  C   UNK N   1      36.203  15.283  12.997  0.00  0.00     0.042 C 
BRANCH  70  72
HETATM   72  O   UNK N   1      36.958  16.008  10.850  0.00  0.00    -0.393 OA
HETATM   73  H   UNK N   1      37.924  15.928  10.879  0.00  0.00     0.210 HD
ENDBRANCH  70  72
ENDBRANCH  47  70
ENDBRANCH  44  47
ENDBRANCH  42  43
BRANCH  42  74
HETATM   74  C   UNK N   1      35.109  13.730   6.816  0.00  0.00     0.054 C 
BRANCH  74  75
HETATM   75  C   UNK N   1      35.904  14.688   5.951  0.00  0.00     0.113 C 
BRANCH  75  76
HETATM   76  N   UNK N   1      36.288  14.008   4.727  0.00  0.00    -0.430 N 
HETATM   77  H   UNK N   1      36.047  13.671   3.795  0.00  0.00     0.149 HD
HETATM   78  H   UNK N   1      37.263  13.741   4.864  0.00  0.00     0.149 HD
ENDBRANCH  75  76
ENDBRANCH  74  75
ENDBRANCH  42  74
ENDBRANCH  39  42
ENDBRANCH   1  38
BRANCH  27  79
HETATM   79  C   UNK N   1      28.010  17.458   5.584  0.00  0.00     0.054 C 
BRANCH  79  80
HETATM   80  C   UNK N   1      28.156  18.128   6.933  0.00  0.00     0.113 C 
BRANCH  80  81
HETATM   81  N   UNK N   1      27.445  17.347   7.929  0.00  0.00    -0.430 N 
HETATM   82  H   UNK N   1      27.207  16.362   8.042  0.00  0.00     0.149 HD
HETATM   83  H   UNK N   1      27.103  17.920   8.699  0.00  0.00     0.149 HD
ENDBRANCH  80  81
ENDBRANCH  79  80
ENDBRANCH  27  79
BRANCH   7  84
HETATM   84  C   UNK N   1      32.690  11.682   3.458  0.00  0.00     0.146 C 
HETATM   85  C   UNK N   1      33.751  11.410   4.497  0.00  0.00     0.042 C 
BRANCH  84  86
HETATM   86  O   UNK N   1      31.639  12.401   4.029  0.00  0.00    -0.393 OA
HETATM   87  H   UNK N   1      31.163  13.121   3.589  0.00  0.00     0.210 HD
ENDBRANCH  84  86
ENDBRANCH   7  84
BRANCH  23  88
HETATM   88  C   UNK N   1      26.669  14.185   4.489  0.00  0.00     0.073 C 
BRANCH  88  89
HETATM   89  C   UNK N   1      25.901  13.598   5.658  0.00  0.00    -0.056 A 
HETATM   90  C   UNK N   1      25.286  12.337   5.599  0.00  0.00     0.007 A 
HETATM   91  C   UNK N   1      24.637  11.805   6.715  0.00  0.00     0.001 A 
HETATM   92  C   UNK N   1      24.596  12.532   7.906  0.00  0.00     0.000 A 
HETATM   93  C   UNK N   1      25.197  13.792   7.974  0.00  0.00     0.001 A 
HETATM   94  C   UNK N   1      25.849  14.321   6.854  0.00  0.00     0.007 A 
ENDBRANCH  88  89
ENDBRANCH  23  88
BRANCH  11  95
HETATM   95  C   UNK N   1      33.305   9.861  -1.357  0.00  0.00     0.054 C 
BRANCH  95  96
HETATM   96  C   UNK N   1      33.095   8.710  -2.331  0.00  0.00     0.113 C 
BRANCH  96  97
HETATM   97  N   UNK N   1      33.211   7.433  -1.651  0.00  0.00    -0.430 N 
HETATM   98  H   UNK N   1      32.641   6.587  -1.677  0.00  0.00     0.149 HD
HETATM   99  H   UNK N   1      34.017   7.368  -1.029  0.00  0.00     0.149 HD
ENDBRANCH  96  97
ENDBRANCH  95  96
ENDBRANCH  11  95
BRANCH  19 100
HETATM  100  C   UNK N   1      26.014  12.000   1.174  0.00  0.00     0.038 C 
BRANCH 100 101
HETATM  101  C   UNK N   1      24.716  11.257   0.894  0.00  0.00    -0.020 C 
HETATM  102  C   UNK N   1      23.998  10.920   2.187  0.00  0.00     0.009 C 
HETATM  103  C   UNK N   1      23.827  12.137   0.045  0.00  0.00     0.009 C 
ENDBRANCH 100 101
ENDBRANCH  19 100
BRANCH  15 104
HETATM  104  C   UNK N   1      28.271   8.649  -1.697  0.00  0.00     0.054 C 
BRANCH 104 105
HETATM  105  C   UNK N   1      27.475   7.405  -2.048  0.00  0.00     0.113 C 
BRANCH 105 106
HETATM  106  N   UNK N   1      28.023   6.254  -1.347  0.00  0.00    -0.430 N 
HETATM  107  H   UNK N   1      27.706   6.015  -0.408  0.00  0.00     0.149 HD
HETATM  108  H   UNK N   1      28.733   5.681  -1.801  0.00  0.00     0.149 HD
ENDBRANCH 105 106
ENDBRANCH 104 105
ENDBRANCH  15 104
TORSDOF 36
ENDMDL
MODEL 3
REMARK VINA RESULT:      -7.2      2.374      7.012
REMARK WARNING: 32 MAX_TORS EXCEEDED!!!
REMARK  36 active torsions:
REMARK  status: ('A' for Active; 'I' for Inactive)
REMARK    1  A    between atoms: C_2  and  C_3 
REMARK    2  A    between atoms: C_3  and  C_5 
REMARK    3  A    between atoms: C_5  and  C_6 
REMARK    4  A    between atoms: C_6  and  C_7 
REMARK    5  A    between atoms: C_7  and  C_8 
REMARK    6  A    between atoms: C_8  and  C_9 
REMARK       I    between atoms: C_9  and  N_11 
REMARK    7  A    between atoms: N_11  and  C_12 
REMARK    8  A    between atoms: C_12  and  C_13 
REMARK    9  A    between atoms: C_12  and  C_16 
REMARK   10  A    between atoms: C_13  and  C_14 
REMARK   11  A    between atoms: C_14  and  N_15 
REMARK       I    between atoms: C_16  and  N_18 
REMARK   12  A    between atoms: N_18  and  C_19 
REMARK   13  A    between atoms: C_19  and  C_20 
REMARK   14  A    between atoms: C_19  and  C_23 
REMARK   15  A    between atoms: C_20  and  O_22 
REMARK       I    between atoms: C_23  and  N_25 
REMARK   16  A    between atoms: N_25  and  C_26 
REMARK   17  A    between atoms: C_26  and  C_27 
REMARK   18  A    between atoms: C_26  and  C_30 
REMARK   19  A    between atoms: C_27  and  C_28 
REMARK   20  A    between atoms: C_28  and  N_29 
REMARK       I    between atoms: C_30  and  N_32 
REMARK   21  A    between atoms: N_32  and  C_33 
REMARK   22  A    between atoms: C_39  and  C_83 
REMARK   23  A    between atoms: C_43  and  C_44 
REMARK   24  A    between atoms: C_44  and  C_45 
REMARK   25  A    between atoms: C_45  and  N_46 
REMARK   26  A    between atoms: C_50  and  C_51 
REMARK   27  A    between atoms: C_51  and  C_52 
REMARK   28  A    between atoms: C_52  and  N_53 
REMARK   29  A    between atoms: C_57  and  C_58 
REMARK   30  A    between atoms: C_58  and  C_59 
REMARK   31  A    between atoms: C_65  and  C_66 
REMARK   32  A    between atoms: C_66  and  C_67 
REMARK   33  A    between atoms: C_76  and  C_77 
REMARK   34  A    between atoms: C_77  and  C_78 
REMARK   35  A    between atoms: C_78  and  N_79 
REMARK   36  A    between atoms: C_83  and  O_85 
ROOT
HETATM    1  C   UNK N   1      33.296  12.005   4.801  0.00  0.00     0.178 C 
HETATM    2  C   UNK N   1      33.901  12.340   6.161  0.00  0.00     0.054 C 
HETATM    3  C   UNK N   1      32.800  12.691   7.143  0.00  0.00     0.125 C 
HETATM    4  N   UNK N   1      32.021  13.752   6.569  0.00  0.00    -0.359 N 
HETATM    5  C   UNK N   1      32.035  15.000   7.072  0.00  0.00     0.243 C 
HETATM    6  O   UNK N   1      32.633  15.251   8.107  0.00  0.00    -0.271 OA
HETATM    7  C   UNK N   1      31.401  16.095   6.290  0.00  0.00     0.205 C 
HETATM    8  N   UNK N   1      30.372  16.873   6.934  0.00  0.00    -0.344 N 
HETATM    9  C   UNK N   1      29.097  16.831   6.497  0.00  0.00     0.241 C 
HETATM   10  O   UNK N   1      28.794  16.078   5.594  0.00  0.00    -0.271 OA
HETATM   11  C   UNK N   1      28.044  17.705   7.130  0.00  0.00     0.178 C 
HETATM   12  N   UNK N   1      26.916  17.919   6.244  0.00  0.00    -0.346 N 
HETATM   13  C   UNK N   1      27.019  18.502   5.020  0.00  0.00     0.241 C 
HETATM   14  O   UNK N   1      28.070  19.001   4.648  0.00  0.00    -0.271 OA
HETATM   15  C   UNK N   1      25.905  18.357   4.034  0.00  0.00     0.178 C 
HETATM   16  N   UNK N   1      26.206  17.289   3.086  0.00  0.00    -0.346 N 
HETATM   17  C   UNK N   1      26.476  15.994   3.433  0.00  0.00     0.241 C 
HETATM   18  O   UNK N   1      26.468  15.644   4.602  0.00  0.00    -0.271 OA
HETATM   19  C   UNK N   1      26.610  14.962   2.351  0.00  0.00     0.177 C 
HETATM   20  N   UNK N   1      27.918  14.377   2.087  0.00  0.00    -0.346 N 
HETATM   21  C   UNK N   1      28.696  13.600   2.897  0.00  0.00     0.241 C 
HETATM   22  O   UNK N   1      28.504  13.547   4.102  0.00  0.00    -0.271 OA
HETATM   23  C   UNK N   1      29.590  12.594   2.183  0.00  0.00     0.180 C 
HETATM   24  N   UNK N   1      30.702  11.856   2.783  0.00  0.00    -0.346 N 
HETATM   25  C   UNK N   1      30.649  11.025   3.858  0.00  0.00     0.241 C 
HETATM   26  O   UNK N   1      29.803  11.177   4.722  0.00  0.00    -0.271 OA
HETATM   27  C   UNK N   1      31.434   9.723   3.828  0.00  0.00     0.178 C 
HETATM   28  N   UNK N   1      32.893   9.722   3.896  0.00  0.00    -0.346 N 
HETATM   29  C   UNK N   1      33.759  10.692   4.280  0.00  0.00     0.241 C 
HETATM   30  O   UNK N   1      34.959  10.480   4.190  0.00  0.00    -0.271 OA
HETATM   31  H   UNK N   1      31.460  13.562   5.782  0.00  0.00     0.162 HD
HETATM   32  H   UNK N   1      30.604  17.444   7.702  0.00  0.00     0.163 HD
HETATM   33  H   UNK N   1      26.026  17.625   6.545  0.00  0.00     0.163 HD
HETATM   34  H   UNK N   1      26.216  17.517   2.128  0.00  0.00     0.163 HD
HETATM   35  H   UNK N   1      28.294  14.568   1.198  0.00  0.00     0.163 HD
HETATM   36  H   UNK N   1      31.584  11.974   2.362  0.00  0.00     0.163 HD
HETATM   37  H   UNK N   1      33.316   8.877   3.621  0.00  0.00     0.163 HD
ENDROOT
BRANCH   1  38
HETATM   38  N   UNK N   1      33.349  13.013   3.751  0.00  0.00    -0.346 N 
HETATM   39  C   UNK N   1      34.376  13.650   3.120  0.00  0.00     0.241 C 
HETATM   40  O   UNK N   1      34.096  14.430   2.224  0.00  0.00    -0.271 OA
HETATM   41  H   UNK N   1      32.461  13.291   3.431  0.00  0.00     0.163 HD
BRANCH  39  42
HETATM   42  C   UNK N   1      35.839  13.435   3.398  0.00  0.00     0.178 C 
BRANCH  42  43
HETATM   43  N   UNK N   1      36.143  13.063   4.767  0.00  0.00    -0.346 N 
HETATM   44  C   UNK N   1      37.261  13.533   5.385  0.00  0.00     0.243 C 
HETATM   45  O   UNK N   1      37.957  14.373   4.832  0.00  0.00    -0.271 OA
HETATM   46  H   UNK N   1      35.533  12.464   5.255  0.00  0.00     0.163 HD
BRANCH  44  47
HETATM   47  C   UNK N   1      37.700  12.945   6.716  0.00  0.00     0.205 C 
BRANCH  47  48
HETATM   48  N   UNK N   1      36.984  13.597   7.785  0.00  0.00    -0.344 N 
HETATM   49  C   UNK N   1      37.566  14.088   8.909  0.00  0.00     0.241 C 
HETATM   50  O   UNK N   1      38.782  14.185   8.998  0.00  0.00    -0.271 OA
HETATM   51  H   UNK N   1      36.009  13.693   7.692  0.00  0.00     0.163 HD
BRANCH  49  52
HETATM   52  C   UNK N   1      36.713  14.308  10.116  0.00  0.00     0.178 C 
BRANCH  52  53
HETATM   53  N   UNK N   1      36.305  13.020  10.631  0.00  0.00    -0.348 N 
HETATM   54  C   UNK N   1      36.224  12.750  11.950  0.00  0.00     0.218 C 
HETATM   55  O   UNK N   1      35.888  11.635  12.314  0.00  0.00    -0.274 OA
HETATM   56  H   UNK N   1      36.077  12.309   9.989  0.00  0.00     0.163 HD
BRANCH  54  57
HETATM   57  C   UNK N   1      36.496  13.813  12.968  0.00  0.00     0.103 C 
BRANCH  57  58
HETATM   58  C   UNK N   1      35.586  13.635  14.177  0.00  0.00     0.009 C 
BRANCH  58  59
HETATM   59  C   UNK N   1      36.404  13.496  15.454  0.00  0.00     0.001 C 
BRANCH  59  60
HETATM   60  C   UNK N   1      36.056  12.204  16.183  0.00  0.00     0.004 C 
BRANCH  60  61
HETATM   61  C   UNK N   1      35.116  12.478  17.351  0.00  0.00    -0.019 C 
HETATM   62  C   UNK N   1      35.312  13.881  17.901  0.00  0.00     0.010 C 
BRANCH  61  63
HETATM   63  C   UNK N   1      35.313  11.433  18.437  0.00  0.00    -0.000 C 
HETATM   64  C   UNK N   1      35.313  12.079  19.812  0.00  0.00     0.005 C 
ENDBRANCH  61  63
ENDBRANCH  60  61
ENDBRANCH  59  60
ENDBRANCH  58  59
ENDBRANCH  57  58
ENDBRANCH  54  57
ENDBRANCH  52  53
BRANCH  52  65
HETATM   65  C   UNK N   1      35.464  15.058   9.672  0.00  0.00     0.054 C 
BRANCH  65  66
HETATM   66  C   UNK N   1      35.313  16.363  10.441  0.00  0.00     0.113 C 
BRANCH  66  67
HETATM   67  N   UNK N   1      34.298  17.188   9.812  0.00  0.00    -0.430 N 
HETATM   68  H   UNK N   1      33.970  16.979   8.870  0.00  0.00     0.149 HD
HETATM   69  H   UNK N   1      33.908  17.983  10.318  0.00  0.00     0.149 HD
ENDBRANCH  66  67
ENDBRANCH  65  66
ENDBRANCH  52  65
ENDBRANCH  49  52
ENDBRANCH  47  48
BRANCH  47  70
HETATM   70  C   UNK N   1      37.732  11.414   6.848  0.00  0.00     0.146 C 
HETATM   71  C   UNK N   1      36.681  10.927   7.827  0.00  0.00     0.042 C 
BRANCH  70  72
HETATM   72  O   UNK N   1      37.601  10.749   5.630  0.00  0.00    -0.393 OA
HETATM   73  H   UNK N   1      37.462   9.859   5.269  0.00  0.00     0.210 HD
ENDBRANCH  70  72
ENDBRANCH  47  70
ENDBRANCH  44  47
ENDBRANCH  42  43
BRANCH  42  74
HETATM   74  C   UNK N   1      36.558  12.586   2.357  0.00  0.00     0.054 C 
BRANCH  74  75
HETATM   75  C   UNK N   1      37.401  13.438   1.429  0.00  0.00     0.113 C 
BRANCH  75  76
HETATM   76  N   UNK N   1      36.993  13.187   0.059  0.00  0.00    -0.430 N 
HETATM   77  H   UNK N   1      36.346  12.754  -0.602  0.00  0.00     0.149 HD
HETATM   78  H   UNK N   1      37.677  13.676  -0.518  0.00  0.00     0.149 HD
ENDBRANCH  75  76
ENDBRANCH  74  75
ENDBRANCH  42  74
ENDBRANCH  39  42
ENDBRANCH   1  38
BRANCH  27  79
HETATM   79  C   UNK N   1      31.028   9.005   2.544  0.00  0.00     0.054 C 
BRANCH  79  80
HETATM   80  C   UNK N   1      30.031   7.897   2.806  0.00  0.00     0.113 C 
BRANCH  80  81
HETATM   81  N   UNK N   1      28.744   8.485   3.129  0.00  0.00    -0.430 N 
HETATM   82  H   UNK N   1      28.271   8.767   3.988  0.00  0.00     0.149 HD
HETATM   83  H   UNK N   1      28.177   8.656   2.300  0.00  0.00     0.149 HD
ENDBRANCH  80  81
ENDBRANCH  79  80
ENDBRANCH  27  79
BRANCH   7  84
HETATM   84  C   UNK N   1      31.748  16.359   4.818  0.00  0.00     0.146 C 
HETATM   85  C   UNK N   1      33.167  16.841   4.628  0.00  0.00     0.042 C 
BRANCH  84  86
HETATM   86  O   UNK N   1      31.520  15.232   4.028  0.00  0.00    -0.393 OA
HETATM   87  H   UNK N   1      31.836  15.125   3.118  0.00  0.00     0.210 HD
ENDBRANCH  84  86
ENDBRANCH   7  84
BRANCH  23  88
HETATM   88  C   UNK N   1      28.731  11.641   1.324  0.00  0.00     0.073 C 
BRANCH  88  89
HETATM   89  C   UNK N   1      29.333  11.151   0.020  0.00  0.00    -0.056 A 
HETATM   90  C   UNK N   1      30.208  11.936  -0.748  0.00  0.00     0.007 A 
HETATM   91  C   UNK N   1      30.788  11.429  -1.912  0.00  0.00     0.001 A 
HETATM   92  C   UNK N   1      30.497  10.127  -2.323  0.00  0.00     0.000 A 
HETATM   93  C   UNK N   1      29.620   9.339  -1.571  0.00  0.00     0.001 A 
HETATM   94  C   UNK N   1      29.043   9.850  -0.402  0.00  0.00     0.007 A 
ENDBRANCH  88  89
ENDBRANCH  23  88
BRANCH  11  95
HETATM   95  C   UNK N   1      28.502  18.925   7.941  0.00  0.00     0.054 C 
BRANCH  95  96
HETATM   96  C   UNK N   1      28.660  18.687   9.437  0.00  0.00     0.113 C 
BRANCH  96  97
HETATM   97  N   UNK N   1      30.063  18.687   9.812  0.00  0.00    -0.430 N 
HETATM   98  H   UNK N   1      30.573  18.217  10.560  0.00  0.00     0.149 HD
HETATM   99  H   UNK N   1      30.650  19.269   9.214  0.00  0.00     0.149 HD
ENDBRANCH  96  97
ENDBRANCH  95  96
ENDBRANCH  11  95
BRANCH  19 100
HETATM  100  C   UNK N   1      25.573  13.849   2.482  0.00  0.00     0.038 C 
BRANCH 100 101
HETATM  101  C   UNK N   1      25.071  13.335   1.142  0.00  0.00    -0.020 C 
HETATM  102  C   UNK N   1      24.873  11.832   1.181  0.00  0.00     0.009 C 
HETATM  103  C   UNK N   1      23.751  14.004   0.830  0.00  0.00     0.009 C 
ENDBRANCH 100 101
ENDBRANCH  19 100
BRANCH  15 104
HETATM  104  C   UNK N   1      24.537  18.169   4.680  0.00  0.00     0.054 C 
BRANCH 104 105
HETATM  105  C   UNK N   1      23.485  18.954   3.916  0.00  0.00     0.113 C 
BRANCH 105 106
HETATM  106  N   UNK N   1      24.062  20.191   3.414  0.00  0.00    -0.430 N 
HETATM  107  H   UNK N   1      23.823  21.088   3.837  0.00  0.00     0.149 HD
HETATM  108  H   UNK N   1      24.712  20.160   2.629  0.00  0.00     0.149 HD
ENDBRANCH 105 106
ENDBRANCH 104 105
ENDBRANCH  15 104
TORSDOF 36
ENDMDL
MODEL 4
REMARK VINA RESULT:      -7.2      2.390      5.368
REMARK WARNING: 32 MAX_TORS EXCEEDED!!!
REMARK  36 active torsions:
REMARK  status: ('A' for Active; 'I' for Inactive)
REMARK    1  A    between atoms: C_2  and  C_3 
REMARK    2  A    between atoms: C_3  and  C_5 
REMARK    3  A    between atoms: C_5  and  C_6 
REMARK    4  A    between atoms: C_6  and  C_7 
REMARK    5  A    between atoms: C_7  and  C_8 
REMARK    6  A    between atoms: C_8  and  C_9 
REMARK       I    between atoms: C_9  and  N_11 
REMARK    7  A    between atoms: N_11  and  C_12 
REMARK    8  A    between atoms: C_12  and  C_13 
REMARK    9  A    between atoms: C_12  and  C_16 
REMARK   10  A    between atoms: C_13  and  C_14 
REMARK   11  A    between atoms: C_14  and  N_15 
REMARK       I    between atoms: C_16  and  N_18 
REMARK   12  A    between atoms: N_18  and  C_19 
REMARK   13  A    between atoms: C_19  and  C_20 
REMARK   14  A    between atoms: C_19  and  C_23 
REMARK   15  A    between atoms: C_20  and  O_22 
REMARK       I    between atoms: C_23  and  N_25 
REMARK   16  A    between atoms: N_25  and  C_26 
REMARK   17  A    between atoms: C_26  and  C_27 
REMARK   18  A    between atoms: C_26  and  C_30 
REMARK   19  A    between atoms: C_27  and  C_28 
REMARK   20  A    between atoms: C_28  and  N_29 
REMARK       I    between atoms: C_30  and  N_32 
REMARK   21  A    between atoms: N_32  and  C_33 
REMARK   22  A    between atoms: C_39  and  C_83 
REMARK   23  A    between atoms: C_43  and  C_44 
REMARK   24  A    between atoms: C_44  and  C_45 
REMARK   25  A    between atoms: C_45  and  N_46 
REMARK   26  A    between atoms: C_50  and  C_51 
REMARK   27  A    between atoms: C_51  and  C_52 
REMARK   28  A    between atoms: C_52  and  N_53 
REMARK   29  A    between atoms: C_57  and  C_58 
REMARK   30  A    between atoms: C_58  and  C_59 
REMARK   31  A    between atoms: C_65  and  C_66 
REMARK   32  A    between atoms: C_66  and  C_67 
REMARK   33  A    between atoms: C_76  and  C_77 
REMARK   34  A    between atoms: C_77  and  C_78 
REMARK   35  A    between atoms: C_78  and  N_79 
REMARK   36  A    between atoms: C_83  and  O_85 
ROOT
HETATM    1  C   UNK N   1      34.554  12.936   5.525  0.00  0.00     0.178 C 
HETATM    2  C   UNK N   1      35.336  11.882   4.747  0.00  0.00     0.054 C 
HETATM    3  C   UNK N   1      34.793  11.775   3.334  0.00  0.00     0.125 C 
HETATM    4  N   UNK N   1      33.384  11.514   3.424  0.00  0.00    -0.359 N 
HETATM    5  C   UNK N   1      32.854  10.330   3.068  0.00  0.00     0.243 C 
HETATM    6  O   UNK N   1      33.545   9.465   2.552  0.00  0.00    -0.271 OA
HETATM    7  C   UNK N   1      31.435  10.047   3.412  0.00  0.00     0.205 C 
HETATM    8  N   UNK N   1      30.541   9.689   2.339  0.00  0.00    -0.344 N 
HETATM    9  C   UNK N   1      29.518  10.496   1.991  0.00  0.00     0.241 C 
HETATM   10  O   UNK N   1      29.385  11.571   2.540  0.00  0.00    -0.271 OA
HETATM   11  C   UNK N   1      28.545  10.076   0.918  0.00  0.00     0.178 C 
HETATM   12  N   UNK N   1      27.278  10.772   1.036  0.00  0.00    -0.346 N 
HETATM   13  C   UNK N   1      26.481  10.703   2.135  0.00  0.00     0.241 C 
HETATM   14  O   UNK N   1      26.735   9.935   3.049  0.00  0.00    -0.271 OA
HETATM   15  C   UNK N   1      25.397  11.715   2.329  0.00  0.00     0.178 C 
HETATM   16  N   UNK N   1      25.844  12.766   3.237  0.00  0.00    -0.346 N 
HETATM   17  C   UNK N   1      26.953  13.541   3.043  0.00  0.00     0.241 C 
HETATM   18  O   UNK N   1      27.652  13.399   2.053  0.00  0.00    -0.271 OA
HETATM   19  C   UNK N   1      27.210  14.693   3.971  0.00  0.00     0.177 C 
HETATM   20  N   UNK N   1      28.337  14.625   4.892  0.00  0.00    -0.346 N 
HETATM   21  C   UNK N   1      29.673  14.574   4.618  0.00  0.00     0.241 C 
HETATM   22  O   UNK N   1      30.084  14.271   3.509  0.00  0.00    -0.271 OA
HETATM   23  C   UNK N   1      30.583  15.205   5.664  0.00  0.00     0.180 C 
HETATM   24  N   UNK N   1      32.035  15.039   5.753  0.00  0.00    -0.346 N 
HETATM   25  C   UNK N   1      32.953  15.336   4.795  0.00  0.00     0.241 C 
HETATM   26  O   UNK N   1      32.653  15.308   3.614  0.00  0.00    -0.271 OA
HETATM   27  C   UNK N   1      34.256  16.006   5.200  0.00  0.00     0.178 C 
HETATM   28  N   UNK N   1      35.275  15.279   5.953  0.00  0.00    -0.346 N 
HETATM   29  C   UNK N   1      35.439  13.948   6.158  0.00  0.00     0.241 C 
HETATM   30  O   UNK N   1      36.341  13.573   6.890  0.00  0.00    -0.271 OA
HETATM   31  H   UNK N   1      32.786  12.223   3.758  0.00  0.00     0.162 HD
HETATM   32  H   UNK N   1      30.679   8.842   1.855  0.00  0.00     0.163 HD
HETATM   33  H   UNK N   1      26.980  11.326   0.279  0.00  0.00     0.163 HD
HETATM   34  H   UNK N   1      25.309  12.927   4.047  0.00  0.00     0.163 HD
HETATM   35  H   UNK N   1      28.101  14.615   5.848  0.00  0.00     0.163 HD
HETATM   36  H   UNK N   1      32.383  14.673   6.597  0.00  0.00     0.163 HD
HETATM   37  H   UNK N   1      35.954  15.849   6.381  0.00  0.00     0.163 HD
ENDROOT
BRANCH   1  38
HETATM   38  N   UNK N   1      33.540  12.489   6.469  0.00  0.00    -0.346 N 
HETATM   39  C   UNK N   1      33.522  11.526   7.434  0.00  0.00     0.241 C 
HETATM   40  O   UNK N   1      32.514  11.420   8.113  0.00  0.00    -0.271 OA
HETATM   41  H   UNK N   1      32.692  12.985   6.397  0.00  0.00     0.163 HD
BRANCH  39  42
HETATM   42  C   UNK N   1      34.667  10.610   7.773  0.00  0.00     0.178 C 
BRANCH  42  43
HETATM   43  N   UNK N   1      35.438  11.014   8.934  0.00  0.00    -0.346 N 
HETATM   44  C   UNK N   1      36.794  10.893   8.947  0.00  0.00     0.243 C 
HETATM   45  O   UNK N   1      37.387  10.556   7.932  0.00  0.00    -0.271 OA
HETATM   46  H   UNK N   1      34.975  11.381   9.721  0.00  0.00     0.163 HD
BRANCH  44  47
HETATM   47  C   UNK N   1      37.563  11.079  10.245  0.00  0.00     0.205 C 
BRANCH  47  48
HETATM   48  N   UNK N   1      36.766  11.854  11.164  0.00  0.00    -0.344 N 
HETATM   49  C   UNK N   1      37.028  13.141  11.507  0.00  0.00     0.241 C 
HETATM   50  O   UNK N   1      37.858  13.800  10.896  0.00  0.00    -0.271 OA
HETATM   51  H   UNK N   1      35.980  11.422  11.568  0.00  0.00     0.163 HD
BRANCH  49  52
HETATM   52  C   UNK N   1      36.443  13.675  12.774  0.00  0.00     0.178 C 
BRANCH  52  53
HETATM   53  N   UNK N   1      35.240  12.932  13.074  0.00  0.00    -0.348 N 
HETATM   54  C   UNK N   1      34.936  12.498  14.314  0.00  0.00     0.218 C 
HETATM   55  O   UNK N   1      33.910  11.861  14.492  0.00  0.00    -0.274 OA
HETATM   56  H   UNK N   1      34.616  12.732  12.339  0.00  0.00     0.163 HD
BRANCH  54  57
HETATM   57  C   UNK N   1      35.815  12.829  15.480  0.00  0.00     0.103 C 
BRANCH  57  58
HETATM   58  C   UNK N   1      34.979  13.014  16.739  0.00  0.00     0.009 C 
BRANCH  58  59
HETATM   59  C   UNK N   1      35.456  12.082  17.846  0.00  0.00     0.001 C 
BRANCH  59  60
HETATM   60  C   UNK N   1      34.870  10.687  17.670  0.00  0.00     0.004 C 
BRANCH  60  61
HETATM   61  C   UNK N   1      35.913   9.618  17.978  0.00  0.00    -0.019 C 
HETATM   62  C   UNK N   1      36.726   9.979  19.210  0.00  0.00     0.010 C 
BRANCH  61  63
HETATM   63  C   UNK N   1      36.813   9.403  16.772  0.00  0.00    -0.000 C 
HETATM   64  C   UNK N   1      35.991   9.070  15.539  0.00  0.00     0.005 C 
ENDBRANCH  61  63
ENDBRANCH  60  61
ENDBRANCH  59  60
ENDBRANCH  58  59
ENDBRANCH  57  58
ENDBRANCH  54  57
ENDBRANCH  52  53
BRANCH  52  65
HETATM   65  C   UNK N   1      36.053  15.128  12.530  0.00  0.00     0.054 C 
BRANCH  65  66
HETATM   66  C   UNK N   1      34.947  15.226  11.490  0.00  0.00     0.113 C 
BRANCH  66  67
HETATM   67  N   UNK N   1      34.885  16.577  10.966  0.00  0.00    -0.430 N 
HETATM   68  H   UNK N   1      33.997  16.973  10.658  0.00  0.00     0.149 HD
HETATM   69  H   UNK N   1      35.736  17.136  10.906  0.00  0.00     0.149 HD
ENDBRANCH  66  67
ENDBRANCH  65  66
ENDBRANCH  52  65
ENDBRANCH  49  52
ENDBRANCH  47  48
BRANCH  47  70
HETATM   70  C   UNK N   1      38.198   9.835  10.887  0.00  0.00     0.146 C 
HETATM   71  C   UNK N   1      37.795   9.705  12.344  0.00  0.00     0.042 C 
BRANCH  70  72
HETATM   72  O   UNK N   1      37.920   8.654  10.203  0.00  0.00    -0.393 OA
HETATM   73  H   UNK N   1      37.746   7.714  10.364  0.00  0.00     0.210 HD
ENDBRANCH  70  72
ENDBRANCH  47  70
ENDBRANCH  44  47
ENDBRANCH  42  43
BRANCH  42  74
HETATM   74  C   UNK N   1      34.313   9.129   7.757  0.00  0.00     0.054 C 
BRANCH  74  75
HETATM   75  C   UNK N   1      34.122   8.585   9.159  0.00  0.00     0.113 C 
BRANCH  75  76
HETATM   76  N   UNK N   1      32.716   8.676   9.511  0.00  0.00    -0.430 N 
HETATM   77  H   UNK N   1      31.992   8.770  10.224  0.00  0.00     0.149 HD
HETATM   78  H   UNK N   1      32.214   8.619   8.625  0.00  0.00     0.149 HD
ENDBRANCH  75  76
ENDBRANCH  74  75
ENDBRANCH  42  74
ENDBRANCH  39  42
ENDBRANCH   1  38
BRANCH  27  79
HETATM   79  C   UNK N   1      33.872  17.242   6.009  0.00  0.00     0.054 C 
BRANCH  79  80
HETATM   80  C   UNK N   1      34.397  17.176   7.426  0.00  0.00     0.113 C 
BRANCH  80  81
HETATM   81  N   UNK N   1      34.297  18.492   8.030  0.00  0.00    -0.430 N 
HETATM   82  H   UNK N   1      34.544  18.895   8.935  0.00  0.00     0.149 HD
HETATM   83  H   UNK N   1      33.883  19.178   7.400  0.00  0.00     0.149 HD
ENDBRANCH  80  81
ENDBRANCH  79  80
ENDBRANCH  27  79
BRANCH   7  84
HETATM   84  C   UNK N   1      30.890  10.205   4.839  0.00  0.00     0.146 C 
HETATM   85  C   UNK N   1      31.436   9.169   5.792  0.00  0.00     0.042 C 
BRANCH  84  86
HETATM   86  O   UNK N   1      31.129  11.485   5.339  0.00  0.00    -0.393 OA
HETATM   87  H   UNK N   1      30.450  12.064   5.717  0.00  0.00     0.210 HD
ENDBRANCH  84  86
ENDBRANCH   7  84
BRANCH  23  88
HETATM   88  C   UNK N   1      30.214  16.692   5.859  0.00  0.00     0.073 C 
BRANCH  88  89
HETATM   89  C   UNK N   1      29.804  17.127   7.254  0.00  0.00    -0.056 A 
HETATM   90  C   UNK N   1      30.732  17.590   8.202  0.00  0.00     0.007 A 
HETATM   91  C   UNK N   1      30.310  18.036   9.455  0.00  0.00     0.001 A 
HETATM   92  C   UNK N   1      28.952  18.025   9.776  0.00  0.00     0.000 A 
HETATM   93  C   UNK N   1      28.021  17.558   8.844  0.00  0.00     0.001 A 
HETATM   94  C   UNK N   1      28.446  17.114   7.587  0.00  0.00     0.007 A 
ENDBRANCH  88  89
ENDBRANCH  23  88
BRANCH  11  95
HETATM   95  C   UNK N   1      28.463   8.588   0.552  0.00  0.00     0.054 C 
BRANCH  95  96
HETATM   96  C   UNK N   1      29.232   8.184  -0.699  0.00  0.00     0.113 C 
BRANCH  96  97
HETATM   97  N   UNK N   1      28.459   8.470  -1.894  0.00  0.00    -0.430 N 
HETATM   98  H   UNK N   1      27.516   8.834  -2.030  0.00  0.00     0.149 HD
HETATM   99  H   UNK N   1      28.953   8.267  -2.763  0.00  0.00     0.149 HD
ENDBRANCH  96  97
ENDBRANCH  95  96
ENDBRANCH  11  95
BRANCH  19 100
HETATM  100  C   UNK N   1      27.232  16.032   3.238  0.00  0.00     0.038 C 
BRANCH 100 101
HETATM  101  C   UNK N   1      26.732  17.191   4.087  0.00  0.00    -0.020 C 
HETATM  102  C   UNK N   1      27.648  18.392   3.954  0.00  0.00     0.009 C 
HETATM  103  C   UNK N   1      25.344  17.569   3.621  0.00  0.00     0.009 C 
ENDBRANCH 100 101
ENDBRANCH  19 100
BRANCH  15 104
HETATM  104  C   UNK N   1      24.856  12.289   1.023  0.00  0.00     0.054 C 
BRANCH 104 105
HETATM  105  C   UNK N   1      23.639  13.155   1.297  0.00  0.00     0.113 C 
BRANCH 105 106
HETATM  106  N   UNK N   1      22.696  13.042   0.196  0.00  0.00    -0.430 N 
HETATM  107  H   UNK N   1      22.054  12.252   0.138  0.00  0.00     0.149 HD
HETATM  108  H   UNK N   1      22.677  13.762  -0.525  0.00  0.00     0.149 HD
ENDBRANCH 105 106
ENDBRANCH 104 105
ENDBRANCH  15 104
TORSDOF 36
ENDMDL
MODEL 5
REMARK VINA RESULT:      -7.2      2.693      5.355
REMARK WARNING: 32 MAX_TORS EXCEEDED!!!
REMARK  36 active torsions:
REMARK  status: ('A' for Active; 'I' for Inactive)
REMARK    1  A    between atoms: C_2  and  C_3 
REMARK    2  A    between atoms: C_3  and  C_5 
REMARK    3  A    between atoms: C_5  and  C_6 
REMARK    4  A    between atoms: C_6  and  C_7 
REMARK    5  A    between atoms: C_7  and  C_8 
REMARK    6  A    between atoms: C_8  and  C_9 
REMARK       I    between atoms: C_9  and  N_11 
REMARK    7  A    between atoms: N_11  and  C_12 
REMARK    8  A    between atoms: C_12  and  C_13 
REMARK    9  A    between atoms: C_12  and  C_16 
REMARK   10  A    between atoms: C_13  and  C_14 
REMARK   11  A    between atoms: C_14  and  N_15 
REMARK       I    between atoms: C_16  and  N_18 
REMARK   12  A    between atoms: N_18  and  C_19 
REMARK   13  A    between atoms: C_19  and  C_20 
REMARK   14  A    between atoms: C_19  and  C_23 
REMARK   15  A    between atoms: C_20  and  O_22 
REMARK       I    between atoms: C_23  and  N_25 
REMARK   16  A    between atoms: N_25  and  C_26 
REMARK   17  A    between atoms: C_26  and  C_27 
REMARK   18  A    between atoms: C_26  and  C_30 
REMARK   19  A    between atoms: C_27  and  C_28 
REMARK   20  A    between atoms: C_28  and  N_29 
REMARK       I    between atoms: C_30  and  N_32 
REMARK   21  A    between atoms: N_32  and  C_33 
REMARK   22  A    between atoms: C_39  and  C_83 
REMARK   23  A    between atoms: C_43  and  C_44 
REMARK   24  A    between atoms: C_44  and  C_45 
REMARK   25  A    between atoms: C_45  and  N_46 
REMARK   26  A    between atoms: C_50  and  C_51 
REMARK   27  A    between atoms: C_51  and  C_52 
REMARK   28  A    between atoms: C_52  and  N_53 
REMARK   29  A    between atoms: C_57  and  C_58 
REMARK   30  A    between atoms: C_58  and  C_59 
REMARK   31  A    between atoms: C_65  and  C_66 
REMARK   32  A    between atoms: C_66  and  C_67 
REMARK   33  A    between atoms: C_76  and  C_77 
REMARK   34  A    between atoms: C_77  and  C_78 
REMARK   35  A    between atoms: C_78  and  N_79 
REMARK   36  A    between atoms: C_83  and  O_85 
ROOT
HETATM    1  C   UNK N   1      34.475  13.261   5.593  0.00  0.00     0.178 C 
HETATM    2  C   UNK N   1      35.287  12.248   4.791  0.00  0.00     0.054 C 
HETATM    3  C   UNK N   1      34.779  12.195   3.362  0.00  0.00     0.125 C 
HETATM    4  N   UNK N   1      33.371  11.916   3.407  0.00  0.00    -0.359 N 
HETATM    5  C   UNK N   1      32.863  10.743   2.989  0.00  0.00     0.243 C 
HETATM    6  O   UNK N   1      33.575   9.907   2.454  0.00  0.00    -0.271 OA
HETATM    7  C   UNK N   1      31.440  10.432   3.286  0.00  0.00     0.205 C 
HETATM    8  N   UNK N   1      30.575  10.110   2.178  0.00  0.00    -0.344 N 
HETATM    9  C   UNK N   1      29.552  10.921   1.839  0.00  0.00     0.241 C 
HETATM   10  O   UNK N   1      29.395  11.971   2.429  0.00  0.00    -0.271 OA
HETATM   11  C   UNK N   1      28.610  10.537   0.725  0.00  0.00     0.178 C 
HETATM   12  N   UNK N   1      27.333  11.215   0.842  0.00  0.00    -0.346 N 
HETATM   13  C   UNK N   1      26.510  11.093   1.917  0.00  0.00     0.241 C 
HETATM   14  O   UNK N   1      26.750  10.289   2.804  0.00  0.00    -0.271 OA
HETATM   15  C   UNK N   1      25.412  12.085   2.126  0.00  0.00     0.178 C 
HETATM   16  N   UNK N   1      25.825  13.101   3.088  0.00  0.00    -0.346 N 
HETATM   17  C   UNK N   1      26.930  13.895   2.953  0.00  0.00     0.241 C 
HETATM   18  O   UNK N   1      27.654  13.801   1.975  0.00  0.00    -0.271 OA
HETATM   19  C   UNK N   1      27.152  15.009   3.934  0.00  0.00     0.177 C 
HETATM   20  N   UNK N   1      28.257  14.914   4.879  0.00  0.00    -0.346 N 
HETATM   21  C   UNK N   1      29.601  14.888   4.636  0.00  0.00     0.241 C 
HETATM   22  O   UNK N   1      30.042  14.635   3.526  0.00  0.00    -0.271 OA
HETATM   23  C   UNK N   1      30.478  15.483   5.729  0.00  0.00     0.180 C 
HETATM   24  N   UNK N   1      31.929  15.327   5.846  0.00  0.00    -0.346 N 
HETATM   25  C   UNK N   1      32.867  15.673   4.924  0.00  0.00     0.241 C 
HETATM   26  O   UNK N   1      32.595  15.692   3.736  0.00  0.00    -0.271 OA
HETATM   27  C   UNK N   1      34.153  16.338   5.389  0.00  0.00     0.178 C 
HETATM   28  N   UNK N   1      35.160  15.590   6.136  0.00  0.00    -0.346 N 
HETATM   29  C   UNK N   1      35.334  14.254   6.289  0.00  0.00     0.241 C 
HETATM   30  O   UNK N   1      36.223  13.857   7.027  0.00  0.00    -0.271 OA
HETATM   31  H   UNK N   1      32.759  12.604   3.755  0.00  0.00     0.162 HD
HETATM   32  H   UNK N   1      30.734   9.286   1.662  0.00  0.00     0.163 HD
HETATM   33  H   UNK N   1      27.047  11.798   0.101  0.00  0.00     0.163 HD
HETATM   34  H   UNK N   1      25.269  13.224   3.891  0.00  0.00     0.163 HD
HETATM   35  H   UNK N   1      27.999  14.861   5.827  0.00  0.00     0.163 HD
HETATM   36  H   UNK N   1      32.261  14.930   6.683  0.00  0.00     0.163 HD
HETATM   37  H   UNK N   1      35.823  16.148   6.604  0.00  0.00     0.163 HD
ENDROOT
BRANCH   1  38
HETATM   38  N   UNK N   1      33.444  12.765   6.493  0.00  0.00    -0.346 N 
HETATM   39  C   UNK N   1      33.474  12.251   7.756  0.00  0.00     0.241 C 
HETATM   40  O   UNK N   1      32.410  11.962   8.277  0.00  0.00    -0.271 OA
HETATM   41  H   UNK N   1      32.537  12.809   6.111  0.00  0.00     0.163 HD
BRANCH  39  42
HETATM   42  C   UNK N   1      34.712  12.060   8.590  0.00  0.00     0.178 C 
BRANCH  42  43
HETATM   43  N   UNK N   1      34.708  12.781   9.848  0.00  0.00    -0.346 N 
HETATM   44  C   UNK N   1      35.869  13.025  10.516  0.00  0.00     0.243 C 
HETATM   45  O   UNK N   1      36.941  12.745   9.999  0.00  0.00    -0.271 OA
HETATM   46  H   UNK N   1      33.855  13.098  10.223  0.00  0.00     0.163 HD
BRANCH  44  47
HETATM   47  C   UNK N   1      35.832  13.552  11.941  0.00  0.00     0.205 C 
BRANCH  47  48
HETATM   48  N   UNK N   1      36.269  12.517  12.844  0.00  0.00    -0.344 N 
HETATM   49  C   UNK N   1      35.511  12.005  13.848  0.00  0.00     0.241 C 
HETATM   50  O   UNK N   1      34.317  12.257  13.926  0.00  0.00    -0.271 OA
HETATM   51  H   UNK N   1      37.176  12.156  12.725  0.00  0.00     0.163 HD
BRANCH  49  52
HETATM   52  C   UNK N   1      36.197  11.305  14.975  0.00  0.00     0.178 C 
BRANCH  52  53
HETATM   53  N   UNK N   1      35.981  12.063  16.187  0.00  0.00    -0.348 N 
HETATM   54  C   UNK N   1      35.360  11.552  17.270  0.00  0.00     0.218 C 
HETATM   55  O   UNK N   1      35.196  12.255  18.254  0.00  0.00    -0.274 OA
HETATM   56  H   UNK N   1      36.300  12.994  16.222  0.00  0.00     0.163 HD
BRANCH  54  57
HETATM   57  C   UNK N   1      34.913  10.124  17.296  0.00  0.00     0.103 C 
BRANCH  57  58
HETATM   58  C   UNK N   1      34.547   9.707  18.714  0.00  0.00     0.009 C 
BRANCH  58  59
HETATM   59  C   UNK N   1      34.133   8.241  18.758  0.00  0.00     0.001 C 
BRANCH  59  60
HETATM   60  C   UNK N   1      33.397   7.924  20.053  0.00  0.00     0.004 C 
BRANCH  60  61
HETATM   61  C   UNK N   1      32.218   8.868  20.252  0.00  0.00    -0.019 C 
HETATM   62  C   UNK N   1      32.236   9.491  21.638  0.00  0.00     0.010 C 
BRANCH  61  63
HETATM   63  C   UNK N   1      30.912   8.134  19.999  0.00  0.00    -0.000 C 
HETATM   64  C   UNK N   1      30.999   6.698  20.489  0.00  0.00     0.005 C 
ENDBRANCH  61  63
ENDBRANCH  60  61
ENDBRANCH  59  60
ENDBRANCH  58  59
ENDBRANCH  57  58
ENDBRANCH  54  57
ENDBRANCH  52  53
BRANCH  52  65
HETATM   65  C   UNK N   1      37.692  11.302  14.679  0.00  0.00     0.054 C 
BRANCH  65  66
HETATM   66  C   UNK N   1      38.241   9.883  14.670  0.00  0.00     0.113 C 
BRANCH  66  67
HETATM   67  N   UNK N   1      38.027   9.283  13.367  0.00  0.00    -0.430 N 
HETATM   68  H   UNK N   1      38.456   9.686  12.534  0.00  0.00     0.149 HD
HETATM   69  H   UNK N   1      37.443   8.451  13.283  0.00  0.00     0.149 HD
ENDBRANCH  66  67
ENDBRANCH  65  66
ENDBRANCH  52  65
ENDBRANCH  49  52
ENDBRANCH  47  48
BRANCH  47  70
HETATM   70  C   UNK N   1      36.480  14.918  12.218  0.00  0.00     0.146 C 
HETATM   71  C   UNK N   1      35.798  16.017  11.424  0.00  0.00     0.042 C 
BRANCH  70  72
HETATM   72  O   UNK N   1      36.517  15.252  13.570  0.00  0.00    -0.393 OA
HETATM   73  H   UNK N   1      36.182  15.917  14.190  0.00  0.00     0.210 HD
ENDBRANCH  70  72
ENDBRANCH  47  70
ENDBRANCH  44  47
ENDBRANCH  42  43
BRANCH  42  74
HETATM   74  C   UNK N   1      35.168  10.612   8.713  0.00  0.00     0.054 C 
BRANCH  74  75
HETATM   75  C   UNK N   1      36.128  10.233   7.603  0.00  0.00     0.113 C 
BRANCH  75  76
HETATM   76  N   UNK N   1      37.257  11.145   7.625  0.00  0.00    -0.430 N 
HETATM   77  H   UNK N   1      37.716  11.986   7.272  0.00  0.00     0.149 HD
HETATM   78  H   UNK N   1      37.894  10.767   8.326  0.00  0.00     0.149 HD
ENDBRANCH  75  76
ENDBRANCH  74  75
ENDBRANCH  42  74
ENDBRANCH  39  42
ENDBRANCH   1  38
BRANCH  27  79
HETATM   79  C   UNK N   1      33.736  17.535   6.239  0.00  0.00     0.054 C 
BRANCH  79  80
HETATM   80  C   UNK N   1      34.162  17.380   7.682  0.00  0.00     0.113 C 
BRANCH  80  81
HETATM   81  N   UNK N   1      34.416  18.694   8.245  0.00  0.00    -0.430 N 
HETATM   82  H   UNK N   1      34.636  19.054   9.174  0.00  0.00     0.149 HD
HETATM   83  H   UNK N   1      34.364  19.433   7.545  0.00  0.00     0.149 HD
ENDBRANCH  80  81
ENDBRANCH  79  80
ENDBRANCH  27  79
BRANCH   7  84
HETATM   84  C   UNK N   1      30.858  10.525   4.705  0.00  0.00     0.146 C 
HETATM   85  C   UNK N   1      31.591   9.653   5.695  0.00  0.00     0.042 C 
BRANCH  84  86
HETATM   86  O   UNK N   1      30.831  11.843   5.161  0.00  0.00    -0.393 OA
HETATM   87  H   UNK N   1      30.045  12.286   5.516  0.00  0.00     0.210 HD
ENDBRANCH  84  86
ENDBRANCH   7  84
BRANCH  23  88
HETATM   88  C   UNK N   1      30.088  16.956   5.977  0.00  0.00     0.073 C 
BRANCH  88  89
HETATM   89  C   UNK N   1      29.586  17.317   7.363  0.00  0.00    -0.056 A 
HETATM   90  C   UNK N   1      28.244  17.155   7.744  0.00  0.00     0.007 A 
HETATM   91  C   UNK N   1      27.832  17.443   9.046  0.00  0.00     0.001 A 
HETATM   92  C   UNK N   1      28.760  17.899   9.984  0.00  0.00     0.000 A 
HETATM   93  C   UNK N   1      30.097  18.072   9.613  0.00  0.00     0.001 A 
HETATM   94  C   UNK N   1      30.507  17.780   8.307  0.00  0.00     0.007 A 
ENDBRANCH  88  89
ENDBRANCH  23  88
BRANCH  11  95
HETATM   95  C   UNK N   1      28.553   9.065   0.296  0.00  0.00     0.054 C 
BRANCH  95  96
HETATM   96  C   UNK N   1      29.214   8.753  -1.040  0.00  0.00     0.113 C 
BRANCH  96  97
HETATM   97  N   UNK N   1      29.763   9.957  -1.636  0.00  0.00    -0.430 N 
HETATM   98  H   UNK N   1      29.599  10.415  -2.533  0.00  0.00     0.149 HD
HETATM   99  H   UNK N   1      30.443  10.436  -1.047  0.00  0.00     0.149 HD
ENDBRANCH  96  97
ENDBRANCH  95  96
ENDBRANCH  11  95
BRANCH  19 100
HETATM  100  C   UNK N   1      27.178  16.378   3.258  0.00  0.00     0.038 C 
BRANCH 100 101
HETATM  101  C   UNK N   1      26.658  17.497   4.147  0.00  0.00    -0.020 C 
HETATM  102  C   UNK N   1      27.575  18.703   4.088  0.00  0.00     0.009 C 
HETATM  103  C   UNK N   1      25.280  17.895   3.668  0.00  0.00     0.009 C 
ENDBRANCH 100 101
ENDBRANCH  19 100
BRANCH  15 104
HETATM  104  C   UNK N   1      24.896  12.708   0.833  0.00  0.00     0.054 C 
BRANCH 104 105
HETATM  105  C   UNK N   1      23.746  13.654   1.130  0.00  0.00     0.113 C 
BRANCH 105 106
HETATM  106  N   UNK N   1      22.549  13.210   0.433  0.00  0.00    -0.430 N 
HETATM  107  H   UNK N   1      22.615  12.732  -0.466  0.00  0.00     0.149 HD
HETATM  108  H   UNK N   1      21.634  13.379   0.849  0.00  0.00     0.149 HD
ENDBRANCH 105 106
ENDBRANCH 104 105
ENDBRANCH  15 104
TORSDOF 36
ENDMDL
MODEL 6
REMARK VINA RESULT:      -7.1      2.206      4.736
REMARK WARNING: 32 MAX_TORS EXCEEDED!!!
REMARK  36 active torsions:
REMARK  status: ('A' for Active; 'I' for Inactive)
REMARK    1  A    between atoms: C_2  and  C_3 
REMARK    2  A    between atoms: C_3  and  C_5 
REMARK    3  A    between atoms: C_5  and  C_6 
REMARK    4  A    between atoms: C_6  and  C_7 
REMARK    5  A    between atoms: C_7  and  C_8 
REMARK    6  A    between atoms: C_8  and  C_9 
REMARK       I    between atoms: C_9  and  N_11 
REMARK    7  A    between atoms: N_11  and  C_12 
REMARK    8  A    between atoms: C_12  and  C_13 
REMARK    9  A    between atoms: C_12  and  C_16 
REMARK   10  A    between atoms: C_13  and  C_14 
REMARK   11  A    between atoms: C_14  and  N_15 
REMARK       I    between atoms: C_16  and  N_18 
REMARK   12  A    between atoms: N_18  and  C_19 
REMARK   13  A    between atoms: C_19  and  C_20 
REMARK   14  A    between atoms: C_19  and  C_23 
REMARK   15  A    between atoms: C_20  and  O_22 
REMARK       I    between atoms: C_23  and  N_25 
REMARK   16  A    between atoms: N_25  and  C_26 
REMARK   17  A    between atoms: C_26  and  C_27 
REMARK   18  A    between atoms: C_26  and  C_30 
REMARK   19  A    between atoms: C_27  and  C_28 
REMARK   20  A    between atoms: C_28  and  N_29 
REMARK       I    between atoms: C_30  and  N_32 
REMARK   21  A    between atoms: N_32  and  C_33 
REMARK   22  A    between atoms: C_39  and  C_83 
REMARK   23  A    between atoms: C_43  and  C_44 
REMARK   24  A    between atoms: C_44  and  C_45 
REMARK   25  A    between atoms: C_45  and  N_46 
REMARK   26  A    between atoms: C_50  and  C_51 
REMARK   27  A    between atoms: C_51  and  C_52 
REMARK   28  A    between atoms: C_52  and  N_53 
REMARK   29  A    between atoms: C_57  and  C_58 
REMARK   30  A    between atoms: C_58  and  C_59 
REMARK   31  A    between atoms: C_65  and  C_66 
REMARK   32  A    between atoms: C_66  and  C_67 
REMARK   33  A    between atoms: C_76  and  C_77 
REMARK   34  A    between atoms: C_77  and  C_78 
REMARK   35  A    between atoms: C_78  and  N_79 
REMARK   36  A    between atoms: C_83  and  O_85 
ROOT
HETATM    1  C   UNK N   1      34.567  13.301   5.532  0.00  0.00     0.178 C 
HETATM    2  C   UNK N   1      35.402  12.309   4.726  0.00  0.00     0.054 C 
HETATM    3  C   UNK N   1      34.886  12.238   3.301  0.00  0.00     0.125 C 
HETATM    4  N   UNK N   1      33.487  11.921   3.356  0.00  0.00    -0.359 N 
HETATM    5  C   UNK N   1      33.009  10.732   2.944  0.00  0.00     0.243 C 
HETATM    6  O   UNK N   1      33.741   9.916   2.407  0.00  0.00    -0.271 OA
HETATM    7  C   UNK N   1      31.597  10.382   3.252  0.00  0.00     0.205 C 
HETATM    8  N   UNK N   1      30.734  10.033   2.151  0.00  0.00    -0.344 N 
HETATM    9  C   UNK N   1      29.687  10.814   1.817  0.00  0.00     0.241 C 
HETATM   10  O   UNK N   1      29.504  11.861   2.405  0.00  0.00    -0.271 OA
HETATM   11  C   UNK N   1      28.748  10.401   0.711  0.00  0.00     0.178 C 
HETATM   12  N   UNK N   1      27.454  11.043   0.835  0.00  0.00    -0.346 N 
HETATM   13  C   UNK N   1      26.642  10.901   1.915  0.00  0.00     0.241 C 
HETATM   14  O   UNK N   1      26.911  10.106   2.803  0.00  0.00    -0.271 OA
HETATM   15  C   UNK N   1      25.517  11.862   2.130  0.00  0.00     0.178 C 
HETATM   16  N   UNK N   1      25.908  12.892   3.087  0.00  0.00    -0.346 N 
HETATM   17  C   UNK N   1      26.990  13.716   2.942  0.00  0.00     0.241 C 
HETATM   18  O   UNK N   1      27.709  13.639   1.960  0.00  0.00    -0.271 OA
HETATM   19  C   UNK N   1      27.187  14.838   3.920  0.00  0.00     0.177 C 
HETATM   20  N   UNK N   1      28.300  14.776   4.857  0.00  0.00    -0.346 N 
HETATM   21  C   UNK N   1      29.642  14.788   4.605  0.00  0.00     0.241 C 
HETATM   22  O   UNK N   1      30.083  14.544   3.492  0.00  0.00    -0.271 OA
HETATM   23  C   UNK N   1      30.510  15.410   5.690  0.00  0.00     0.180 C 
HETATM   24  N   UNK N   1      31.966  15.296   5.798  0.00  0.00    -0.346 N 
HETATM   25  C   UNK N   1      32.887  15.665   4.868  0.00  0.00     0.241 C 
HETATM   26  O   UNK N   1      32.607  15.674   3.682  0.00  0.00    -0.271 OA
HETATM   27  C   UNK N   1      34.157  16.367   5.323  0.00  0.00     0.178 C 
HETATM   28  N   UNK N   1      35.190  15.650   6.065  0.00  0.00    -0.346 N 
HETATM   29  C   UNK N   1      35.402  14.320   6.220  0.00  0.00     0.241 C 
HETATM   30  O   UNK N   1      36.307  13.949   6.952  0.00  0.00    -0.271 OA
HETATM   31  H   UNK N   1      32.857  12.592   3.707  0.00  0.00     0.162 HD
HETATM   32  H   UNK N   1      30.912   9.213   1.636  0.00  0.00     0.163 HD
HETATM   33  H   UNK N   1      27.146  11.616   0.095  0.00  0.00     0.163 HD
HETATM   34  H   UNK N   1      25.355  13.000   3.893  0.00  0.00     0.163 HD
HETATM   35  H   UNK N   1      28.050  14.719   5.807  0.00  0.00     0.163 HD
HETATM   36  H   UNK N   1      32.314  14.910   6.633  0.00  0.00     0.163 HD
HETATM   37  H   UNK N   1      35.840  16.228   6.526  0.00  0.00     0.163 HD
ENDROOT
BRANCH   1  38
HETATM   38  N   UNK N   1      33.556  12.778   6.440  0.00  0.00    -0.346 N 
HETATM   39  C   UNK N   1      33.615  12.224   7.685  0.00  0.00     0.241 C 
HETATM   40  O   UNK N   1      32.563  11.920   8.222  0.00  0.00    -0.271 OA
HETATM   41  H   UNK N   1      32.641  12.837   6.082  0.00  0.00     0.163 HD
BRANCH  39  42
HETATM   42  C   UNK N   1      34.873  12.003   8.482  0.00  0.00     0.178 C 
BRANCH  42  43
HETATM   43  N   UNK N   1      34.720  12.193   9.912  0.00  0.00    -0.346 N 
HETATM   44  C   UNK N   1      34.993  13.397  10.488  0.00  0.00     0.243 C 
HETATM   45  O   UNK N   1      35.251  14.365   9.787  0.00  0.00    -0.271 OA
HETATM   46  H   UNK N   1      34.415  11.444  10.472  0.00  0.00     0.163 HD
BRANCH  44  47
HETATM   47  C   UNK N   1      35.074  13.515  12.001  0.00  0.00     0.205 C 
BRANCH  47  48
HETATM   48  N   UNK N   1      34.739  12.246  12.597  0.00  0.00    -0.344 N 
HETATM   49  C   UNK N   1      35.432  11.097  12.392  0.00  0.00     0.241 C 
HETATM   50  O   UNK N   1      36.520  11.109  11.834  0.00  0.00    -0.271 OA
HETATM   51  H   UNK N   1      33.957  12.210  13.192  0.00  0.00     0.163 HD
BRANCH  49  52
HETATM   52  C   UNK N   1      34.752   9.795  12.664  0.00  0.00     0.178 C 
BRANCH  52  53
HETATM   53  N   UNK N   1      35.615   8.723  12.221  0.00  0.00    -0.348 N 
HETATM   54  C   UNK N   1      36.356   7.980  13.069  0.00  0.00     0.218 C 
HETATM   55  O   UNK N   1      37.077   7.102  12.622  0.00  0.00    -0.274 OA
HETATM   56  H   UNK N   1      35.666   8.529  11.257  0.00  0.00     0.163 HD
BRANCH  54  57
HETATM   57  C   UNK N   1      36.269   8.188  14.548  0.00  0.00     0.103 C 
BRANCH  57  58
HETATM   58  C   UNK N   1      37.467   8.988  15.042  0.00  0.00     0.009 C 
BRANCH  58  59
HETATM   59  C   UNK N   1      37.016  10.290  15.694  0.00  0.00     0.001 C 
BRANCH  59  60
HETATM   60  C   UNK N   1      36.521  10.042  17.113  0.00  0.00     0.004 C 
BRANCH  60  61
HETATM   61  C   UNK N   1      35.195  10.754  17.355  0.00  0.00    -0.019 C 
HETATM   62  C   UNK N   1      34.584  11.243  16.053  0.00  0.00     0.010 C 
BRANCH  61  63
HETATM   63  C   UNK N   1      35.389  11.902  18.332  0.00  0.00    -0.000 C 
HETATM   64  C   UNK N   1      35.065  13.231  17.672  0.00  0.00     0.005 C 
ENDBRANCH  61  63
ENDBRANCH  60  61
ENDBRANCH  59  60
ENDBRANCH  58  59
ENDBRANCH  57  58
ENDBRANCH  54  57
ENDBRANCH  52  53
BRANCH  52  65
HETATM   65  C   UNK N   1      33.478   9.752  11.830  0.00  0.00     0.054 C 
BRANCH  65  66
HETATM   66  C   UNK N   1      33.649   8.838  10.625  0.00  0.00     0.113 C 
BRANCH  66  67
HETATM   67  N   UNK N   1      32.650   9.156   9.623  0.00  0.00    -0.430 N 
HETATM   68  H   UNK N   1      31.925   9.847   9.814  0.00  0.00     0.149 HD
HETATM   69  H   UNK N   1      32.673   8.685   8.719  0.00  0.00     0.149 HD
ENDBRANCH  66  67
ENDBRANCH  65  66
ENDBRANCH  52  65
ENDBRANCH  49  52
ENDBRANCH  47  48
BRANCH  47  70
HETATM   70  C   UNK N   1      36.332  14.161  12.604  0.00  0.00     0.146 C 
HETATM   71  C   UNK N   1      36.428  13.884  14.092  0.00  0.00     0.042 C 
BRANCH  70  72
HETATM   72  O   UNK N   1      37.511  13.781  11.965  0.00  0.00    -0.393 OA
HETATM   73  H   UNK N   1      38.340  14.157  11.631  0.00  0.00     0.210 HD
ENDBRANCH  70  72
ENDBRANCH  47  70
ENDBRANCH  44  47
ENDBRANCH  42  43
BRANCH  42  74
HETATM   74  C   UNK N   1      35.639  10.741   8.108  0.00  0.00     0.054 C 
BRANCH  74  75
HETATM   75  C   UNK N   1      37.086  11.045   7.774  0.00  0.00     0.113 C 
BRANCH  75  76
HETATM   76  N   UNK N   1      37.691  11.745   8.893  0.00  0.00    -0.430 N 
HETATM   77  H   UNK N   1      38.470  11.861   9.542  0.00  0.00     0.149 HD
HETATM   78  H   UNK N   1      37.015  12.464   9.155  0.00  0.00     0.149 HD
ENDBRANCH  75  76
ENDBRANCH  74  75
ENDBRANCH  42  74
ENDBRANCH  39  42
ENDBRANCH   1  38
BRANCH  27  79
HETATM   79  C   UNK N   1      33.712  17.555   6.173  0.00  0.00     0.054 C 
BRANCH  79  80
HETATM   80  C   UNK N   1      34.090  17.382   7.627  0.00  0.00     0.113 C 
BRANCH  80  81
HETATM   81  N   UNK N   1      34.441  18.676   8.183  0.00  0.00    -0.430 N 
HETATM   82  H   UNK N   1      35.181  19.026   8.792  0.00  0.00     0.149 HD
HETATM   83  H   UNK N   1      33.795  19.410   7.895  0.00  0.00     0.149 HD
ENDBRANCH  80  81
ENDBRANCH  79  80
ENDBRANCH  27  79
BRANCH   7  84
HETATM   84  C   UNK N   1      31.023  10.462   4.675  0.00  0.00     0.146 C 
HETATM   85  C   UNK N   1      31.793   9.621   5.664  0.00  0.00     0.042 C 
BRANCH  84  86
HETATM   86  O   UNK N   1      30.953  11.781   5.124  0.00  0.00    -0.393 OA
HETATM   87  H   UNK N   1      31.643  12.223   5.642  0.00  0.00     0.210 HD
ENDBRANCH  84  86
ENDBRANCH   7  84
BRANCH  23  88
HETATM   88  C   UNK N   1      30.080  16.872   5.937  0.00  0.00     0.073 C 
BRANCH  88  89
HETATM   89  C   UNK N   1      29.631  17.235   7.340  0.00  0.00    -0.056 A 
HETATM   90  C   UNK N   1      30.516  17.731   8.311  0.00  0.00     0.007 A 
HETATM   91  C   UNK N   1      30.054  18.109   9.573  0.00  0.00     0.001 A 
HETATM   92  C   UNK N   1      28.697  17.994   9.879  0.00  0.00     0.000 A 
HETATM   93  C   UNK N   1      27.808  17.493   8.924  0.00  0.00     0.001 A 
HETATM   94  C   UNK N   1      28.274  17.118   7.658  0.00  0.00     0.007 A 
ENDBRANCH  88  89
ENDBRANCH  23  88
BRANCH  11  95
HETATM   95  C   UNK N   1      28.729   8.927   0.285  0.00  0.00     0.054 C 
BRANCH  95  96
HETATM   96  C   UNK N   1      29.347   8.637  -1.076  0.00  0.00     0.113 C 
BRANCH  96  97
HETATM   97  N   UNK N   1      29.791   9.864  -1.712  0.00  0.00    -0.430 N 
HETATM   98  H   UNK N   1      29.287  10.612  -2.188  0.00  0.00     0.149 HD
HETATM   99  H   UNK N   1      30.801  10.006  -1.675  0.00  0.00     0.149 HD
ENDBRANCH  96  97
ENDBRANCH  95  96
ENDBRANCH  11  95
BRANCH  19 100
HETATM  100  C   UNK N   1      27.169  16.206   3.240  0.00  0.00     0.038 C 
BRANCH 100 101
HETATM  101  C   UNK N   1      26.658  17.318   4.142  0.00  0.00    -0.020 C 
HETATM  102  C   UNK N   1      27.471  18.584   3.950  0.00  0.00     0.009 C 
HETATM  103  C   UNK N   1      25.213  17.597   3.796  0.00  0.00     0.009 C 
ENDBRANCH 100 101
ENDBRANCH  19 100
BRANCH  15 104
HETATM  104  C   UNK N   1      24.975  12.466   0.839  0.00  0.00     0.054 C 
BRANCH 104 105
HETATM  105  C   UNK N   1      23.469  12.634   0.931  0.00  0.00     0.113 C 
BRANCH 105 106
HETATM  106  N   UNK N   1      22.898  11.544   1.708  0.00  0.00    -0.430 N 
HETATM  107  H   UNK N   1      23.388  11.171   2.522  0.00  0.00     0.149 HD
HETATM  108  H   UNK N   1      21.999  11.150   1.436  0.00  0.00     0.149 HD
ENDBRANCH 105 106
ENDBRANCH 104 105
ENDBRANCH  15 104
TORSDOF 36
ENDMDL
MODEL 7
REMARK VINA RESULT:      -6.9      2.459      6.155
REMARK WARNING: 32 MAX_TORS EXCEEDED!!!
REMARK  36 active torsions:
REMARK  status: ('A' for Active; 'I' for Inactive)
REMARK    1  A    between atoms: C_2  and  C_3 
REMARK    2  A    between atoms: C_3  and  C_5 
REMARK    3  A    between atoms: C_5  and  C_6 
REMARK    4  A    between atoms: C_6  and  C_7 
REMARK    5  A    between atoms: C_7  and  C_8 
REMARK    6  A    between atoms: C_8  and  C_9 
REMARK       I    between atoms: C_9  and  N_11 
REMARK    7  A    between atoms: N_11  and  C_12 
REMARK    8  A    between atoms: C_12  and  C_13 
REMARK    9  A    between atoms: C_12  and  C_16 
REMARK   10  A    between atoms: C_13  and  C_14 
REMARK   11  A    between atoms: C_14  and  N_15 
REMARK       I    between atoms: C_16  and  N_18 
REMARK   12  A    between atoms: N_18  and  C_19 
REMARK   13  A    between atoms: C_19  and  C_20 
REMARK   14  A    between atoms: C_19  and  C_23 
REMARK   15  A    between atoms: C_20  and  O_22 
REMARK       I    between atoms: C_23  and  N_25 
REMARK   16  A    between atoms: N_25  and  C_26 
REMARK   17  A    between atoms: C_26  and  C_27 
REMARK   18  A    between atoms: C_26  and  C_30 
REMARK   19  A    between atoms: C_27  and  C_28 
REMARK   20  A    between atoms: C_28  and  N_29 
REMARK       I    between atoms: C_30  and  N_32 
REMARK   21  A    between atoms: N_32  and  C_33 
REMARK   22  A    between atoms: C_39  and  C_83 
REMARK   23  A    between atoms: C_43  and  C_44 
REMARK   24  A    between atoms: C_44  and  C_45 
REMARK   25  A    between atoms: C_45  and  N_46 
REMARK   26  A    between atoms: C_50  and  C_51 
REMARK   27  A    between atoms: C_51  and  C_52 
REMARK   28  A    between atoms: C_52  and  N_53 
REMARK   29  A    between atoms: C_57  and  C_58 
REMARK   30  A    between atoms: C_58  and  C_59 
REMARK   31  A    between atoms: C_65  and  C_66 
REMARK   32  A    between atoms: C_66  and  C_67 
REMARK   33  A    between atoms: C_76  and  C_77 
REMARK   34  A    between atoms: C_77  and  C_78 
REMARK   35  A    between atoms: C_78  and  N_79 
REMARK   36  A    between atoms: C_83  and  O_85 
ROOT
HETATM    1  C   UNK N   1      32.529  13.348   2.869  0.00  0.00     0.178 C 
HETATM    2  C   UNK N   1      32.747  12.401   1.692  0.00  0.00     0.054 C 
HETATM    3  C   UNK N   1      31.675  12.625   0.643  0.00  0.00     0.125 C 
HETATM    4  N   UNK N   1      30.397  12.482   1.284  0.00  0.00    -0.359 N 
HETATM    5  C   UNK N   1      29.581  11.445   1.022  0.00  0.00     0.243 C 
HETATM    6  O   UNK N   1      29.854  10.639   0.146  0.00  0.00    -0.271 OA
HETATM    7  C   UNK N   1      28.393  11.231   1.891  0.00  0.00     0.205 C 
HETATM    8  N   UNK N   1      27.098  11.175   1.260  0.00  0.00    -0.344 N 
HETATM    9  C   UNK N   1      26.171  12.126   1.495  0.00  0.00     0.241 C 
HETATM   10  O   UNK N   1      26.449  13.078   2.195  0.00  0.00    -0.271 OA
HETATM   11  C   UNK N   1      24.795  12.017   0.887  0.00  0.00     0.178 C 
HETATM   12  N   UNK N   1      23.816  12.789   1.628  0.00  0.00    -0.346 N 
HETATM   13  C   UNK N   1      23.525  12.578   2.939  0.00  0.00     0.241 C 
HETATM   14  O   UNK N   1      23.993  11.624   3.541  0.00  0.00    -0.271 OA
HETATM   15  C   UNK N   1      22.794  13.627   3.715  0.00  0.00     0.178 C 
HETATM   16  N   UNK N   1      23.735  14.432   4.486  0.00  0.00    -0.346 N 
HETATM   17  C   UNK N   1      24.785  15.126   3.952  0.00  0.00     0.241 C 
HETATM   18  O   UNK N   1      24.995  15.118   2.750  0.00  0.00    -0.271 OA
HETATM   19  C   UNK N   1      25.579  16.043   4.837  0.00  0.00     0.177 C 
HETATM   20  N   UNK N   1      26.952  15.692   5.174  0.00  0.00    -0.346 N 
HETATM   21  C   UNK N   1      28.039  15.573   4.356  0.00  0.00     0.241 C 
HETATM   22  O   UNK N   1      27.915  15.458   3.146  0.00  0.00    -0.271 OA
HETATM   23  C   UNK N   1      29.382  15.899   4.995  0.00  0.00     0.180 C 
HETATM   24  N   UNK N   1      30.698  15.586   4.436  0.00  0.00    -0.346 N 
HETATM   25  C   UNK N   1      31.192  15.980   3.232  0.00  0.00     0.241 C 
HETATM   26  O   UNK N   1      30.443  16.214   2.299  0.00  0.00    -0.271 OA
HETATM   27  C   UNK N   1      32.639  16.435   3.137  0.00  0.00     0.178 C 
HETATM   28  N   UNK N   1      33.738  15.484   3.278  0.00  0.00    -0.346 N 
HETATM   29  C   UNK N   1      33.747  14.129   3.204  0.00  0.00     0.241 C 
HETATM   30  O   UNK N   1      34.792  13.535   3.424  0.00  0.00    -0.271 OA
HETATM   31  H   UNK N   1      30.110  13.162   1.935  0.00  0.00     0.162 HD
HETATM   32  H   UNK N   1      26.888  10.432   0.648  0.00  0.00     0.163 HD
HETATM   33  H   UNK N   1      23.335  13.507   1.155  0.00  0.00     0.163 HD
HETATM   34  H   UNK N   1      23.604  14.479   5.461  0.00  0.00     0.163 HD
HETATM   35  H   UNK N   1      27.120  15.514   6.128  0.00  0.00     0.163 HD
HETATM   36  H   UNK N   1      31.290  15.030   4.993  0.00  0.00     0.163 HD
HETATM   37  H   UNK N   1      34.616  15.892   3.454  0.00  0.00     0.163 HD
ENDROOT
BRANCH   1  38
HETATM   38  N   UNK N   1      31.919  12.818   4.080  0.00  0.00    -0.346 N 
HETATM   39  C   UNK N   1      32.401  12.090   5.128  0.00  0.00     0.241 C 
HETATM   40  O   UNK N   1      31.635  11.832   6.041  0.00  0.00    -0.271 OA
HETATM   41  H   UNK N   1      30.961  13.029   4.161  0.00  0.00     0.163 HD
BRANCH  39  42
HETATM   42  C   UNK N   1      33.822  11.618   5.280  0.00  0.00     0.178 C 
BRANCH  42  43
HETATM   43  N   UNK N   1      34.522  12.174   6.423  0.00  0.00    -0.346 N 
HETATM   44  C   UNK N   1      35.882  12.154   6.485  0.00  0.00     0.243 C 
HETATM   45  O   UNK N   1      36.532  11.777   5.520  0.00  0.00    -0.271 OA
HETATM   46  H   UNK N   1      34.007  12.571   7.161  0.00  0.00     0.163 HD
BRANCH  44  47
HETATM   47  C   UNK N   1      36.590  12.505   7.783  0.00  0.00     0.205 C 
BRANCH  47  48
HETATM   48  N   UNK N   1      35.646  13.102   8.695  0.00  0.00    -0.344 N 
HETATM   49  C   UNK N   1      35.970  14.018   9.642  0.00  0.00     0.241 C 
HETATM   50  O   UNK N   1      37.070  14.552   9.652  0.00  0.00    -0.271 OA
HETATM   51  H   UNK N   1      34.704  12.827   8.625  0.00  0.00     0.163 HD
BRANCH  49  52
HETATM   52  C   UNK N   1      35.042  14.209  10.797  0.00  0.00     0.178 C 
BRANCH  52  53
HETATM   53  N   UNK N   1      34.574  12.912  11.230  0.00  0.00    -0.348 N 
HETATM   54  C   UNK N   1      34.809  12.421  12.465  0.00  0.00     0.218 C 
HETATM   55  O   UNK N   1      34.398  11.310  12.757  0.00  0.00    -0.274 OA
HETATM   56  H   UNK N   1      34.062  12.361  10.594  0.00  0.00     0.163 HD
BRANCH  54  57
HETATM   57  C   UNK N   1      35.525  13.241  13.492  0.00  0.00     0.103 C 
BRANCH  57  58
HETATM   58  C   UNK N   1      35.859  12.391  14.711  0.00  0.00     0.009 C 
BRANCH  58  59
HETATM   59  C   UNK N   1      34.831  12.602  15.815  0.00  0.00     0.001 C 
BRANCH  59  60
HETATM   60  C   UNK N   1      35.448  12.353  17.186  0.00  0.00     0.004 C 
BRANCH  60  61
HETATM   61  C   UNK N   1      35.029  13.435  18.174  0.00  0.00    -0.019 C 
HETATM   62  C   UNK N   1      35.845  14.703  17.984  0.00  0.00     0.010 C 
BRANCH  61  63
HETATM   63  C   UNK N   1      35.146  12.917  19.597  0.00  0.00    -0.000 C 
HETATM   64  C   UNK N   1      35.465  11.432  19.604  0.00  0.00     0.005 C 
ENDBRANCH  61  63
ENDBRANCH  60  61
ENDBRANCH  59  60
ENDBRANCH  58  59
ENDBRANCH  57  58
ENDBRANCH  54  57
ENDBRANCH  52  53
BRANCH  52  65
HETATM   65  C   UNK N   1      33.841  15.005  10.303  0.00  0.00     0.054 C 
BRANCH  65  66
HETATM   66  C   UNK N   1      34.283  16.310   9.656  0.00  0.00     0.113 C 
BRANCH  66  67
HETATM   67  N   UNK N   1      35.035  17.100  10.612  0.00  0.00    -0.430 N 
HETATM   68  H   UNK N   1      34.627  17.936  11.029  0.00  0.00     0.149 HD
HETATM   69  H   UNK N   1      35.981  16.817  10.868  0.00  0.00     0.149 HD
ENDBRANCH  66  67
ENDBRANCH  65  66
ENDBRANCH  52  65
ENDBRANCH  49  52
ENDBRANCH  47  48
BRANCH  47  70
HETATM   70  C   UNK N   1      37.470  11.426   8.434  0.00  0.00     0.146 C 
HETATM   71  C   UNK N   1      36.623  10.323   9.041  0.00  0.00     0.042 C 
BRANCH  70  72
HETATM   72  O   UNK N   1      38.418  10.885   7.568  0.00  0.00    -0.393 OA
HETATM   73  H   UNK N   1      39.303  11.063   7.214  0.00  0.00     0.210 HD
ENDBRANCH  70  72
ENDBRANCH  47  70
ENDBRANCH  44  47
ENDBRANCH  42  43
BRANCH  42  74
HETATM   74  C   UNK N   1      34.005  10.114   5.120  0.00  0.00     0.054 C 
BRANCH  74  75
HETATM   75  C   UNK N   1      34.272   9.735   3.677  0.00  0.00     0.113 C 
BRANCH  75  76
HETATM   76  N   UNK N   1      35.370  10.540   3.173  0.00  0.00    -0.430 N 
HETATM   77  H   UNK N   1      36.158  10.653   2.535  0.00  0.00     0.149 HD
HETATM   78  H   UNK N   1      35.338  11.404   3.715  0.00  0.00     0.149 HD
ENDBRANCH  75  76
ENDBRANCH  74  75
ENDBRANCH  42  74
ENDBRANCH  39  42
ENDBRANCH   1  38
BRANCH  27  79
HETATM   79  C   UNK N   1      32.822  17.517   4.199  0.00  0.00     0.054 C 
BRANCH  79  80
HETATM   80  C   UNK N   1      33.727  17.061   5.322  0.00  0.00     0.113 C 
BRANCH  80  81
HETATM   81  N   UNK N   1      33.455  17.859   6.503  0.00  0.00    -0.430 N 
HETATM   82  H   UNK N   1      33.421  18.857   6.712  0.00  0.00     0.149 HD
HETATM   83  H   UNK N   1      33.247  17.285   7.320  0.00  0.00     0.149 HD
ENDBRANCH  80  81
ENDBRANCH  79  80
ENDBRANCH  27  79
BRANCH   7  84
HETATM   84  C   UNK N   1      28.499  11.154   3.421  0.00  0.00     0.146 C 
HETATM   85  C   UNK N   1      29.443  10.072   3.889  0.00  0.00     0.042 C 
BRANCH  84  86
HETATM   86  O   UNK N   1      28.872  12.380   3.971  0.00  0.00    -0.393 OA
HETATM   87  H   UNK N   1      28.608  12.692   4.850  0.00  0.00     0.210 HD
ENDBRANCH  84  86
ENDBRANCH   7  84
BRANCH  23  88
HETATM   88  C   UNK N   1      29.373  17.345   5.536  0.00  0.00     0.073 C 
BRANCH  88  89
HETATM   89  C   UNK N   1      29.338  17.522   7.043  0.00  0.00    -0.056 A 
HETATM   90  C   UNK N   1      28.226  18.055   7.714  0.00  0.00     0.007 A 
HETATM   91  C   UNK N   1      28.208  18.147   9.107  0.00  0.00     0.001 A 
HETATM   92  C   UNK N   1      29.307  17.707   9.846  0.00  0.00     0.000 A 
HETATM   93  C   UNK N   1      30.424  17.183   9.188  0.00  0.00     0.001 A 
HETATM   94  C   UNK N   1      30.437  17.089   7.792  0.00  0.00     0.007 A 
ENDBRANCH  88  89
ENDBRANCH  23  88
BRANCH  11  95
HETATM   95  C   UNK N   1      24.327  10.644   0.384  0.00  0.00     0.054 C 
BRANCH  95  96
HETATM   96  C   UNK N   1      22.993  10.642  -0.348  0.00  0.00     0.113 C 
BRANCH  96  97
HETATM   97  N   UNK N   1      22.391   9.321  -0.318  0.00  0.00    -0.430 N 
HETATM   98  H   UNK N   1      21.484   8.988   0.009  0.00  0.00     0.149 HD
HETATM   99  H   UNK N   1      22.989   8.586  -0.696  0.00  0.00     0.149 HD
ENDBRANCH  96  97
ENDBRANCH  95  96
ENDBRANCH  11  95
BRANCH  19 100
HETATM  100  C   UNK N   1      25.527  17.493   4.360  0.00  0.00     0.038 C 
BRANCH 100 101
HETATM  101  C   UNK N   1      24.114  17.989   4.095  0.00  0.00    -0.020 C 
HETATM  102  C   UNK N   1      23.283  17.951   5.363  0.00  0.00     0.009 C 
HETATM  103  C   UNK N   1      24.187  19.411   3.589  0.00  0.00     0.009 C 
ENDBRANCH 100 101
ENDBRANCH  19 100
BRANCH  15 104
HETATM  104  C   UNK N   1      21.879  14.494   2.856  0.00  0.00     0.054 C 
BRANCH 104 105
HETATM  105  C   UNK N   1      20.447  13.999   2.954  0.00  0.00     0.113 C 
BRANCH 105 106
HETATM  106  N   UNK N   1      19.538  15.013   2.441  0.00  0.00    -0.430 N 
HETATM  107  H   UNK N   1      19.493  15.218   1.443  0.00  0.00     0.149 HD
HETATM  108  H   UNK N   1      18.941  15.526   3.089  0.00  0.00     0.149 HD
ENDBRANCH 105 106
ENDBRANCH 104 105
ENDBRANCH  15 104
TORSDOF 36
ENDMDL
MODEL 8
REMARK VINA RESULT:      -6.8      2.353      5.267
REMARK WARNING: 32 MAX_TORS EXCEEDED!!!
REMARK  36 active torsions:
REMARK  status: ('A' for Active; 'I' for Inactive)
REMARK    1  A    between atoms: C_2  and  C_3 
REMARK    2  A    between atoms: C_3  and  C_5 
REMARK    3  A    between atoms: C_5  and  C_6 
REMARK    4  A    between atoms: C_6  and  C_7 
REMARK    5  A    between atoms: C_7  and  C_8 
REMARK    6  A    between atoms: C_8  and  C_9 
REMARK       I    between atoms: C_9  and  N_11 
REMARK    7  A    between atoms: N_11  and  C_12 
REMARK    8  A    between atoms: C_12  and  C_13 
REMARK    9  A    between atoms: C_12  and  C_16 
REMARK   10  A    between atoms: C_13  and  C_14 
REMARK   11  A    between atoms: C_14  and  N_15 
REMARK       I    between atoms: C_16  and  N_18 
REMARK   12  A    between atoms: N_18  and  C_19 
REMARK   13  A    between atoms: C_19  and  C_20 
REMARK   14  A    between atoms: C_19  and  C_23 
REMARK   15  A    between atoms: C_20  and  O_22 
REMARK       I    between atoms: C_23  and  N_25 
REMARK   16  A    between atoms: N_25  and  C_26 
REMARK   17  A    between atoms: C_26  and  C_27 
REMARK   18  A    between atoms: C_26  and  C_30 
REMARK   19  A    between atoms: C_27  and  C_28 
REMARK   20  A    between atoms: C_28  and  N_29 
REMARK       I    between atoms: C_30  and  N_32 
REMARK   21  A    between atoms: N_32  and  C_33 
REMARK   22  A    between atoms: C_39  and  C_83 
REMARK   23  A    between atoms: C_43  and  C_44 
REMARK   24  A    between atoms: C_44  and  C_45 
REMARK   25  A    between atoms: C_45  and  N_46 
REMARK   26  A    between atoms: C_50  and  C_51 
REMARK   27  A    between atoms: C_51  and  C_52 
REMARK   28  A    between atoms: C_52  and  N_53 
REMARK   29  A    between atoms: C_57  and  C_58 
REMARK   30  A    between atoms: C_58  and  C_59 
REMARK   31  A    between atoms: C_65  and  C_66 
REMARK   32  A    between atoms: C_66  and  C_67 
REMARK   33  A    between atoms: C_76  and  C_77 
REMARK   34  A    between atoms: C_77  and  C_78 
REMARK   35  A    between atoms: C_78  and  N_79 
REMARK   36  A    between atoms: C_83  and  O_85 
ROOT
HETATM    1  C   UNK N   1      34.079  12.964   4.764  0.00  0.00     0.178 C 
HETATM    2  C   UNK N   1      34.766  11.939   3.866  0.00  0.00     0.054 C 
HETATM    3  C   UNK N   1      34.068  11.882   2.520  0.00  0.00     0.125 C 
HETATM    4  N   UNK N   1      32.677  11.616   2.758  0.00  0.00    -0.359 N 
HETATM    5  C   UNK N   1      32.107  10.444   2.422  0.00  0.00     0.243 C 
HETATM    6  O   UNK N   1      32.734   9.599   1.802  0.00  0.00    -0.271 OA
HETATM    7  C   UNK N   1      30.736  10.148   2.913  0.00  0.00     0.205 C 
HETATM    8  N   UNK N   1      29.725   9.826   1.936  0.00  0.00    -0.344 N 
HETATM    9  C   UNK N   1      28.672  10.644   1.733  0.00  0.00     0.241 C 
HETATM   10  O   UNK N   1      28.605  11.698   2.332  0.00  0.00    -0.271 OA
HETATM   11  C   UNK N   1      27.584  10.261   0.762  0.00  0.00     0.178 C 
HETATM   12  N   UNK N   1      26.340  10.951   1.046  0.00  0.00    -0.346 N 
HETATM   13  C   UNK N   1      25.671  10.842   2.224  0.00  0.00     0.241 C 
HETATM   14  O   UNK N   1      26.024  10.042   3.076  0.00  0.00    -0.271 OA
HETATM   15  C   UNK N   1      24.618  11.845   2.574  0.00  0.00     0.178 C 
HETATM   16  N   UNK N   1      25.167  12.863   3.463  0.00  0.00    -0.346 N 
HETATM   17  C   UNK N   1      26.250  13.647   3.173  0.00  0.00     0.241 C 
HETATM   18  O   UNK N   1      26.833  13.540   2.106  0.00  0.00    -0.271 OA
HETATM   19  C   UNK N   1      26.612  14.765   4.107  0.00  0.00     0.177 C 
HETATM   20  N   UNK N   1      27.835  14.666   4.893  0.00  0.00    -0.346 N 
HETATM   21  C   UNK N   1      29.132  14.627   4.469  0.00  0.00     0.241 C 
HETATM   22  O   UNK N   1      29.415  14.363   3.311  0.00  0.00    -0.271 OA
HETATM   23  C   UNK N   1      30.155  15.222   5.428  0.00  0.00     0.180 C 
HETATM   24  N   UNK N   1      31.607  15.054   5.347  0.00  0.00    -0.346 N 
HETATM   25  C   UNK N   1      32.413  15.386   4.303  0.00  0.00     0.241 C 
HETATM   26  O   UNK N   1      31.982  15.400   3.163  0.00  0.00    -0.271 OA
HETATM   27  C   UNK N   1      33.755  16.043   4.583  0.00  0.00     0.178 C 
HETATM   28  N   UNK N   1      34.850  15.291   5.191  0.00  0.00    -0.346 N 
HETATM   29  C   UNK N   1      35.032  13.954   5.329  0.00  0.00     0.241 C 
HETATM   30  O   UNK N   1      36.010  13.554   5.942  0.00  0.00    -0.271 OA
HETATM   31  H   UNK N   1      32.123  12.311   3.182  0.00  0.00     0.162 HD
HETATM   32  H   UNK N   1      29.806   8.997   1.409  0.00  0.00     0.163 HD
HETATM   33  H   UNK N   1      25.960  11.531   0.347  0.00  0.00     0.163 HD
HETATM   34  H   UNK N   1      24.727  12.995   4.334  0.00  0.00     0.163 HD
HETATM   35  H   UNK N   1      27.707  14.622   5.868  0.00  0.00     0.163 HD
HETATM   36  H   UNK N   1      32.047  14.659   6.134  0.00  0.00     0.163 HD
HETATM   37  H   UNK N   1      35.574  15.846   5.560  0.00  0.00     0.163 HD
ENDROOT
BRANCH   1  38
HETATM   38  N   UNK N   1      33.176  12.483   5.799  0.00  0.00    -0.346 N 
HETATM   39  C   UNK N   1      33.372  12.014   7.065  0.00  0.00     0.241 C 
HETATM   40  O   UNK N   1      32.386  11.724   7.723  0.00  0.00    -0.271 OA
HETATM   41  H   UNK N   1      32.229  12.499   5.531  0.00  0.00     0.163 HD
BRANCH  39  42
HETATM   42  C   UNK N   1      34.707  11.871   7.745  0.00  0.00     0.178 C 
BRANCH  42  43
HETATM   43  N   UNK N   1      35.062  12.979   8.611  0.00  0.00    -0.346 N 
HETATM   44  C   UNK N   1      34.561  13.066   9.875  0.00  0.00     0.243 C 
HETATM   45  O   UNK N   1      33.903  12.143  10.335  0.00  0.00    -0.271 OA
HETATM   46  H   UNK N   1      35.673  13.676   8.282  0.00  0.00     0.163 HD
BRANCH  44  47
HETATM   47  C   UNK N   1      34.736  14.345  10.677  0.00  0.00     0.205 C 
BRANCH  47  48
HETATM   48  N   UNK N   1      35.319  14.029  11.957  0.00  0.00    -0.344 N 
HETATM   49  C   UNK N   1      36.419  13.252  12.127  0.00  0.00     0.241 C 
HETATM   50  O   UNK N   1      37.114  12.927  11.174  0.00  0.00    -0.271 OA
HETATM   51  H   UNK N   1      34.891  14.401  12.761  0.00  0.00     0.163 HD
BRANCH  49  52
HETATM   52  C   UNK N   1      36.650  12.624  13.462  0.00  0.00     0.178 C 
BRANCH  52  53
HETATM   53  N   UNK N   1      37.268  13.602  14.330  0.00  0.00    -0.348 N 
HETATM   54  C   UNK N   1      36.758  13.942  15.532  0.00  0.00     0.218 C 
HETATM   55  O   UNK N   1      37.323  14.789  16.205  0.00  0.00    -0.274 OA
HETATM   56  H   UNK N   1      38.096  14.040  14.028  0.00  0.00     0.163 HD
BRANCH  54  57
HETATM   57  C   UNK N   1      35.537  13.261  16.068  0.00  0.00     0.103 C 
BRANCH  57  58
HETATM   58  C   UNK N   1      35.220  13.766  17.469  0.00  0.00     0.009 C 
BRANCH  58  59
HETATM   59  C   UNK N   1      35.217  12.617  18.470  0.00  0.00     0.001 C 
BRANCH  59  60
HETATM   60  C   UNK N   1      35.279  11.274  17.753  0.00  0.00     0.004 C 
BRANCH  60  61
HETATM   61  C   UNK N   1      35.473  10.137  18.750  0.00  0.00    -0.019 C 
HETATM   62  C   UNK N   1      34.241   9.251  18.823  0.00  0.00     0.010 C 
BRANCH  61  63
HETATM   63  C   UNK N   1      35.826  10.696  20.118  0.00  0.00    -0.000 C 
HETATM   64  C   UNK N   1      37.160  10.147  20.595  0.00  0.00     0.005 C 
ENDBRANCH  61  63
ENDBRANCH  60  61
ENDBRANCH  59  60
ENDBRANCH  58  59
ENDBRANCH  57  58
ENDBRANCH  54  57
ENDBRANCH  52  53
BRANCH  52  65
HETATM   65  C   UNK N   1      37.631  11.473  13.272  0.00  0.00     0.054 C 
BRANCH  65  66
HETATM   66  C   UNK N   1      37.096  10.195  13.900  0.00  0.00     0.113 C 
BRANCH  66  67
HETATM   67  N   UNK N   1      37.622  10.051  15.244  0.00  0.00    -0.430 N 
HETATM   68  H   UNK N   1      37.551  10.817  15.914  0.00  0.00     0.149 HD
HETATM   69  H   UNK N   1      38.067   9.176  15.522  0.00  0.00     0.149 HD
ENDBRANCH  66  67
ENDBRANCH  65  66
ENDBRANCH  52  65
ENDBRANCH  49  52
ENDBRANCH  47  48
BRANCH  47  70
HETATM   70  C   UNK N   1      35.401  15.543   9.981  0.00  0.00     0.146 C 
HETATM   71  C   UNK N   1      35.486  16.737  10.912  0.00  0.00     0.042 C 
BRANCH  70  72
HETATM   72  O   UNK N   1      36.659  15.251   9.455  0.00  0.00    -0.393 OA
HETATM   73  H   UNK N   1      37.250  15.509   8.731  0.00  0.00     0.210 HD
ENDBRANCH  70  72
ENDBRANCH  47  70
ENDBRANCH  44  47
ENDBRANCH  42  43
BRANCH  42  74
HETATM   74  C   UNK N   1      34.952  10.502   8.367  0.00  0.00     0.054 C 
BRANCH  74  75
HETATM   75  C   UNK N   1      36.419  10.285   8.678  0.00  0.00     0.113 C 
BRANCH  75  76
HETATM   76  N   UNK N   1      36.577  10.118  10.112  0.00  0.00    -0.430 N 
HETATM   77  H   UNK N   1      36.522  10.505  11.054  0.00  0.00     0.149 HD
HETATM   78  H   UNK N   1      36.891   9.155  10.236  0.00  0.00     0.149 HD
ENDBRANCH  75  76
ENDBRANCH  74  75
ENDBRANCH  42  74
ENDBRANCH  39  42
ENDBRANCH   1  38
BRANCH  27  79
HETATM   79  C   UNK N   1      33.468  17.249   5.473  0.00  0.00     0.054 C 
BRANCH  79  80
HETATM   80  C   UNK N   1      34.108  17.111   6.837  0.00  0.00     0.113 C 
BRANCH  80  81
HETATM   81  N   UNK N   1      33.799  18.289   7.627  0.00  0.00    -0.430 N 
HETATM   82  H   UNK N   1      33.194  18.488   8.424  0.00  0.00     0.149 HD
HETATM   83  H   UNK N   1      34.308  19.113   7.310  0.00  0.00     0.149 HD
ENDBRANCH  80  81
ENDBRANCH  79  80
ENDBRANCH  27  79
BRANCH   7  84
HETATM   84  C   UNK N   1      30.354  10.254   4.397  0.00  0.00     0.146 C 
HETATM   85  C   UNK N   1      31.217   9.391   5.287  0.00  0.00     0.042 C 
BRANCH  84  86
HETATM   86  O   UNK N   1      30.387  11.576   4.840  0.00  0.00    -0.393 OA
HETATM   87  H   UNK N   1      30.543  12.344   4.268  0.00  0.00     0.210 HD
ENDBRANCH  84  86
ENDBRANCH   7  84
BRANCH  23  88
HETATM   88  C   UNK N   1      29.814  16.700   5.715  0.00  0.00     0.073 C 
BRANCH  88  89
HETATM   89  C   UNK N   1      29.448  17.061   7.143  0.00  0.00    -0.056 A 
HETATM   90  C   UNK N   1      28.129  17.001   7.622  0.00  0.00     0.007 A 
HETATM   91  C   UNK N   1      27.841  17.286   8.957  0.00  0.00     0.001 A 
HETATM   92  C   UNK N   1      28.871  17.635   9.832  0.00  0.00     0.000 A 
HETATM   93  C   UNK N   1      30.186  17.707   9.364  0.00  0.00     0.001 A 
HETATM   94  C   UNK N   1      30.473  17.418   8.025  0.00  0.00     0.007 A 
ENDBRANCH  88  89
ENDBRANCH  23  88
BRANCH  11  95
HETATM   95  C   UNK N   1      27.457   8.787   0.355  0.00  0.00     0.054 C 
BRANCH  95  96
HETATM   96  C   UNK N   1      26.183   8.429  -0.397  0.00  0.00     0.113 C 
BRANCH  96  97
HETATM   97  N   UNK N   1      26.483   7.620  -1.564  0.00  0.00    -0.430 N 
HETATM   98  H   UNK N   1      27.315   7.099  -1.843  0.00  0.00     0.149 HD
HETATM   99  H   UNK N   1      25.716   7.560  -2.234  0.00  0.00     0.149 HD
ENDBRANCH  96  97
ENDBRANCH  95  96
ENDBRANCH  11  95
BRANCH  19 100
HETATM  100  C   UNK N   1      26.555  16.129   3.424  0.00  0.00     0.038 C 
BRANCH 100 101
HETATM  101  C   UNK N   1      26.277  17.273   4.387  0.00  0.00    -0.020 C 
HETATM  102  C   UNK N   1      26.429  18.612   3.692  0.00  0.00     0.009 C 
HETATM  103  C   UNK N   1      24.862  17.138   4.903  0.00  0.00     0.009 C 
ENDBRANCH 100 101
ENDBRANCH  19 100
BRANCH  15 104
HETATM  104  C   UNK N   1      23.936  12.464   1.359  0.00  0.00     0.054 C 
BRANCH 104 105
HETATM  105  C   UNK N   1      22.479  12.038   1.304  0.00  0.00     0.113 C 
BRANCH 105 106
HETATM  106  N   UNK N   1      21.715  12.997   0.521  0.00  0.00    -0.430 N 
HETATM  107  H   UNK N   1      21.844  13.068  -0.488  0.00  0.00     0.149 HD
HETATM  108  H   UNK N   1      21.042  13.605   0.988  0.00  0.00     0.149 HD
ENDBRANCH 105 106
ENDBRANCH 104 105
ENDBRANCH  15 104
TORSDOF 36
ENDMDL
MODEL 9
REMARK VINA RESULT:      -6.8      2.552      5.346
REMARK WARNING: 32 MAX_TORS EXCEEDED!!!
REMARK  36 active torsions:
REMARK  status: ('A' for Active; 'I' for Inactive)
REMARK    1  A    between atoms: C_2  and  C_3 
REMARK    2  A    between atoms: C_3  and  C_5 
REMARK    3  A    between atoms: C_5  and  C_6 
REMARK    4  A    between atoms: C_6  and  C_7 
REMARK    5  A    between atoms: C_7  and  C_8 
REMARK    6  A    between atoms: C_8  and  C_9 
REMARK       I    between atoms: C_9  and  N_11 
REMARK    7  A    between atoms: N_11  and  C_12 
REMARK    8  A    between atoms: C_12  and  C_13 
REMARK    9  A    between atoms: C_12  and  C_16 
REMARK   10  A    between atoms: C_13  and  C_14 
REMARK   11  A    between atoms: C_14  and  N_15 
REMARK       I    between atoms: C_16  and  N_18 
REMARK   12  A    between atoms: N_18  and  C_19 
REMARK   13  A    between atoms: C_19  and  C_20 
REMARK   14  A    between atoms: C_19  and  C_23 
REMARK   15  A    between atoms: C_20  and  O_22 
REMARK       I    between atoms: C_23  and  N_25 
REMARK   16  A    between atoms: N_25  and  C_26 
REMARK   17  A    between atoms: C_26  and  C_27 
REMARK   18  A    between atoms: C_26  and  C_30 
REMARK   19  A    between atoms: C_27  and  C_28 
REMARK   20  A    between atoms: C_28  and  N_29 
REMARK       I    between atoms: C_30  and  N_32 
REMARK   21  A    between atoms: N_32  and  C_33 
REMARK   22  A    between atoms: C_39  and  C_83 
REMARK   23  A    between atoms: C_43  and  C_44 
REMARK   24  A    between atoms: C_44  and  C_45 
REMARK   25  A    between atoms: C_45  and  N_46 
REMARK   26  A    between atoms: C_50  and  C_51 
REMARK   27  A    between atoms: C_51  and  C_52 
REMARK   28  A    between atoms: C_52  and  N_53 
REMARK   29  A    between atoms: C_57  and  C_58 
REMARK   30  A    between atoms: C_58  and  C_59 
REMARK   31  A    between atoms: C_65  and  C_66 
REMARK   32  A    between atoms: C_66  and  C_67 
REMARK   33  A    between atoms: C_76  and  C_77 
REMARK   34  A    between atoms: C_77  and  C_78 
REMARK   35  A    between atoms: C_78  and  N_79 
REMARK   36  A    between atoms: C_83  and  O_85 
ROOT
HETATM    1  C   UNK N   1      34.523  13.239   5.541  0.00  0.00     0.178 C 
HETATM    2  C   UNK N   1      35.326  12.218   4.740  0.00  0.00     0.054 C 
HETATM    3  C   UNK N   1      34.793  12.140   3.322  0.00  0.00     0.125 C 
HETATM    4  N   UNK N   1      33.387  11.855   3.397  0.00  0.00    -0.359 N 
HETATM    5  C   UNK N   1      32.878  10.672   3.007  0.00  0.00     0.243 C 
HETATM    6  O   UNK N   1      33.585   9.832   2.473  0.00  0.00    -0.271 OA
HETATM    7  C   UNK N   1      31.462  10.359   3.335  0.00  0.00     0.205 C 
HETATM    8  N   UNK N   1      30.579  10.014   2.249  0.00  0.00    -0.344 N 
HETATM    9  C   UNK N   1      29.546  10.814   1.915  0.00  0.00     0.241 C 
HETATM   10  O   UNK N   1      29.393  11.872   2.491  0.00  0.00    -0.271 OA
HETATM   11  C   UNK N   1      28.586  10.407   0.826  0.00  0.00     0.178 C 
HETATM   12  N   UNK N   1      27.308  11.080   0.954  0.00  0.00    -0.346 N 
HETATM   13  C   UNK N   1      26.505  10.971   2.046  0.00  0.00     0.241 C 
HETATM   14  O   UNK N   1      26.766  10.183   2.941  0.00  0.00    -0.271 OA
HETATM   15  C   UNK N   1      25.405  11.960   2.259  0.00  0.00     0.178 C 
HETATM   16  N   UNK N   1      25.830  12.994   3.197  0.00  0.00    -0.346 N 
HETATM   17  C   UNK N   1      26.928  13.791   3.030  0.00  0.00     0.241 C 
HETATM   18  O   UNK N   1      27.635  13.685   2.040  0.00  0.00    -0.271 OA
HETATM   19  C   UNK N   1      27.161  14.922   3.989  0.00  0.00     0.177 C 
HETATM   20  N   UNK N   1      28.284  14.848   4.915  0.00  0.00    -0.346 N 
HETATM   21  C   UNK N   1      29.623  14.825   4.648  0.00  0.00     0.241 C 
HETATM   22  O   UNK N   1      30.045  14.557   3.534  0.00  0.00    -0.271 OA
HETATM   23  C   UNK N   1      30.517  15.443   5.715  0.00  0.00     0.180 C 
HETATM   24  N   UNK N   1      31.970  15.297   5.808  0.00  0.00    -0.346 N 
HETATM   25  C   UNK N   1      32.890  15.632   4.863  0.00  0.00     0.241 C 
HETATM   26  O   UNK N   1      32.596  15.631   3.680  0.00  0.00    -0.271 OA
HETATM   27  C   UNK N   1      34.180  16.311   5.294  0.00  0.00     0.178 C 
HETATM   28  N   UNK N   1      35.205  15.581   6.034  0.00  0.00    -0.346 N 
HETATM   29  C   UNK N   1      35.388  14.249   6.206  0.00  0.00     0.241 C 
HETATM   30  O   UNK N   1      36.293  13.868   6.933  0.00  0.00    -0.271 OA
HETATM   31  H   UNK N   1      32.777  12.545   3.745  0.00  0.00     0.162 HD
HETATM   32  H   UNK N   1      30.733   9.183   1.743  0.00  0.00     0.163 HD
HETATM   33  H   UNK N   1      27.004  11.649   0.210  0.00  0.00     0.163 HD
HETATM   34  H   UNK N   1      25.288  13.126   4.008  0.00  0.00     0.163 HD
HETATM   35  H   UNK N   1      28.043  14.809   5.868  0.00  0.00     0.163 HD
HETATM   36  H   UNK N   1      32.320  14.914   6.645  0.00  0.00     0.163 HD
HETATM   37  H   UNK N   1      35.873  16.150   6.481  0.00  0.00     0.163 HD
ENDROOT
BRANCH   1  38
HETATM   38  N   UNK N   1      33.511  12.753   6.467  0.00  0.00    -0.346 N 
HETATM   39  C   UNK N   1      33.485  11.730   7.369  0.00  0.00     0.241 C 
HETATM   40  O   UNK N   1      32.482  11.600   8.052  0.00  0.00    -0.271 OA
HETATM   41  H   UNK N   1      32.673  13.268   6.437  0.00  0.00     0.163 HD
BRANCH  39  42
HETATM   42  C   UNK N   1      34.615  10.773   7.635  0.00  0.00     0.178 C 
BRANCH  42  43
HETATM   43  N   UNK N   1      35.777  11.373   8.262  0.00  0.00    -0.346 N 
HETATM   44  C   UNK N   1      37.036  11.016   7.883  0.00  0.00     0.243 C 
HETATM   45  O   UNK N   1      37.198  10.275   6.924  0.00  0.00    -0.271 OA
HETATM   46  H   UNK N   1      35.655  12.046   8.969  0.00  0.00     0.163 HD
BRANCH  44  47
HETATM   47  C   UNK N   1      38.233  11.457   8.710  0.00  0.00     0.205 C 
BRANCH  47  48
HETATM   48  N   UNK N   1      37.963  11.219  10.105  0.00  0.00    -0.344 N 
HETATM   49  C   UNK N   1      37.479  10.052  10.604  0.00  0.00     0.241 C 
HETATM   50  O   UNK N   1      37.428   9.045   9.912  0.00  0.00    -0.271 OA
HETATM   51  H   UNK N   1      38.141  11.950  10.739  0.00  0.00     0.163 HD
BRANCH  49  52
HETATM   52  C   UNK N   1      36.813  10.069  11.941  0.00  0.00     0.178 C 
BRANCH  52  53
HETATM   53  N   UNK N   1      36.313  11.402  12.189  0.00  0.00    -0.348 N 
HETATM   54  C   UNK N   1      35.083  11.643  12.688  0.00  0.00     0.218 C 
HETATM   55  O   UNK N   1      34.720  12.796  12.856  0.00  0.00    -0.274 OA
HETATM   56  H   UNK N   1      36.896  12.168  11.982  0.00  0.00     0.163 HD
BRANCH  54  57
HETATM   57  C   UNK N   1      34.180  10.516  13.081  0.00  0.00     0.103 C 
BRANCH  57  58
HETATM   58  C   UNK N   1      33.788  10.636  14.548  0.00  0.00     0.009 C 
BRANCH  58  59
HETATM   59  C   UNK N   1      34.960  10.273  15.451  0.00  0.00     0.001 C 
BRANCH  59  60
HETATM   60  C   UNK N   1      34.593  10.462  16.918  0.00  0.00     0.004 C 
BRANCH  60  61
HETATM   61  C   UNK N   1      35.423  11.576  17.545  0.00  0.00    -0.019 C 
HETATM   62  C   UNK N   1      35.385  11.506  19.062  0.00  0.00     0.010 C 
BRANCH  61  63
HETATM   63  C   UNK N   1      34.942  12.930  17.048  0.00  0.00    -0.000 C 
HETATM   64  C   UNK N   1      35.314  14.027  18.031  0.00  0.00     0.005 C 
ENDBRANCH  61  63
ENDBRANCH  60  61
ENDBRANCH  59  60
ENDBRANCH  58  59
ENDBRANCH  57  58
ENDBRANCH  54  57
ENDBRANCH  52  53
BRANCH  52  65
HETATM   65  C   UNK N   1      37.872   9.758  12.992  0.00  0.00     0.054 C 
BRANCH  65  66
HETATM   66  C   UNK N   1      37.443   8.587  13.865  0.00  0.00     0.113 C 
BRANCH  66  67
HETATM   67  N   UNK N   1      36.593   7.692  13.102  0.00  0.00    -0.430 N 
HETATM   68  H   UNK N   1      35.645   7.968  12.848  0.00  0.00     0.149 HD
HETATM   69  H   UNK N   1      36.948   6.780  12.817  0.00  0.00     0.149 HD
ENDBRANCH  66  67
ENDBRANCH  65  66
ENDBRANCH  52  65
ENDBRANCH  49  52
ENDBRANCH  47  48
BRANCH  47  70
HETATM   70  C   UNK N   1      39.625  10.979   8.266  0.00  0.00     0.146 C 
HETATM   71  C   UNK N   1      40.714  11.613   9.111  0.00  0.00     0.042 C 
BRANCH  70  72
HETATM   72  O   UNK N   1      39.762   9.593   8.264  0.00  0.00    -0.393 OA
HETATM   73  H   UNK N   1      39.293   8.790   8.540  0.00  0.00     0.210 HD
ENDBRANCH  70  72
ENDBRANCH  47  70
ENDBRANCH  44  47
ENDBRANCH  42  43
BRANCH  42  74
HETATM   74  C   UNK N   1      34.187   9.456   8.269  0.00  0.00     0.054 C 
BRANCH  74  75
HETATM   75  C   UNK N   1      34.483   8.277   7.363  0.00  0.00     0.113 C 
BRANCH  75  76
HETATM   76  N   UNK N   1      35.740   7.676   7.768  0.00  0.00    -0.430 N 
HETATM   77  H   UNK N   1      36.339   6.852   7.841  0.00  0.00     0.149 HD
HETATM   78  H   UNK N   1      36.284   8.438   8.172  0.00  0.00     0.149 HD
ENDBRANCH  75  76
ENDBRANCH  74  75
ENDBRANCH  42  74
ENDBRANCH  39  42
ENDBRANCH   1  38
BRANCH  27  79
HETATM   79  C   UNK N   1      33.772  17.520   6.132  0.00  0.00     0.054 C 
BRANCH  79  80
HETATM   80  C   UNK N   1      34.149  17.352   7.587  0.00  0.00     0.113 C 
BRANCH  80  81
HETATM   81  N   UNK N   1      34.420  18.658   8.160  0.00  0.00    -0.430 N 
HETATM   82  H   UNK N   1      34.619  19.586   7.786  0.00  0.00     0.149 HD
HETATM   83  H   UNK N   1      34.407  18.645   9.180  0.00  0.00     0.149 HD
ENDBRANCH  80  81
ENDBRANCH  79  80
ENDBRANCH  27  79
BRANCH   7  84
HETATM   84  C   UNK N   1      30.906  10.471   4.763  0.00  0.00     0.146 C 
HETATM   85  C   UNK N   1      31.480   9.434   5.698  0.00  0.00     0.042 C 
BRANCH  84  86
HETATM   86  O   UNK N   1      31.103  11.747   5.289  0.00  0.00    -0.393 OA
HETATM   87  H   UNK N   1      31.948  12.223   5.276  0.00  0.00     0.210 HD
ENDBRANCH  84  86
ENDBRANCH   7  84
BRANCH  23  88
HETATM   88  C   UNK N   1      30.123  16.917   5.946  0.00  0.00     0.073 C 
BRANCH  88  89
HETATM   89  C   UNK N   1      29.641  17.297   7.334  0.00  0.00    -0.056 A 
HETATM   90  C   UNK N   1      28.312  17.110   7.748  0.00  0.00     0.007 A 
HETATM   91  C   UNK N   1      27.920  17.418   9.052  0.00  0.00     0.001 A 
HETATM   92  C   UNK N   1      28.856  17.918   9.959  0.00  0.00     0.000 A 
HETATM   93  C   UNK N   1      30.179  18.115   9.556  0.00  0.00     0.001 A 
HETATM   94  C   UNK N   1      30.570  17.803   8.249  0.00  0.00     0.007 A 
ENDBRANCH  88  89
ENDBRANCH  23  88
BRANCH  11  95
HETATM   95  C   UNK N   1      28.529   8.928   0.421  0.00  0.00     0.054 C 
BRANCH  95  96
HETATM   96  C   UNK N   1      29.516   8.514  -0.662  0.00  0.00     0.113 C 
BRANCH  96  97
HETATM   97  N   UNK N   1      29.372   9.352  -1.838  0.00  0.00    -0.430 N 
HETATM   98  H   UNK N   1      28.554   9.720  -2.323  0.00  0.00     0.149 HD
HETATM   99  H   UNK N   1      30.259   9.627  -2.260  0.00  0.00     0.149 HD
ENDBRANCH  96  97
ENDBRANCH  95  96
ENDBRANCH  11  95
BRANCH  19 100
HETATM  100  C   UNK N   1      27.167  16.280   3.291  0.00  0.00     0.038 C 
BRANCH 100 101
HETATM  101  C   UNK N   1      26.662  17.412   4.173  0.00  0.00    -0.020 C 
HETATM  102  C   UNK N   1      27.544  18.638   4.034  0.00  0.00     0.009 C 
HETATM  103  C   UNK N   1      25.252  17.761   3.752  0.00  0.00     0.009 C 
ENDBRANCH 100 101
ENDBRANCH  19 100
BRANCH  15 104
HETATM  104  C   UNK N   1      24.862  12.559   0.966  0.00  0.00     0.054 C 
BRANCH 104 105
HETATM  105  C   UNK N   1      23.351  12.694   1.045  0.00  0.00     0.113 C 
BRANCH 105 106
HETATM  106  N   UNK N   1      22.973  14.091   0.897  0.00  0.00    -0.430 N 
HETATM  107  H   UNK N   1      23.096  14.749   1.666  0.00  0.00     0.149 HD
HETATM  108  H   UNK N   1      22.579  14.414   0.014  0.00  0.00     0.149 HD
ENDBRANCH 105 106
ENDBRANCH 104 105
ENDBRANCH  15 104
TORSDOF 36
ENDMDL
