MODEL 1
REMARK VINA RESULT:      -7.1      0.000      0.000
REMARK  10 active torsions:
REMARK  status: ('A' for Active; 'I' for Inactive)
REMARK    1  A    between atoms: C_3  and  C_23 
REMARK    2  A    between atoms: C_4  and  C_14 
REMARK    3  A    between atoms: C_7  and  N_9 
REMARK       I    between atoms: N_9  and  C_10 
REMARK    4  A    between atoms: C_10  and  C_13 
REMARK    5  A    between atoms: C_13  and  C_15 
REMARK    6  A    between atoms: C_14  and  O_27 
REMARK    7  A    between atoms: C_18  and  N_26 
REMARK    8  A    between atoms: N_21  and  O_31 
REMARK    9  A    between atoms: C_23  and  O_24 
REMARK   10  A    between atoms: O_27  and  C_28 
ROOT
HETATM    1  C   UNK N   1      32.061  16.866   8.206  0.00  0.00     0.187 A 
HETATM    2  N   UNK N   1      32.065  17.064   6.792  0.00  0.00    -0.293 N 
HETATM    3  C   UNK N   1      30.947  17.156   5.907  0.00  0.00     0.117 C 
HETATM    4  C   UNK N   1      29.714  17.259   6.488  0.00  0.00    -0.013 C 
HETATM    5  C   UNK N   1      29.571  17.197   7.997  0.00  0.00     0.115 C 
HETATM    6  S   UNK N   1      30.907  18.077   8.895  0.00  0.00    -0.136 SA
HETATM    7  C   UNK N   1      33.623  17.275   8.186  0.00  0.00     0.211 A 
HETATM    8  C   UNK N   1      33.327  17.364   6.726  0.00  0.00     0.251 A 
HETATM    9  O   UNK N   1      33.968  17.779   5.772  0.00  0.00    -0.271 OA
ENDROOT
BRANCH   7  10
HETATM   10  N   UNK N   1      34.465  16.164   8.604  0.00  0.00    -0.340 N 
HETATM   11  C   UNK N   1      35.289  16.101   9.688  0.00  0.00     0.273 C 
HETATM   12  O   UNK N   1      35.451  17.076  10.403  0.00  0.00    -0.266 OA
HETATM   13  H   UNK N   1      34.437  15.361   8.037  0.00  0.00     0.163 HD
BRANCH  11  14
HETATM   14  C   UNK N   1      35.923  14.798  10.061  0.00  0.00     0.149 C 
HETATM   15  N   UNK N   1      36.389  13.984   9.173  0.00  0.00    -0.260 N 
ATOM     16  HN  UNK N   1      36.758  13.082   9.477  1.00  0.00     0.194 HD
BRANCH  14  17
HETATM   17  C   UNK N   1      35.901  14.371  11.483  0.00  0.00     0.075 A 
HETATM   18  C   UNK N   1      35.030  13.370  11.967  0.00  0.00     0.085 A 
HETATM   19  S   UNK N   1      35.273  13.354  13.611  0.00  0.00    -0.064 SA
HETATM   20  C   UNK N   1      36.405  14.543  13.683  0.00  0.00     0.142 A 
HETATM   21  N   UNK N   1      36.652  15.017  12.444  0.00  0.00    -0.335 N 
ATOM     22  HN  UNK N   1      37.318  15.763  12.243  1.00  0.00     0.168 HD
BRANCH  20  23
HETATM   23  N   UNK N   1      37.005  15.048  14.852  0.00  0.00    -0.380 N 
HETATM   24  H   UNK N   1      36.474  15.317  15.637  0.00  0.00     0.158 HD
HETATM   25  H   UNK N   1      37.985  15.136  14.886  0.00  0.00     0.158 HD
ENDBRANCH  20  23
ENDBRANCH  14  17
BRANCH  15  26
HETATM   26  O   UNK N   1      36.403  14.276   7.887  0.00  0.00    -0.285 OA
HETATM   27  C   UNK N   1      37.087  13.481   7.005  0.00  0.00     0.237 C 
ENDBRANCH  15  26
ENDBRANCH  11  14
ENDBRANCH   7  10
BRANCH   3  28
HETATM   28  C   UNK N   1      31.152  17.210   4.419  0.00  0.00     0.194 C 
HETATM   29  O   UNK N   1      30.919  16.229   3.733  0.00  0.00    -0.645 OA
BRANCH  28  30
HETATM   30  O   UNK N   1      31.545  18.344   3.809  0.00  0.00    -0.772 OA
HETATM   31  H   UNK N   1      31.988  19.037   4.257  0.00  0.00     0.167 HD
ENDBRANCH  28  30
ENDBRANCH   3  28
BRANCH   4  32
HETATM   32  C   UNK N   1      28.450  17.464   5.710  0.00  0.00     0.216 C 
BRANCH  32  33
HETATM   33  O   UNK N   1      27.745  18.527   6.235  0.00  0.00    -0.317 OA
BRANCH  33  34
HETATM   34  C   UNK N   1      27.742  19.769   5.685  0.00  0.00     0.255 C 
HETATM   35  C   UNK N   1      27.206  20.957   6.423  0.00  0.00     0.126 C 
HETATM   36  O   UNK N   1      28.182  19.924   4.558  0.00  0.00    -0.266 OA
ENDBRANCH  33  34
ENDBRANCH  32  33
ENDBRANCH   4  32
TORSDOF 10
ENDMDL
MODEL 2
REMARK VINA RESULT:      -6.8      5.234     10.820
REMARK  10 active torsions:
REMARK  status: ('A' for Active; 'I' for Inactive)
REMARK    1  A    between atoms: C_3  and  C_23 
REMARK    2  A    between atoms: C_4  and  C_14 
REMARK    3  A    between atoms: C_7  and  N_9 
REMARK       I    between atoms: N_9  and  C_10 
REMARK    4  A    between atoms: C_10  and  C_13 
REMARK    5  A    between atoms: C_13  and  C_15 
REMARK    6  A    between atoms: C_14  and  O_27 
REMARK    7  A    between atoms: C_18  and  N_26 
REMARK    8  A    between atoms: N_21  and  O_31 
REMARK    9  A    between atoms: C_23  and  O_24 
REMARK   10  A    between atoms: O_27  and  C_28 
ROOT
HETATM    1  C   UNK N   1      28.363  17.144   5.685  0.00  0.00     0.187 A 
HETATM    2  N   UNK N   1      28.777  17.748   6.911  0.00  0.00    -0.293 N 
HETATM    3  C   UNK N   1      29.888  17.399   7.739  0.00  0.00     0.117 C 
HETATM    4  C   UNK N   1      30.783  16.506   7.218  0.00  0.00    -0.013 C 
HETATM    5  C   UNK N   1      30.536  15.879   5.859  0.00  0.00     0.115 C 
HETATM    6  S   UNK N   1      29.831  17.048   4.632  0.00  0.00    -0.136 SA
HETATM    7  C   UNK N   1      27.398  18.423   5.477  0.00  0.00     0.211 A 
HETATM    8  C   UNK N   1      27.991  18.776   6.800  0.00  0.00     0.251 A 
HETATM    9  O   UNK N   1      27.943  19.783   7.490  0.00  0.00    -0.271 OA
ENDROOT
BRANCH   7  10
HETATM   10  N   UNK N   1      25.996  18.033   5.485  0.00  0.00    -0.340 N 
HETATM   11  C   UNK N   1      25.117  18.054   4.444  0.00  0.00     0.273 C 
HETATM   12  O   UNK N   1      25.446  18.508   3.361  0.00  0.00    -0.266 OA
HETATM   13  H   UNK N   1      25.639  17.715   6.344  0.00  0.00     0.163 HD
BRANCH  11  14
HETATM   14  C   UNK N   1      23.768  17.426   4.601  0.00  0.00     0.149 C 
HETATM   15  N   UNK N   1      23.611  16.268   5.153  0.00  0.00    -0.260 N 
ATOM     16  HN  UNK N   1      22.677  15.859   5.182  1.00  0.00     0.194 HD
BRANCH  14  17
HETATM   17  C   UNK N   1      22.590  18.093   3.991  0.00  0.00     0.075 A 
HETATM   18  C   UNK N   1      21.435  17.387   3.586  0.00  0.00     0.085 A 
HETATM   19  S   UNK N   1      20.480  18.527   2.843  0.00  0.00    -0.064 SA
HETATM   20  C   UNK N   1      21.481  19.816   3.030  0.00  0.00     0.142 A 
HETATM   21  N   UNK N   1      22.604  19.436   3.671  0.00  0.00    -0.335 N 
ATOM     22  HN  UNK N   1      23.374  20.068   3.895  1.00  0.00     0.168 HD
BRANCH  20  23
HETATM   23  N   UNK N   1      21.249  21.122   2.555  0.00  0.00    -0.380 N 
HETATM   24  H   UNK N   1      20.487  21.337   1.970  0.00  0.00     0.158 HD
HETATM   25  H   UNK N   1      21.868  21.841   2.815  0.00  0.00     0.158 HD
ENDBRANCH  20  23
ENDBRANCH  14  17
BRANCH  15  26
HETATM   26  O   UNK N   1      24.616  15.596   5.679  0.00  0.00    -0.285 OA
HETATM   27  C   UNK N   1      24.412  14.781   6.761  0.00  0.00     0.237 C 
ENDBRANCH  15  26
ENDBRANCH  11  14
ENDBRANCH   7  10
BRANCH   3  28
HETATM   28  C   UNK N   1      30.077  18.051   9.080  0.00  0.00     0.194 C 
HETATM   29  O   UNK N   1      30.634  19.133   9.162  0.00  0.00    -0.645 OA
BRANCH  28  30
HETATM   30  O   UNK N   1      29.598  17.487  10.205  0.00  0.00    -0.772 OA
HETATM   31  H   UNK N   1      30.000  16.746  10.615  0.00  0.00     0.167 HD
ENDBRANCH  28  30
ENDBRANCH   3  28
BRANCH   4  32
HETATM   32  C   UNK N   1      32.051  16.109   7.911  0.00  0.00     0.216 C 
BRANCH  32  33
HETATM   33  O   UNK N   1      33.125  16.303   7.068  0.00  0.00    -0.317 OA
BRANCH  33  34
HETATM   34  C   UNK N   1      33.768  17.493   6.937  0.00  0.00     0.255 C 
HETATM   35  C   UNK N   1      34.149  18.317   8.128  0.00  0.00     0.126 C 
HETATM   36  O   UNK N   1      34.038  17.907   5.822  0.00  0.00    -0.266 OA
ENDBRANCH  33  34
ENDBRANCH  32  33
ENDBRANCH   4  32
TORSDOF 10
ENDMDL
MODEL 3
REMARK VINA RESULT:      -6.7      3.302      9.208
REMARK  10 active torsions:
REMARK  status: ('A' for Active; 'I' for Inactive)
REMARK    1  A    between atoms: C_3  and  C_23 
REMARK    2  A    between atoms: C_4  and  C_14 
REMARK    3  A    between atoms: C_7  and  N_9 
REMARK       I    between atoms: N_9  and  C_10 
REMARK    4  A    between atoms: C_10  and  C_13 
REMARK    5  A    between atoms: C_13  and  C_15 
REMARK    6  A    between atoms: C_14  and  O_27 
REMARK    7  A    between atoms: C_18  and  N_26 
REMARK    8  A    between atoms: N_21  and  O_31 
REMARK    9  A    between atoms: C_23  and  O_24 
REMARK   10  A    between atoms: O_27  and  C_28 
ROOT
HETATM    1  C   UNK N   1      36.567  13.747  10.166  0.00  0.00     0.187 A 
HETATM    2  N   UNK N   1      36.194  13.968  11.526  0.00  0.00    -0.293 N 
HETATM    3  C   UNK N   1      36.406  13.115  12.652  0.00  0.00     0.117 C 
HETATM    4  C   UNK N   1      37.230  12.040  12.459  0.00  0.00    -0.013 C 
HETATM    5  C   UNK N   1      37.809  11.757  11.086  0.00  0.00     0.115 C 
HETATM    6  S   UNK N   1      38.312  13.270  10.178  0.00  0.00    -0.136 SA
HETATM    7  C   UNK N   1      36.239  15.308   9.908  0.00  0.00     0.211 A 
HETATM    8  C   UNK N   1      35.886  15.218  11.355  0.00  0.00     0.251 A 
HETATM    9  O   UNK N   1      35.597  16.058  12.194  0.00  0.00    -0.271 OA
ENDROOT
BRANCH   7  10
HETATM   10  N   UNK N   1      35.127  15.468   8.984  0.00  0.00    -0.340 N 
HETATM   11  C   UNK N   1      34.505  16.623   8.617  0.00  0.00     0.273 C 
HETATM   12  O   UNK N   1      34.809  17.685   9.135  0.00  0.00    -0.266 OA
HETATM   13  H   UNK N   1      34.782  14.643   8.573  0.00  0.00     0.163 HD
BRANCH  11  14
HETATM   14  C   UNK N   1      33.509  16.605   7.501  0.00  0.00     0.149 C 
HETATM   15  N   UNK N   1      33.855  16.377   6.277  0.00  0.00    -0.260 N 
ATOM     16  HN  UNK N   1      33.145  16.434   5.546  1.00  0.00     0.194 HD
BRANCH  14  17
HETATM   17  C   UNK N   1      32.103  16.989   7.787  0.00  0.00     0.075 A 
HETATM   18  C   UNK N   1      31.070  16.881   6.830  0.00  0.00     0.085 A 
HETATM   19  S   UNK N   1      29.740  17.556   7.563  0.00  0.00    -0.064 SA
HETATM   20  C   UNK N   1      30.447  17.953   8.992  0.00  0.00     0.142 A 
HETATM   21  N   UNK N   1      31.745  17.590   8.978  0.00  0.00    -0.335 N 
ATOM     22  HN  UNK N   1      32.387  17.741   9.757  1.00  0.00     0.168 HD
BRANCH  20  23
HETATM   23  N   UNK N   1      29.828  18.621  10.066  0.00  0.00    -0.380 N 
HETATM   24  H   UNK N   1      29.383  19.491   9.953  0.00  0.00     0.158 HD
HETATM   25  H   UNK N   1      29.842  18.204  10.958  0.00  0.00     0.158 HD
ENDBRANCH  20  23
ENDBRANCH  14  17
BRANCH  15  26
HETATM   26  O   UNK N   1      35.092  16.072   5.940  0.00  0.00    -0.285 OA
HETATM   27  C   UNK N   1      35.380  14.845   5.402  0.00  0.00     0.237 C 
ENDBRANCH  15  26
ENDBRANCH  11  14
ENDBRANCH   7  10
BRANCH   3  28
HETATM   28  C   UNK N   1      35.802  13.446  13.988  0.00  0.00     0.194 C 
HETATM   29  O   UNK N   1      36.412  14.144  14.781  0.00  0.00    -0.645 OA
BRANCH  28  30
HETATM   30  O   UNK N   1      34.565  13.028  14.318  0.00  0.00    -0.772 OA
HETATM   31  H   UNK N   1      34.075  13.395  15.028  0.00  0.00     0.167 HD
ENDBRANCH  28  30
ENDBRANCH   3  28
BRANCH   4  32
HETATM   32  C   UNK N   1      37.637  11.106  13.558  0.00  0.00     0.216 C 
BRANCH  32  33
HETATM   33  O   UNK N   1      37.016   9.886  13.387  0.00  0.00    -0.317 OA
BRANCH  33  34
HETATM   34  C   UNK N   1      35.680   9.697  13.551  0.00  0.00     0.255 C 
HETATM   35  C   UNK N   1      34.834   9.083  12.479  0.00  0.00     0.126 C 
HETATM   36  O   UNK N   1      35.152  10.040  14.596  0.00  0.00    -0.266 OA
ENDBRANCH  33  34
ENDBRANCH  32  33
ENDBRANCH   4  32
TORSDOF 10
ENDMDL
MODEL 4
REMARK VINA RESULT:      -6.7      3.174      9.269
REMARK  10 active torsions:
REMARK  status: ('A' for Active; 'I' for Inactive)
REMARK    1  A    between atoms: C_3  and  C_23 
REMARK    2  A    between atoms: C_4  and  C_14 
REMARK    3  A    between atoms: C_7  and  N_9 
REMARK       I    between atoms: N_9  and  C_10 
REMARK    4  A    between atoms: C_10  and  C_13 
REMARK    5  A    between atoms: C_13  and  C_15 
REMARK    6  A    between atoms: C_14  and  O_27 
REMARK    7  A    between atoms: C_18  and  N_26 
REMARK    8  A    between atoms: N_21  and  O_31 
REMARK    9  A    between atoms: C_23  and  O_24 
REMARK   10  A    between atoms: O_27  and  C_28 
ROOT
HETATM    1  C   UNK N   1      35.447  14.471   9.059  0.00  0.00     0.187 A 
HETATM    2  N   UNK N   1      35.508  14.712  10.465  0.00  0.00    -0.293 N 
HETATM    3  C   UNK N   1      35.955  13.829  11.496  0.00  0.00     0.117 C 
HETATM    4  C   UNK N   1      36.578  12.681  11.091  0.00  0.00    -0.013 C 
HETATM    5  C   UNK N   1      36.703  12.358   9.615  0.00  0.00     0.115 C 
HETATM    6  S   UNK N   1      37.064  13.824   8.572  0.00  0.00    -0.136 SA
HETATM    7  C   UNK N   1      35.211  16.058   8.880  0.00  0.00     0.211 A 
HETATM    8  C   UNK N   1      35.287  15.988  10.368  0.00  0.00     0.251 A 
HETATM    9  O   UNK N   1      35.338  16.843  11.240  0.00  0.00    -0.271 OA
ENDROOT
BRANCH   7  10
HETATM   10  N   UNK N   1      33.900  16.338   8.315  0.00  0.00    -0.340 N 
HETATM   11  C   UNK N   1      33.579  17.255   7.360  0.00  0.00     0.273 C 
HETATM   12  O   UNK N   1      34.422  18.022   6.927  0.00  0.00    -0.266 OA
HETATM   13  H   UNK N   1      33.154  15.799   8.665  0.00  0.00     0.163 HD
BRANCH  11  14
HETATM   14  C   UNK N   1      32.205  17.256   6.767  0.00  0.00     0.149 C 
HETATM   15  N   UNK N   1      31.157  17.544   7.465  0.00  0.00    -0.260 N 
ATOM     16  HN  UNK N   1      30.238  17.472   7.027  1.00  0.00     0.194 HD
BRANCH  14  17
HETATM   17  C   UNK N   1      32.027  16.786   5.370  0.00  0.00     0.075 A 
HETATM   18  C   UNK N   1      30.770  16.414   4.841  0.00  0.00     0.085 A 
HETATM   19  S   UNK N   1      31.104  15.832   3.321  0.00  0.00    -0.064 SA
HETATM   20  C   UNK N   1      32.733  16.044   3.351  0.00  0.00     0.142 A 
HETATM   21  N   UNK N   1      33.106  16.570   4.535  0.00  0.00    -0.335 N 
ATOM     22  HN  UNK N   1      34.071  16.785   4.784  1.00  0.00     0.168 HD
BRANCH  20  23
HETATM   23  N   UNK N   1      33.635  15.689   2.329  0.00  0.00    -0.380 N 
HETATM   24  H   UNK N   1      33.343  15.217   1.516  0.00  0.00     0.158 HD
HETATM   25  H   UNK N   1      34.586  15.920   2.431  0.00  0.00     0.158 HD
ENDBRANCH  20  23
ENDBRANCH  14  17
BRANCH  15  26
HETATM   26  O   UNK N   1      31.233  17.928   8.724  0.00  0.00    -0.285 OA
HETATM   27  C   UNK N   1      30.186  18.589   9.310  0.00  0.00     0.237 C 
ENDBRANCH  15  26
ENDBRANCH  11  14
ENDBRANCH   7  10
BRANCH   3  28
HETATM   28  C   UNK N   1      35.800  14.203  12.943  0.00  0.00     0.194 C 
HETATM   29  O   UNK N   1      34.896  13.725  13.607  0.00  0.00    -0.645 OA
BRANCH  28  30
HETATM   30  O   UNK N   1      36.676  15.028  13.549  0.00  0.00    -0.772 OA
HETATM   31  H   UNK N   1      37.114  15.724  13.100  0.00  0.00     0.167 HD
ENDBRANCH  28  30
ENDBRANCH   3  28
BRANCH   4  32
HETATM   32  C   UNK N   1      37.194  11.699  12.041  0.00  0.00     0.216 C 
BRANCH  32  33
HETATM   33  O   UNK N   1      36.381  10.591  12.159  0.00  0.00    -0.317 OA
BRANCH  33  34
HETATM   34  C   UNK N   1      35.503  10.412  13.180  0.00  0.00     0.255 C 
HETATM   35  C   UNK N   1      34.026  10.332  12.944  0.00  0.00     0.126 C 
HETATM   36  O   UNK N   1      35.923  10.320  14.321  0.00  0.00    -0.266 OA
ENDBRANCH  33  34
ENDBRANCH  32  33
ENDBRANCH   4  32
TORSDOF 10
ENDMDL
MODEL 5
REMARK VINA RESULT:      -6.7      2.950      5.101
REMARK  10 active torsions:
REMARK  status: ('A' for Active; 'I' for Inactive)
REMARK    1  A    between atoms: C_3  and  C_23 
REMARK    2  A    between atoms: C_4  and  C_14 
REMARK    3  A    between atoms: C_7  and  N_9 
REMARK       I    between atoms: N_9  and  C_10 
REMARK    4  A    between atoms: C_10  and  C_13 
REMARK    5  A    between atoms: C_13  and  C_15 
REMARK    6  A    between atoms: C_14  and  O_27 
REMARK    7  A    between atoms: C_18  and  N_26 
REMARK    8  A    between atoms: N_21  and  O_31 
REMARK    9  A    between atoms: C_23  and  O_24 
REMARK   10  A    between atoms: O_27  and  C_28 
ROOT
HETATM    1  C   UNK N   1      28.852  17.477   5.486  0.00  0.00     0.187 A 
HETATM    2  N   UNK N   1      28.333  18.568   6.248  0.00  0.00    -0.293 N 
HETATM    3  C   UNK N   1      27.380  19.554   5.845  0.00  0.00     0.117 C 
HETATM    4  C   UNK N   1      26.736  19.335   4.660  0.00  0.00    -0.013 C 
HETATM    5  C   UNK N   1      27.095  18.136   3.804  0.00  0.00     0.115 C 
HETATM    6  S   UNK N   1      27.428  16.616   4.777  0.00  0.00    -0.136 SA
HETATM    7  C   UNK N   1      29.439  16.896   6.873  0.00  0.00     0.211 A 
HETATM    8  C   UNK N   1      28.817  18.154   7.379  0.00  0.00     0.251 A 
HETATM    9  O   UNK N   1      28.621  18.591   8.503  0.00  0.00    -0.271 OA
ENDROOT
BRANCH   7  10
HETATM   10  N   UNK N   1      30.894  16.859   6.857  0.00  0.00    -0.340 N 
HETATM   11  C   UNK N   1      31.702  15.765   6.781  0.00  0.00     0.273 C 
HETATM   12  O   UNK N   1      31.229  14.641   6.798  0.00  0.00    -0.266 OA
HETATM   13  H   UNK N   1      31.350  17.730   6.906  0.00  0.00     0.163 HD
BRANCH  11  14
HETATM   14  C   UNK N   1      33.174  15.944   6.576  0.00  0.00     0.149 C 
HETATM   15  N   UNK N   1      33.685  16.126   5.404  0.00  0.00    -0.260 N 
ATOM     16  HN  UNK N   1      34.700  16.183   5.313  1.00  0.00     0.194 HD
BRANCH  14  17
HETATM   17  C   UNK N   1      34.084  15.778   7.737  0.00  0.00     0.075 A 
HETATM   18  C   UNK N   1      34.868  14.620   7.936  0.00  0.00     0.085 A 
HETATM   19  S   UNK N   1      35.590  14.844   9.416  0.00  0.00    -0.064 SA
HETATM   20  C   UNK N   1      34.938  16.312   9.765  0.00  0.00     0.142 A 
HETATM   21  N   UNK N   1      34.128  16.704   8.760  0.00  0.00    -0.335 N 
ATOM     22  HN  UNK N   1      33.610  17.583   8.757  1.00  0.00     0.168 HD
BRANCH  20  23
HETATM   23  N   UNK N   1      35.137  17.047  10.949  0.00  0.00    -0.380 N 
HETATM   24  H   UNK N   1      34.508  17.000  11.704  0.00  0.00     0.158 HD
HETATM   25  H   UNK N   1      35.929  17.628  11.023  0.00  0.00     0.158 HD
ENDBRANCH  20  23
ENDBRANCH  14  17
BRANCH  15  26
HETATM   26  O   UNK N   1      32.942  16.240   4.321  0.00  0.00    -0.285 OA
HETATM   27  C   UNK N   1      32.687  17.474   3.784  0.00  0.00     0.237 C 
ENDBRANCH  15  26
ENDBRANCH  11  14
ENDBRANCH   7  10
BRANCH   3  28
HETATM   28  C   UNK N   1      27.069  20.725   6.736  0.00  0.00     0.194 C 
HETATM   29  O   UNK N   1      27.449  21.843   6.433  0.00  0.00    -0.645 OA
BRANCH  28  30
HETATM   30  O   UNK N   1      26.330  20.577   7.851  0.00  0.00    -0.772 OA
HETATM   31  H   UNK N   1      26.620  20.085   8.594  0.00  0.00     0.167 HD
ENDBRANCH  28  30
ENDBRANCH   3  28
BRANCH   4  32
HETATM   32  C   UNK N   1      25.640  20.216   4.142  0.00  0.00     0.216 C 
BRANCH  32  33
HETATM   33  O   UNK N   1      24.547  19.449   3.797  0.00  0.00    -0.317 OA
BRANCH  33  34
HETATM   34  C   UNK N   1      23.367  19.974   3.373  0.00  0.00     0.255 C 
HETATM   35  C   UNK N   1      22.090  19.194   3.436  0.00  0.00     0.126 C 
HETATM   36  O   UNK N   1      23.345  21.107   2.924  0.00  0.00    -0.266 OA
ENDBRANCH  33  34
ENDBRANCH  32  33
ENDBRANCH   4  32
TORSDOF 10
ENDMDL
MODEL 6
REMARK VINA RESULT:      -6.2      2.992      9.068
REMARK  10 active torsions:
REMARK  status: ('A' for Active; 'I' for Inactive)
REMARK    1  A    between atoms: C_3  and  C_23 
REMARK    2  A    between atoms: C_4  and  C_14 
REMARK    3  A    between atoms: C_7  and  N_9 
REMARK       I    between atoms: N_9  and  C_10 
REMARK    4  A    between atoms: C_10  and  C_13 
REMARK    5  A    between atoms: C_13  and  C_15 
REMARK    6  A    between atoms: C_14  and  O_27 
REMARK    7  A    between atoms: C_18  and  N_26 
REMARK    8  A    between atoms: N_21  and  O_31 
REMARK    9  A    between atoms: C_23  and  O_24 
REMARK   10  A    between atoms: O_27  and  C_28 
ROOT
HETATM    1  C   UNK N   1      33.684  15.605   6.986  0.00  0.00     0.187 A 
HETATM    2  N   UNK N   1      34.118  16.273   8.171  0.00  0.00    -0.293 N 
HETATM    3  C   UNK N   1      35.070  15.830   9.139  0.00  0.00     0.117 C 
HETATM    4  C   UNK N   1      35.803  14.723   8.814  0.00  0.00    -0.013 C 
HETATM    5  C   UNK N   1      35.539  13.983   7.516  0.00  0.00     0.115 C 
HETATM    6  S   UNK N   1      35.177  15.095   6.102  0.00  0.00    -0.136 SA
HETATM    7  C   UNK N   1      33.014  17.005   6.540  0.00  0.00     0.211 A 
HETATM    8  C   UNK N   1      33.564  17.408   7.867  0.00  0.00     0.251 A 
HETATM    9  O   UNK N   1      33.668  18.487   8.431  0.00  0.00    -0.271 OA
ENDROOT
BRANCH   7  10
HETATM   10  N   UNK N   1      31.565  16.893   6.452  0.00  0.00    -0.340 N 
HETATM   11  C   UNK N   1      30.763  17.233   5.405  0.00  0.00     0.273 C 
HETATM   12  O   UNK N   1      31.228  17.769   4.413  0.00  0.00    -0.266 OA
HETATM   13  H   UNK N   1      31.110  16.527   7.244  0.00  0.00     0.163 HD
BRANCH  11  14
HETATM   14  C   UNK N   1      29.314  16.858   5.430  0.00  0.00     0.149 C 
HETATM   15  N   UNK N   1      28.926  15.626   5.463  0.00  0.00    -0.260 N 
ATOM     16  HN  UNK N   1      27.927  15.424   5.419  1.00  0.00     0.194 HD
BRANCH  14  17
HETATM   17  C   UNK N   1      28.294  17.927   5.283  0.00  0.00     0.075 A 
HETATM   18  C   UNK N   1      27.757  18.305   4.033  0.00  0.00     0.085 A 
HETATM   19  S   UNK N   1      26.787  19.613   4.365  0.00  0.00    -0.064 SA
HETATM   20  C   UNK N   1      27.047  19.680   5.986  0.00  0.00     0.142 A 
HETATM   21  N   UNK N   1      27.897  18.701   6.356  0.00  0.00    -0.335 N 
ATOM     22  HN  UNK N   1      28.208  18.549   7.315  1.00  0.00     0.168 HD
BRANCH  20  23
HETATM   23  N   UNK N   1      26.516  20.637   6.872  0.00  0.00    -0.380 N 
HETATM   24  H   UNK N   1      26.520  21.600   6.664  0.00  0.00     0.158 HD
HETATM   25  H   UNK N   1      26.131  20.336   7.726  0.00  0.00     0.158 HD
ENDBRANCH  20  23
ENDBRANCH  14  17
BRANCH  15  26
HETATM   26  O   UNK N   1      29.775  14.621   5.551  0.00  0.00    -0.285 OA
HETATM   27  C   UNK N   1      29.841  13.684   4.554  0.00  0.00     0.237 C 
ENDBRANCH  15  26
ENDBRANCH  11  14
ENDBRANCH   7  10
BRANCH   3  28
HETATM   28  C   UNK N   1      35.285  16.603  10.410  0.00  0.00     0.194 C 
HETATM   29  O   UNK N   1      35.938  17.633  10.398  0.00  0.00    -0.645 OA
BRANCH  28  30
HETATM   30  O   UNK N   1      34.727  16.209  11.570  0.00  0.00    -0.772 OA
HETATM   31  H   UNK N   1      34.235  16.786  12.121  0.00  0.00     0.167 HD
ENDBRANCH  28  30
ENDBRANCH   3  28
BRANCH   4  32
HETATM   32  C   UNK N   1      36.910  14.186   9.670  0.00  0.00     0.216 C 
BRANCH  32  33
HETATM   33  O   UNK N   1      36.409  13.249  10.549  0.00  0.00    -0.317 OA
BRANCH  33  34
HETATM   34  C   UNK N   1      36.792  13.162  11.850  0.00  0.00     0.255 C 
HETATM   35  C   UNK N   1      37.517  11.963  12.378  0.00  0.00     0.126 C 
HETATM   36  O   UNK N   1      36.535  14.079  12.611  0.00  0.00    -0.266 OA
ENDBRANCH  33  34
ENDBRANCH  32  33
ENDBRANCH   4  32
TORSDOF 10
ENDMDL
MODEL 7
REMARK VINA RESULT:      -6.2      3.001      9.105
REMARK  10 active torsions:
REMARK  status: ('A' for Active; 'I' for Inactive)
REMARK    1  A    between atoms: C_3  and  C_23 
REMARK    2  A    between atoms: C_4  and  C_14 
REMARK    3  A    between atoms: C_7  and  N_9 
REMARK       I    between atoms: N_9  and  C_10 
REMARK    4  A    between atoms: C_10  and  C_13 
REMARK    5  A    between atoms: C_13  and  C_15 
REMARK    6  A    between atoms: C_14  and  O_27 
REMARK    7  A    between atoms: C_18  and  N_26 
REMARK    8  A    between atoms: N_21  and  O_31 
REMARK    9  A    between atoms: C_23  and  O_24 
REMARK   10  A    between atoms: O_27  and  C_28 
ROOT
HETATM    1  C   UNK N   1      35.542  14.414   9.041  0.00  0.00     0.187 A 
HETATM    2  N   UNK N   1      35.583  14.684  10.442  0.00  0.00    -0.293 N 
HETATM    3  C   UNK N   1      36.054  13.839  11.493  0.00  0.00     0.117 C 
HETATM    4  C   UNK N   1      36.723  12.708  11.116  0.00  0.00    -0.013 C 
HETATM    5  C   UNK N   1      36.872  12.361   9.647  0.00  0.00     0.115 C 
HETATM    6  S   UNK N   1      37.187  13.819   8.579  0.00  0.00    -0.136 SA
HETATM    7  C   UNK N   1      35.249  15.988   8.829  0.00  0.00     0.211 A 
HETATM    8  C   UNK N   1      35.315  15.949  10.319  0.00  0.00     0.251 A 
HETATM    9  O   UNK N   1      35.326  16.821  11.174  0.00  0.00    -0.271 OA
ENDROOT
BRANCH   7  10
HETATM   10  N   UNK N   1      33.933  16.206   8.249  0.00  0.00    -0.340 N 
HETATM   11  C   UNK N   1      33.546  17.205   7.406  0.00  0.00     0.273 C 
HETATM   12  O   UNK N   1      34.316  18.103   7.112  0.00  0.00    -0.266 OA
HETATM   13  H   UNK N   1      33.237  15.555   8.494  0.00  0.00     0.163 HD
BRANCH  11  14
HETATM   14  C   UNK N   1      32.198  17.147   6.759  0.00  0.00     0.149 C 
HETATM   15  N   UNK N   1      32.052  16.898   5.500  0.00  0.00    -0.260 N 
ATOM     16  HN  UNK N   1      31.115  16.929   5.097  1.00  0.00     0.194 HD
BRANCH  14  17
HETATM   17  C   UNK N   1      31.002  17.512   7.560  0.00  0.00     0.075 A 
HETATM   18  C   UNK N   1      31.082  18.247   8.764  0.00  0.00     0.085 A 
HETATM   19  S   UNK N   1      29.527  18.274   9.349  0.00  0.00    -0.064 SA
HETATM   20  C   UNK N   1      28.818  17.407   8.148  0.00  0.00     0.142 A 
HETATM   21  N   UNK N   1      29.743  17.048   7.234  0.00  0.00    -0.335 N 
ATOM     22  HN  UNK N   1      29.535  16.499   6.400  1.00  0.00     0.168 HD
BRANCH  20  23
HETATM   23  N   UNK N   1      27.462  17.034   8.083  0.00  0.00    -0.380 N 
HETATM   24  H   UNK N   1      27.147  16.309   7.496  0.00  0.00     0.158 HD
HETATM   25  H   UNK N   1      26.808  17.515   8.640  0.00  0.00     0.158 HD
ENDBRANCH  20  23
ENDBRANCH  14  17
BRANCH  15  26
HETATM   26  O   UNK N   1      33.072  16.607   4.716  0.00  0.00    -0.285 OA
HETATM   27  C   UNK N   1      33.164  15.372   4.133  0.00  0.00     0.237 C 
ENDBRANCH  15  26
ENDBRANCH  11  14
ENDBRANCH   7  10
BRANCH   3  28
HETATM   28  C   UNK N   1      35.873  14.235  12.932  0.00  0.00     0.194 C 
HETATM   29  O   UNK N   1      34.969  13.749  13.593  0.00  0.00    -0.645 OA
BRANCH  28  30
HETATM   30  O   UNK N   1      36.724  15.087  13.534  0.00  0.00    -0.772 OA
HETATM   31  H   UNK N   1      36.616  15.373  14.420  0.00  0.00     0.167 HD
ENDBRANCH  28  30
ENDBRANCH   3  28
BRANCH   4  32
HETATM   32  C   UNK N   1      37.367  11.767  12.089  0.00  0.00     0.216 C 
BRANCH  32  33
HETATM   33  O   UNK N   1      36.428  10.881  12.574  0.00  0.00    -0.317 OA
BRANCH  33  34
HETATM   34  C   UNK N   1      36.479  10.345  13.822  0.00  0.00     0.255 C 
HETATM   35  C   UNK N   1      36.983  11.127  14.995  0.00  0.00     0.126 C 
HETATM   36  O   UNK N   1      36.111   9.195  13.993  0.00  0.00    -0.266 OA
ENDBRANCH  33  34
ENDBRANCH  32  33
ENDBRANCH   4  32
TORSDOF 10
ENDMDL
MODEL 8
REMARK VINA RESULT:      -6.2      3.004      9.153
REMARK  10 active torsions:
REMARK  status: ('A' for Active; 'I' for Inactive)
REMARK    1  A    between atoms: C_3  and  C_23 
REMARK    2  A    between atoms: C_4  and  C_14 
REMARK    3  A    between atoms: C_7  and  N_9 
REMARK       I    between atoms: N_9  and  C_10 
REMARK    4  A    between atoms: C_10  and  C_13 
REMARK    5  A    between atoms: C_13  and  C_15 
REMARK    6  A    between atoms: C_14  and  O_27 
REMARK    7  A    between atoms: C_18  and  N_26 
REMARK    8  A    between atoms: N_21  and  O_31 
REMARK    9  A    between atoms: C_23  and  O_24 
REMARK   10  A    between atoms: O_27  and  C_28 
ROOT
HETATM    1  C   UNK N   1      32.970  14.655   8.130  0.00  0.00     0.187 A 
HETATM    2  N   UNK N   1      33.901  15.476   8.836  0.00  0.00    -0.293 N 
HETATM    3  C   UNK N   1      34.774  15.107   9.904  0.00  0.00     0.117 C 
HETATM    4  C   UNK N   1      34.883  13.771  10.172  0.00  0.00    -0.013 C 
HETATM    5  C   UNK N   1      34.047  12.766   9.404  0.00  0.00     0.115 C 
HETATM    6  S   UNK N   1      33.870  13.170   7.623  0.00  0.00    -0.136 SA
HETATM    7  C   UNK N   1      32.863  15.848   7.047  0.00  0.00     0.211 A 
HETATM    8  C   UNK N   1      33.818  16.474   8.008  0.00  0.00     0.251 A 
HETATM    9  O   UNK N   1      34.487  17.495   7.969  0.00  0.00    -0.271 OA
ENDROOT
BRANCH   7  10
HETATM   10  N   UNK N   1      31.522  16.413   7.014  0.00  0.00    -0.340 N 
HETATM   11  C   UNK N   1      30.943  17.133   6.013  0.00  0.00     0.273 C 
HETATM   12  O   UNK N   1      31.582  17.447   5.023  0.00  0.00    -0.266 OA
HETATM   13  H   UNK N   1      30.966  16.255   7.810  0.00  0.00     0.163 HD
BRANCH  11  14
HETATM   14  C   UNK N   1      29.484  17.458   6.084  0.00  0.00     0.149 C 
HETATM   15  N   UNK N   1      28.945  17.964   7.144  0.00  0.00    -0.260 N 
ATOM     16  HN  UNK N   1      27.935  18.111   7.160  1.00  0.00     0.194 HD
BRANCH  14  17
HETATM   17  C   UNK N   1      28.607  17.069   4.951  0.00  0.00     0.075 A 
HETATM   18  C   UNK N   1      27.252  17.461   4.862  0.00  0.00     0.085 A 
HETATM   19  S   UNK N   1      26.669  16.671   3.521  0.00  0.00    -0.064 SA
HETATM   20  C   UNK N   1      28.052  15.891   3.099  0.00  0.00     0.142 A 
HETATM   21  N   UNK N   1      29.034  16.195   3.972  0.00  0.00    -0.335 N 
ATOM     22  HN  UNK N   1      29.982  15.823   3.913  1.00  0.00     0.168 HD
BRANCH  20  23
HETATM   23  N   UNK N   1      28.203  14.993   2.025  0.00  0.00    -0.380 N 
HETATM   24  H   UNK N   1      28.968  14.377   1.963  0.00  0.00     0.158 HD
HETATM   25  H   UNK N   1      27.523  14.982   1.313  0.00  0.00     0.158 HD
ENDBRANCH  20  23
ENDBRANCH  14  17
BRANCH  15  26
HETATM   26  O   UNK N   1      29.653  18.295   8.205  0.00  0.00    -0.285 OA
HETATM   27  C   UNK N   1      29.061  18.361   9.439  0.00  0.00     0.237 C 
ENDBRANCH  15  26
ENDBRANCH  11  14
ENDBRANCH   7  10
BRANCH   3  28
HETATM   28  C   UNK N   1      35.575  16.150  10.632  0.00  0.00     0.194 C 
HETATM   29  O   UNK N   1      36.793  16.094  10.637  0.00  0.00    -0.645 OA
BRANCH  28  30
HETATM   30  O   UNK N   1      34.976  17.188  11.247  0.00  0.00    -0.772 OA
HETATM   31  H   UNK N   1      35.404  17.713  11.895  0.00  0.00     0.167 HD
ENDBRANCH  28  30
ENDBRANCH   3  28
BRANCH   4  32
HETATM   32  C   UNK N   1      35.828  13.208  11.190  0.00  0.00     0.216 C 
BRANCH  32  33
HETATM   33  O   UNK N   1      35.129  12.825  12.315  0.00  0.00    -0.317 OA
BRANCH  33  34
HETATM   34  C   UNK N   1      35.306  13.395  13.537  0.00  0.00     0.255 C 
HETATM   35  C   UNK N   1      36.400  14.386  13.791  0.00  0.00     0.126 C 
HETATM   36  O   UNK N   1      34.562  13.089  14.452  0.00  0.00    -0.266 OA
ENDBRANCH  33  34
ENDBRANCH  32  33
ENDBRANCH   4  32
TORSDOF 10
ENDMDL
MODEL 9
REMARK VINA RESULT:      -6.2     13.715     17.112
REMARK  10 active torsions:
REMARK  status: ('A' for Active; 'I' for Inactive)
REMARK    1  A    between atoms: C_3  and  C_23 
REMARK    2  A    between atoms: C_4  and  C_14 
REMARK    3  A    between atoms: C_7  and  N_9 
REMARK       I    between atoms: N_9  and  C_10 
REMARK    4  A    between atoms: C_10  and  C_13 
REMARK    5  A    between atoms: C_13  and  C_15 
REMARK    6  A    between atoms: C_14  and  O_27 
REMARK    7  A    between atoms: C_18  and  N_26 
REMARK    8  A    between atoms: N_21  and  O_31 
REMARK    9  A    between atoms: C_23  and  O_24 
REMARK   10  A    between atoms: O_27  and  C_28 
ROOT
HETATM    1  C   UNK N   1      28.947  24.377  -3.488  0.00  0.00     0.187 A 
HETATM    2  N   UNK N   1      28.881  23.687  -4.737  0.00  0.00    -0.293 N 
HETATM    3  C   UNK N   1      29.636  22.551  -5.161  0.00  0.00     0.117 C 
HETATM    4  C   UNK N   1      30.381  21.919  -4.205  0.00  0.00    -0.013 C 
HETATM    5  C   UNK N   1      30.440  22.470  -2.793  0.00  0.00     0.115 C 
HETATM    6  S   UNK N   1      28.832  23.120  -2.193  0.00  0.00    -0.136 SA
HETATM    7  C   UNK N   1      27.574  25.113  -3.916  0.00  0.00     0.211 A 
HETATM    8  C   UNK N   1      27.796  24.280  -5.134  0.00  0.00     0.251 A 
HETATM    9  O   UNK N   1      27.108  24.044  -6.115  0.00  0.00    -0.271 OA
ENDROOT
BRANCH   7  10
HETATM   10  N   UNK N   1      27.769  26.546  -4.072  0.00  0.00    -0.340 N 
HETATM   11  C   UNK N   1      27.103  27.554  -3.442  0.00  0.00     0.273 C 
HETATM   12  O   UNK N   1      26.168  27.311  -2.697  0.00  0.00    -0.266 OA
HETATM   13  H   UNK N   1      28.466  26.822  -4.709  0.00  0.00     0.163 HD
BRANCH  11  14
HETATM   14  C   UNK N   1      27.584  28.964  -3.588  0.00  0.00     0.149 C 
HETATM   15  N   UNK N   1      27.622  29.559  -4.735  0.00  0.00    -0.260 N 
ATOM     16  HN  UNK N   1      28.013  30.500  -4.787  1.00  0.00     0.194 HD
BRANCH  14  17
HETATM   17  C   UNK N   1      28.154  29.654  -2.404  0.00  0.00     0.075 A 
HETATM   18  C   UNK N   1      29.234  30.560  -2.492  0.00  0.00     0.085 A 
HETATM   19  S   UNK N   1      29.597  30.944  -0.917  0.00  0.00    -0.064 SA
HETATM   20  C   UNK N   1      28.455  30.013  -0.189  0.00  0.00     0.142 A 
HETATM   21  N   UNK N   1      27.736  29.355  -1.122  0.00  0.00    -0.335 N 
ATOM     22  HN  UNK N   1      26.973  28.714  -0.905  1.00  0.00     0.168 HD
BRANCH  20  23
HETATM   23  N   UNK N   1      28.266  29.865   1.198  0.00  0.00    -0.380 N 
HETATM   24  H   UNK N   1      27.492  30.257   1.665  0.00  0.00     0.158 HD
HETATM   25  H   UNK N   1      28.929  29.356   1.719  0.00  0.00     0.158 HD
ENDBRANCH  20  23
ENDBRANCH  14  17
BRANCH  15  26
HETATM   26  O   UNK N   1      27.173  28.994  -5.838  0.00  0.00    -0.285 OA
HETATM   27  C   UNK N   1      28.004  28.820  -6.912  0.00  0.00     0.237 C 
ENDBRANCH  15  26
ENDBRANCH  11  14
ENDBRANCH   7  10
BRANCH   3  28
HETATM   28  C   UNK N   1      29.540  22.054  -6.577  0.00  0.00     0.194 C 
HETATM   29  O   UNK N   1      30.469  22.220  -7.349  0.00  0.00    -0.645 OA
BRANCH  28  30
HETATM   30  O   UNK N   1      28.458  21.378  -7.007  0.00  0.00    -0.772 OA
HETATM   31  H   UNK N   1      27.751  21.133  -6.442  0.00  0.00     0.167 HD
ENDBRANCH  28  30
ENDBRANCH   3  28
BRANCH   4  32
HETATM   32  C   UNK N   1      31.150  20.658  -4.458  0.00  0.00     0.216 C 
BRANCH  32  33
HETATM   33  O   UNK N   1      32.498  20.942  -4.544  0.00  0.00    -0.317 OA
BRANCH  33  34
HETATM   34  C   UNK N   1      33.434  20.375  -3.738  0.00  0.00     0.255 C 
HETATM   35  C   UNK N   1      34.137  19.109  -4.118  0.00  0.00     0.126 C 
HETATM   36  O   UNK N   1      33.707  20.906  -2.675  0.00  0.00    -0.266 OA
ENDBRANCH  33  34
ENDBRANCH  32  33
ENDBRANCH   4  32
TORSDOF 10
ENDMDL
