MODEL 1
REMARK VINA RESULT:      -3.8      0.000      0.000
REMARK  3 active torsions:
REMARK  status: ('A' for Active; 'I' for Inactive)
REMARK    1  A    between atoms: C_2  and  C_1 
REMARK    2  A    between atoms: O_3  and  C_1 
REMARK    3  A    between atoms: C_2  and  N_5 
ROOT
HETATM    1  C   UNK N   1      34.269  17.157   9.098  0.00  0.00     0.169 C 
HETATM    2  C   UNK N   1      33.230  16.110   8.747  0.00  0.00     0.043 C 
ENDROOT
BRANCH   1   3
HETATM    3  C   UNK N   1      34.684  18.236   8.147  0.00  0.00     0.162 C 
HETATM    4  O   UNK N   1      34.421  18.137   6.960  0.00  0.00    -0.648 OA
BRANCH   3   5
HETATM    5  O   UNK N   1      35.347  19.320   8.595  0.00  0.00    -0.775 OA
HETATM    6  H   UNK N   1      35.177  19.652   9.454  0.00  0.00     0.167 HD
ENDBRANCH   3   5
ENDBRANCH   1   3
BRANCH   1   7
HETATM    7  N   UNK N   1      34.881  17.101  10.414  0.00  0.00    -0.418 N 
HETATM    8  H   UNK N   1      34.295  17.105  11.250  0.00  0.00     0.150 HD
HETATM    9  H   UNK N   1      35.896  17.057  10.504  0.00  0.00     0.150 HD
ENDBRANCH   1   7
TORSDOF 3
ENDMDL
MODEL 2
REMARK VINA RESULT:      -3.7     15.155     15.509
REMARK  3 active torsions:
REMARK  status: ('A' for Active; 'I' for Inactive)
REMARK    1  A    between atoms: C_2  and  C_1 
REMARK    2  A    between atoms: O_3  and  C_1 
REMARK    3  A    between atoms: C_2  and  N_5 
ROOT
HETATM    1  C   UNK N   1      20.658  20.037   1.593  0.00  0.00     0.169 C 
HETATM    2  C   UNK N   1      20.445  18.535   1.592  0.00  0.00     0.043 C 
ENDROOT
BRANCH   1   3
HETATM    3  C   UNK N   1      21.010  20.804   2.830  0.00  0.00     0.162 C 
HETATM    4  O   UNK N   1      20.377  20.626   3.858  0.00  0.00    -0.648 OA
BRANCH   3   5
HETATM    5  O   UNK N   1      22.024  21.691   2.815  0.00  0.00    -0.775 OA
HETATM    6  H   UNK N   1      21.842  22.610   2.837  0.00  0.00     0.167 HD
ENDBRANCH   3   5
ENDBRANCH   1   3
BRANCH   1   7
HETATM    7  N   UNK N   1      20.513  20.750   0.336  0.00  0.00    -0.418 N 
HETATM    8  H   UNK N   1      19.915  21.575   0.284  0.00  0.00     0.150 HD
HETATM    9  H   UNK N   1      21.008  20.426  -0.495  0.00  0.00     0.150 HD
ENDBRANCH   1   7
TORSDOF 3
ENDMDL
MODEL 3
REMARK VINA RESULT:      -3.6     12.607     13.149
REMARK  3 active torsions:
REMARK  status: ('A' for Active; 'I' for Inactive)
REMARK    1  A    between atoms: C_2  and  C_1 
REMARK    2  A    between atoms: O_3  and  C_1 
REMARK    3  A    between atoms: C_2  and  N_5 
ROOT
HETATM    1  C   UNK N   1      22.712  11.835  11.169  0.00  0.00     0.169 C 
HETATM    2  C   UNK N   1      22.970  11.564   9.699  0.00  0.00     0.043 C 
ENDROOT
BRANCH   1   3
HETATM    3  C   UNK N   1      23.815  12.074  12.153  0.00  0.00     0.162 C 
HETATM    4  O   UNK N   1      23.585  12.028  13.350  0.00  0.00    -0.648 OA
BRANCH   3   5
HETATM    5  O   UNK N   1      25.064  12.341  11.723  0.00  0.00    -0.775 OA
HETATM    6  H   UNK N   1      25.763  12.428  12.341  0.00  0.00     0.167 HD
ENDBRANCH   3   5
ENDBRANCH   1   3
BRANCH   1   7
HETATM    7  N   UNK N   1      21.335  11.863  11.629  0.00  0.00    -0.418 N 
HETATM    8  H   UNK N   1      21.067  11.347  12.467  0.00  0.00     0.150 HD
HETATM    9  H   UNK N   1      20.635  12.398  11.114  0.00  0.00     0.150 HD
ENDBRANCH   1   7
TORSDOF 3
ENDMDL
MODEL 4
REMARK VINA RESULT:      -3.6     15.297     15.795
REMARK  3 active torsions:
REMARK  status: ('A' for Active; 'I' for Inactive)
REMARK    1  A    between atoms: C_2  and  C_1 
REMARK    2  A    between atoms: O_3  and  C_1 
REMARK    3  A    between atoms: C_2  and  N_5 
ROOT
HETATM    1  C   UNK N   1      20.193  19.260   2.442  0.00  0.00     0.169 C 
HETATM    2  C   UNK N   1      21.002  18.762   3.624  0.00  0.00     0.043 C 
ENDROOT
BRANCH   1   3
HETATM    3  C   UNK N   1      20.743  20.219   1.432  0.00  0.00     0.162 C 
HETATM    4  O   UNK N   1      21.289  21.245   1.799  0.00  0.00    -0.648 OA
BRANCH   3   5
HETATM    5  O   UNK N   1      20.638  19.953   0.114  0.00  0.00    -0.775 OA
HETATM    6  H   UNK N   1      21.138  20.448  -0.505  0.00  0.00     0.167 HD
ENDBRANCH   3   5
ENDBRANCH   1   3
BRANCH   1   7
HETATM    7  N   UNK N   1      18.830  18.781   2.295  0.00  0.00    -0.418 N 
HETATM    8  H   UNK N   1      18.366  18.316   3.075  0.00  0.00     0.150 HD
HETATM    9  H   UNK N   1      18.336  18.909   1.411  0.00  0.00     0.150 HD
ENDBRANCH   1   7
TORSDOF 3
ENDMDL
MODEL 5
REMARK VINA RESULT:      -3.4     11.704     11.910
REMARK  3 active torsions:
REMARK  status: ('A' for Active; 'I' for Inactive)
REMARK    1  A    between atoms: C_2  and  C_1 
REMARK    2  A    between atoms: O_3  and  C_1 
REMARK    3  A    between atoms: C_2  and  N_5 
ROOT
HETATM    1  C   UNK N   1      44.378  21.996   3.661  0.00  0.00     0.169 C 
HETATM    2  C   UNK N   1      43.867  20.612   3.313  0.00  0.00     0.043 C 
ENDROOT
BRANCH   1   3
HETATM    3  C   UNK N   1      43.540  23.228   3.516  0.00  0.00     0.162 C 
HETATM    4  O   UNK N   1      42.893  23.409   2.498  0.00  0.00    -0.648 OA
BRANCH   3   5
HETATM    5  O   UNK N   1      43.497  24.142   4.505  0.00  0.00    -0.775 OA
HETATM    6  H   UNK N   1      44.279  24.364   4.972  0.00  0.00     0.167 HD
ENDBRANCH   3   5
ENDBRANCH   1   3
BRANCH   1   7
HETATM    7  N   UNK N   1      45.738  22.119   4.155  0.00  0.00    -0.418 N 
HETATM    8  H   UNK N   1      46.135  23.042   4.333  0.00  0.00     0.150 HD
HETATM    9  H   UNK N   1      46.298  21.283   4.324  0.00  0.00     0.150 HD
ENDBRANCH   1   7
TORSDOF 3
ENDMDL
MODEL 6
REMARK VINA RESULT:      -3.3     11.530     11.985
REMARK  3 active torsions:
REMARK  status: ('A' for Active; 'I' for Inactive)
REMARK    1  A    between atoms: C_2  and  C_1 
REMARK    2  A    between atoms: O_3  and  C_1 
REMARK    3  A    between atoms: C_2  and  N_5 
ROOT
HETATM    1  C   UNK N   1      43.560  22.743   3.531  0.00  0.00     0.169 C 
HETATM    2  C   UNK N   1      42.406  22.397   2.609  0.00  0.00     0.043 C 
ENDROOT
BRANCH   1   3
HETATM    3  C   UNK N   1      44.686  21.796   3.808  0.00  0.00     0.162 C 
HETATM    4  O   UNK N   1      44.533  20.599   3.631  0.00  0.00    -0.648 OA
BRANCH   3   5
HETATM    5  O   UNK N   1      45.871  22.259   4.252  0.00  0.00    -0.775 OA
HETATM    6  H   UNK N   1      46.628  21.708   4.228  0.00  0.00     0.167 HD
ENDBRANCH   3   5
ENDBRANCH   1   3
BRANCH   1   7
HETATM    7  N   UNK N   1      43.562  24.050   4.164  0.00  0.00    -0.418 N 
HETATM    8  H   UNK N   1      43.021  24.205   5.015  0.00  0.00     0.150 HD
HETATM    9  H   UNK N   1      44.105  24.813   3.760  0.00  0.00     0.150 HD
ENDBRANCH   1   7
TORSDOF 3
ENDMDL
MODEL 7
REMARK VINA RESULT:      -3.2      2.767      3.108
REMARK  3 active torsions:
REMARK  status: ('A' for Active; 'I' for Inactive)
REMARK    1  A    between atoms: C_2  and  C_1 
REMARK    2  A    between atoms: O_3  and  C_1 
REMARK    3  A    between atoms: C_2  and  N_5 
ROOT
HETATM    1  C   UNK N   1      34.743  15.318  10.083  0.00  0.00     0.169 C 
HETATM    2  C   UNK N   1      34.898  14.479   8.828  0.00  0.00     0.043 C 
ENDROOT
BRANCH   1   3
HETATM    3  C   UNK N   1      35.729  16.373  10.478  0.00  0.00     0.162 C 
HETATM    4  O   UNK N   1      35.442  17.552  10.355  0.00  0.00    -0.648 OA
BRANCH   3   5
HETATM    5  O   UNK N   1      36.935  16.027  10.969  0.00  0.00    -0.775 OA
HETATM    6  H   UNK N   1      37.638  16.646  10.963  0.00  0.00     0.167 HD
ENDBRANCH   3   5
ENDBRANCH   1   3
BRANCH   1   7
HETATM    7  N   UNK N   1      33.586  15.078  10.928  0.00  0.00    -0.418 N 
HETATM    8  H   UNK N   1      33.669  15.161  11.941  0.00  0.00     0.150 HD
HETATM    9  H   UNK N   1      32.691  14.825  10.509  0.00  0.00     0.150 HD
ENDBRANCH   1   7
TORSDOF 3
ENDMDL
MODEL 8
REMARK VINA RESULT:      -3.2     12.499     13.036
REMARK  3 active torsions:
REMARK  status: ('A' for Active; 'I' for Inactive)
REMARK    1  A    between atoms: C_2  and  C_1 
REMARK    2  A    between atoms: O_3  and  C_1 
REMARK    3  A    between atoms: C_2  and  N_5 
ROOT
HETATM    1  C   UNK N   1      31.273  20.993  -3.893  0.00  0.00     0.169 C 
HETATM    2  C   UNK N   1      30.217  21.644  -4.766  0.00  0.00     0.043 C 
ENDROOT
BRANCH   1   3
HETATM    3  C   UNK N   1      31.799  21.634  -2.646  0.00  0.00     0.162 C 
HETATM    4  O   UNK N   1      31.235  22.607  -2.176  0.00  0.00    -0.648 OA
BRANCH   3   5
HETATM    5  O   UNK N   1      32.896  21.141  -2.039  0.00  0.00    -0.775 OA
HETATM    6  H   UNK N   1      33.089  21.380  -1.153  0.00  0.00     0.167 HD
ENDBRANCH   3   5
ENDBRANCH   1   3
BRANCH   1   7
HETATM    7  N   UNK N   1      31.787  19.695  -4.292  0.00  0.00    -0.418 N 
HETATM    8  H   UNK N   1      32.781  19.578  -4.488  0.00  0.00     0.150 HD
HETATM    9  H   UNK N   1      31.154  18.899  -4.377  0.00  0.00     0.150 HD
ENDBRANCH   1   7
TORSDOF 3
ENDMDL
MODEL 9
REMARK VINA RESULT:      -3.1     18.703     18.808
REMARK  3 active torsions:
REMARK  status: ('A' for Active; 'I' for Inactive)
REMARK    1  A    between atoms: C_2  and  C_1 
REMARK    2  A    between atoms: O_3  and  C_1 
REMARK    3  A    between atoms: C_2  and  N_5 
ROOT
HETATM    1  C   UNK N   1      17.834  26.948   8.622  0.00  0.00     0.169 C 
HETATM    2  C   UNK N   1      17.884  26.168   7.322  0.00  0.00     0.043 C 
ENDROOT
BRANCH   1   3
HETATM    3  C   UNK N   1      18.667  26.588   9.813  0.00  0.00     0.162 C 
HETATM    4  O   UNK N   1      19.546  27.343  10.192  0.00  0.00    -0.648 OA
BRANCH   3   5
HETATM    5  O   UNK N   1      18.450  25.432  10.471  0.00  0.00    -0.775 OA
HETATM    6  H   UNK N   1      17.577  25.181  10.702  0.00  0.00     0.167 HD
ENDBRANCH   3   5
ENDBRANCH   1   3
BRANCH   1   7
HETATM    7  N   UNK N   1      16.938  28.087   8.703  0.00  0.00    -0.418 N 
HETATM    8  H   UNK N   1      16.266  28.156   9.468  0.00  0.00     0.150 HD
HETATM    9  H   UNK N   1      16.978  28.820   7.995  0.00  0.00     0.150 HD
ENDBRANCH   1   7
TORSDOF 3
ENDMDL
