MODEL 1
REMARK VINA RESULT:      -7.4      0.000      0.000
REMARK  5 active torsions:
REMARK  status: ('A' for Active; 'I' for Inactive)
REMARK    1  A    between atoms: C_2  and  O_6 
REMARK    2  A    between atoms: C_3  and  C_2 
REMARK    3  A    between atoms: C_13  and  C_3 
REMARK    4  A    between atoms: C_14  and  C_3 
REMARK    5  A    between atoms: C_7  and  O_6 
ROOT
HETATM    1  C   UNK N   1      33.494  17.076   6.743  0.00  0.00     0.201 C 
HETATM    2  O   UNK N   1      33.824  17.899   5.657  0.00  0.00    -0.371 OA
HETATM    3  H   UNK N   1      33.931  18.515   4.915  0.00  0.00     0.212 HD
ENDROOT
BRANCH   1   4
HETATM    4  C   UNK N   1      34.534  17.406   7.837  0.00  0.00     0.303 C 
HETATM    5  O   UNK N   1      34.882  18.568   7.930  0.00  0.00    -0.261 OA
BRANCH   4   6
HETATM    6  O   UNK N   1      35.058  16.535   8.753  0.00  0.00    -0.313 OA
BRANCH   6   7
HETATM    7  C   UNK N   1      34.761  16.273  10.071  0.00  0.00     0.136 C 
HETATM    8  C   UNK N   1      36.029  16.036  10.922  0.00  0.00     0.066 C 
HETATM    9  C   UNK N   1      36.624  14.618  10.784  0.00  0.00     0.193 C 
HETATM   10  N   UNK N   1      35.623  13.604  11.154  0.00  0.00    -0.058 N 
HETATM   11  C   UNK N   1      36.918  14.349   9.305  0.00  0.00     0.036 C 
HETATM   12  C   UNK N   1      34.698  13.690  10.013  0.00  0.00     0.193 C 
HETATM   13  C   UNK N   1      34.981  13.836  12.456  0.00  0.00     0.238 C 
HETATM   14  C   UNK N   1      36.248  12.272  11.231  0.00  0.00     0.238 C 
HETATM   15  C   UNK N   1      33.873  15.012  10.097  0.00  0.00     0.066 C 
HETATM   16  C   UNK N   1      35.615  13.727   8.780  0.00  0.00     0.036 C 
HETATM   17  C   UNK N   1      35.604  12.886  13.448  0.00  0.00     0.030 C 
HETATM   18  C   UNK N   1      36.001  11.702  12.612  0.00  0.00     0.030 C 
ENDBRANCH   6   7
ENDBRANCH   4   6
ENDBRANCH   1   4
BRANCH   1  19
HETATM   19  C   UNK N   1      33.622  15.628   6.269  0.00  0.00    -0.009 A 
HETATM   20  C   UNK N   1      32.759  14.614   6.721  0.00  0.00     0.011 A 
HETATM   21  C   UNK N   1      32.891  13.306   6.249  0.00  0.00     0.001 A 
HETATM   22  C   UNK N   1      33.885  12.996   5.318  0.00  0.00     0.000 A 
HETATM   23  C   UNK N   1      34.748  13.993   4.859  0.00  0.00     0.001 A 
HETATM   24  C   UNK N   1      34.618  15.300   5.331  0.00  0.00     0.011 A 
ENDBRANCH   1  19
BRANCH   1  25
HETATM   25  C   UNK N   1      32.026  17.274   7.090  0.00  0.00    -0.009 A 
HETATM   26  C   UNK N   1      31.037  17.198   6.091  0.00  0.00     0.011 A 
HETATM   27  C   UNK N   1      29.700  17.470   6.399  0.00  0.00     0.001 A 
HETATM   28  C   UNK N   1      29.337  17.823   7.702  0.00  0.00     0.000 A 
HETATM   29  C   UNK N   1      30.309  17.904   8.700  0.00  0.00     0.001 A 
HETATM   30  C   UNK N   1      31.647  17.641   8.395  0.00  0.00     0.011 A 
ENDBRANCH   1  25
TORSDOF 5
ENDMDL
MODEL 2
REMARK VINA RESULT:      -7.3      2.174      7.313
REMARK  5 active torsions:
REMARK  status: ('A' for Active; 'I' for Inactive)
REMARK    1  A    between atoms: C_2  and  O_6 
REMARK    2  A    between atoms: C_3  and  C_2 
REMARK    3  A    between atoms: C_13  and  C_3 
REMARK    4  A    between atoms: C_14  and  C_3 
REMARK    5  A    between atoms: C_7  and  O_6 
ROOT
HETATM    1  C   UNK N   1      36.276  14.829  10.916  0.00  0.00     0.201 C 
HETATM    2  O   UNK N   1      36.981  16.034  11.041  0.00  0.00    -0.371 OA
HETATM    3  H   UNK N   1      37.545  16.823  11.032  0.00  0.00     0.212 HD
ENDROOT
BRANCH   1   4
HETATM    4  C   UNK N   1      34.818  15.239  10.613  0.00  0.00     0.303 C 
HETATM    5  O   UNK N   1      33.951  14.737  11.304  0.00  0.00    -0.261 OA
BRANCH   4   6
HETATM    6  O   UNK N   1      34.405  16.157   9.685  0.00  0.00    -0.313 OA
BRANCH   6   7
HETATM    7  C   UNK N   1      34.754  16.384   8.373  0.00  0.00     0.136 C 
HETATM    8  C   UNK N   1      34.317  17.783   7.884  0.00  0.00     0.066 C 
HETATM    9  C   UNK N   1      32.827  17.878   7.494  0.00  0.00     0.193 C 
HETATM   10  N   UNK N   1      32.511  16.900   6.439  0.00  0.00    -0.058 N 
HETATM   11  C   UNK N   1      31.975  17.444   8.691  0.00  0.00     0.036 C 
HETATM   12  C   UNK N   1      32.579  15.639   7.193  0.00  0.00     0.193 C 
HETATM   13  C   UNK N   1      33.415  16.947   5.280  0.00  0.00     0.238 C 
HETATM   14  C   UNK N   1      31.153  17.133   5.916  0.00  0.00     0.238 C 
HETATM   15  C   UNK N   1      34.065  15.296   7.523  0.00  0.00     0.066 C 
HETATM   16  C   UNK N   1      31.811  15.929   8.492  0.00  0.00     0.036 C 
HETATM   17  C   UNK N   1      32.691  17.661   4.165  0.00  0.00     0.030 C 
HETATM   18  C   UNK N   1      31.243  17.351   4.420  0.00  0.00     0.030 C 
ENDBRANCH   6   7
ENDBRANCH   4   6
ENDBRANCH   1   4
BRANCH   1  19
HETATM   19  C   UNK N   1      36.384  14.100  12.256  0.00  0.00    -0.009 A 
HETATM   20  C   UNK N   1      36.506  12.702  12.338  0.00  0.00     0.011 A 
HETATM   21  C   UNK N   1      36.625  12.071  13.580  0.00  0.00     0.001 A 
HETATM   22  C   UNK N   1      36.627  12.830  14.752  0.00  0.00     0.000 A 
HETATM   23  C   UNK N   1      36.509  14.219  14.685  0.00  0.00     0.001 A 
HETATM   24  C   UNK N   1      36.388  14.851  13.446  0.00  0.00     0.011 A 
ENDBRANCH   1  19
BRANCH   1  25
HETATM   25  C   UNK N   1      36.980  13.943   9.900  0.00  0.00    -0.009 A 
HETATM   26  C   UNK N   1      38.353  14.105   9.636  0.00  0.00     0.011 A 
HETATM   27  C   UNK N   1      38.974  13.350   8.638  0.00  0.00     0.001 A 
HETATM   28  C   UNK N   1      38.235  12.429   7.890  0.00  0.00     0.000 A 
HETATM   29  C   UNK N   1      36.872  12.261   8.141  0.00  0.00     0.001 A 
HETATM   30  C   UNK N   1      36.246  13.019   9.132  0.00  0.00     0.011 A 
ENDBRANCH   1  25
TORSDOF 5
ENDMDL
MODEL 3
REMARK VINA RESULT:      -7.1      3.190      8.400
REMARK  5 active torsions:
REMARK  status: ('A' for Active; 'I' for Inactive)
REMARK    1  A    between atoms: C_2  and  O_6 
REMARK    2  A    between atoms: C_3  and  C_2 
REMARK    3  A    between atoms: C_13  and  C_3 
REMARK    4  A    between atoms: C_14  and  C_3 
REMARK    5  A    between atoms: C_7  and  O_6 
ROOT
HETATM    1  C   UNK N   1      35.682  12.443  14.374  0.00  0.00     0.201 C 
HETATM    2  O   UNK N   1      34.312  12.528  14.089  0.00  0.00    -0.371 OA
HETATM    3  H   UNK N   1      33.360  12.682  13.980  0.00  0.00     0.212 HD
ENDROOT
BRANCH   1   4
HETATM    4  C   UNK N   1      36.396  12.680  13.024  0.00  0.00     0.303 C 
HETATM    5  O   UNK N   1      37.471  12.133  12.870  0.00  0.00    -0.261 OA
BRANCH   4   6
HETATM    6  O   UNK N   1      35.913  13.392  11.960  0.00  0.00    -0.313 OA
BRANCH   6   7
HETATM    7  C   UNK N   1      35.665  14.732  11.766  0.00  0.00     0.136 C 
HETATM    8  C   UNK N   1      34.211  15.001  11.319  0.00  0.00     0.066 C 
HETATM    9  C   UNK N   1      33.955  14.746   9.818  0.00  0.00     0.193 C 
HETATM   10  N   UNK N   1      34.851  15.577   8.998  0.00  0.00    -0.058 N 
HETATM   11  C   UNK N   1      34.355  13.304   9.488  0.00  0.00     0.036 C 
HETATM   12  C   UNK N   1      36.144  14.916   9.233  0.00  0.00     0.193 C 
HETATM   13  C   UNK N   1      34.842  17.005   9.350  0.00  0.00     0.238 C 
HETATM   14  C   UNK N   1      34.465  15.498   7.578  0.00  0.00     0.238 C 
HETATM   15  C   UNK N   1      36.643  15.224  10.679  0.00  0.00     0.066 C 
HETATM   16  C   UNK N   1      35.836  13.416   9.098  0.00  0.00     0.036 C 
HETATM   17  C   UNK N   1      34.015  17.725   8.315  0.00  0.00     0.030 C 
HETATM   18  C   UNK N   1      34.194  16.899   7.073  0.00  0.00     0.030 C 
ENDBRANCH   6   7
ENDBRANCH   4   6
ENDBRANCH   1   4
BRANCH   1  19
HETATM   19  C   UNK N   1      35.947  11.035  14.907  0.00  0.00    -0.009 A 
HETATM   20  C   UNK N   1      36.914  10.779  15.895  0.00  0.00     0.011 A 
HETATM   21  C   UNK N   1      37.113   9.482  16.375  0.00  0.00     0.001 A 
HETATM   22  C   UNK N   1      36.347   8.426  15.875  0.00  0.00     0.000 A 
HETATM   23  C   UNK N   1      35.383   8.666  14.895  0.00  0.00     0.001 A 
HETATM   24  C   UNK N   1      35.183   9.961  14.414  0.00  0.00     0.011 A 
ENDBRANCH   1  19
BRANCH   1  25
HETATM   25  C   UNK N   1      36.012  13.391  15.516  0.00  0.00    -0.009 A 
HETATM   26  C   UNK N   1      35.293  13.336  16.725  0.00  0.00     0.011 A 
HETATM   27  C   UNK N   1      35.540  14.268  17.737  0.00  0.00     0.001 A 
HETATM   28  C   UNK N   1      36.502  15.265  17.555  0.00  0.00     0.000 A 
HETATM   29  C   UNK N   1      37.221  15.332  16.359  0.00  0.00     0.001 A 
HETATM   30  C   UNK N   1      36.971  14.408  15.343  0.00  0.00     0.011 A 
ENDBRANCH   1  25
TORSDOF 5
ENDMDL
MODEL 4
REMARK VINA RESULT:      -7.1      3.022      8.087
REMARK  5 active torsions:
REMARK  status: ('A' for Active; 'I' for Inactive)
REMARK    1  A    between atoms: C_2  and  O_6 
REMARK    2  A    between atoms: C_3  and  C_2 
REMARK    3  A    between atoms: C_13  and  C_3 
REMARK    4  A    between atoms: C_14  and  C_3 
REMARK    5  A    between atoms: C_7  and  O_6 
ROOT
HETATM    1  C   UNK N   1      36.324  12.457  13.768  0.00  0.00     0.201 C 
HETATM    2  O   UNK N   1      37.722  12.424  13.672  0.00  0.00    -0.371 OA
HETATM    3  H   UNK N   1      38.673  12.298  13.528  0.00  0.00     0.212 HD
ENDROOT
BRANCH   1   4
HETATM    4  C   UNK N   1      35.913  13.860  13.268  0.00  0.00     0.303 C 
HETATM    5  O   UNK N   1      36.454  14.812  13.798  0.00  0.00    -0.261 OA
BRANCH   4   6
HETATM    6  O   UNK N   1      35.047  14.140  12.246  0.00  0.00    -0.313 OA
BRANCH   6   7
HETATM    7  C   UNK N   1      34.856  15.254  11.460  0.00  0.00     0.136 C 
HETATM    8  C   UNK N   1      33.612  15.124  10.552  0.00  0.00     0.066 C 
HETATM    9  C   UNK N   1      33.845  14.279   9.281  0.00  0.00     0.193 C 
HETATM   10  N   UNK N   1      34.943  14.847   8.482  0.00  0.00    -0.058 N 
HETATM   11  C   UNK N   1      34.347  12.892   9.697  0.00  0.00     0.036 C 
HETATM   12  C   UNK N   1      36.105  14.516   9.321  0.00  0.00     0.193 C 
HETATM   13  C   UNK N   1      34.806  16.284   8.202  0.00  0.00     0.238 C 
HETATM   14  C   UNK N   1      35.025  14.175   7.173  0.00  0.00     0.238 C 
HETATM   15  C   UNK N   1      36.120  15.422  10.591  0.00  0.00     0.066 C 
HETATM   16  C   UNK N   1      35.875  13.052   9.730  0.00  0.00     0.036 C 
HETATM   17  C   UNK N   1      34.336  16.429   6.776  0.00  0.00     0.030 C 
HETATM   18  C   UNK N   1      34.908  15.222   6.086  0.00  0.00     0.030 C 
ENDBRANCH   6   7
ENDBRANCH   4   6
ENDBRANCH   1   4
BRANCH   1  19
HETATM   19  C   UNK N   1      35.967  12.263  15.242  0.00  0.00    -0.009 A 
HETATM   20  C   UNK N   1      35.205  13.203  15.957  0.00  0.00     0.011 A 
HETATM   21  C   UNK N   1      34.878  12.981  17.298  0.00  0.00     0.001 A 
HETATM   22  C   UNK N   1      35.306  11.816  17.938  0.00  0.00     0.000 A 
HETATM   23  C   UNK N   1      36.062  10.873  17.240  0.00  0.00     0.001 A 
HETATM   24  C   UNK N   1      36.391  11.094  15.901  0.00  0.00     0.011 A 
ENDBRANCH   1  19
BRANCH   1  25
HETATM   25  C   UNK N   1      35.746  11.256  13.037  0.00  0.00    -0.009 A 
HETATM   26  C   UNK N   1      36.569  10.434  12.245  0.00  0.00     0.011 A 
HETATM   27  C   UNK N   1      36.017   9.386  11.503  0.00  0.00     0.001 A 
HETATM   28  C   UNK N   1      34.640   9.149  11.539  0.00  0.00     0.000 A 
HETATM   29  C   UNK N   1      33.812   9.960  12.318  0.00  0.00     0.001 A 
HETATM   30  C   UNK N   1      34.359  11.012  13.054  0.00  0.00     0.011 A 
ENDBRANCH   1  25
TORSDOF 5
ENDMDL
MODEL 5
REMARK VINA RESULT:      -7.0      3.875      8.552
REMARK  5 active torsions:
REMARK  status: ('A' for Active; 'I' for Inactive)
REMARK    1  A    between atoms: C_2  and  O_6 
REMARK    2  A    between atoms: C_3  and  C_2 
REMARK    3  A    between atoms: C_13  and  C_3 
REMARK    4  A    between atoms: C_14  and  C_3 
REMARK    5  A    between atoms: C_7  and  O_6 
ROOT
HETATM    1  C   UNK N   1      35.508  12.546  15.220  0.00  0.00     0.201 C 
HETATM    2  O   UNK N   1      34.191  12.750  14.786  0.00  0.00    -0.371 OA
HETATM    3  H   UNK N   1      33.249  12.896  14.611  0.00  0.00     0.212 HD
ENDROOT
BRANCH   1   4
HETATM    4  C   UNK N   1      36.329  13.694  14.591  0.00  0.00     0.303 C 
HETATM    5  O   UNK N   1      36.943  14.412  15.356  0.00  0.00    -0.261 OA
BRANCH   4   6
HETATM    6  O   UNK N   1      36.485  13.948  13.255  0.00  0.00    -0.313 OA
BRANCH   6   7
HETATM    7  C   UNK N   1      35.629  14.419  12.286  0.00  0.00     0.136 C 
HETATM    8  C   UNK N   1      34.836  13.282  11.602  0.00  0.00     0.066 C 
HETATM    9  C   UNK N   1      35.630  12.523  10.518  0.00  0.00     0.193 C 
HETATM   10  N   UNK N   1      36.094  13.454   9.477  0.00  0.00    -0.058 N 
HETATM   11  C   UNK N   1      36.916  11.972  11.144  0.00  0.00     0.036 C 
HETATM   12  C   UNK N   1      37.140  14.192  10.202  0.00  0.00     0.193 C 
HETATM   13  C   UNK N   1      35.038  14.315   8.922  0.00  0.00     0.238 C 
HETATM   14  C   UNK N   1      36.662  12.709   8.339  0.00  0.00     0.238 C 
HETATM   15  C   UNK N   1      36.487  15.158  11.239  0.00  0.00     0.066 C 
HETATM   16  C   UNK N   1      37.936  13.101  10.936  0.00  0.00     0.036 C 
HETATM   17  C   UNK N   1      34.656  13.757   7.574  0.00  0.00     0.030 C 
HETATM   18  C   UNK N   1      35.918  13.107   7.082  0.00  0.00     0.030 C 
ENDBRANCH   6   7
ENDBRANCH   4   6
ENDBRANCH   1   4
BRANCH   1  19
HETATM   19  C   UNK N   1      35.955  11.184  14.689  0.00  0.00    -0.009 A 
HETATM   20  C   UNK N   1      35.039  10.233  14.205  0.00  0.00     0.011 A 
HETATM   21  C   UNK N   1      35.486   9.006  13.706  0.00  0.00     0.001 A 
HETATM   22  C   UNK N   1      36.852   8.717  13.681  0.00  0.00     0.000 A 
HETATM   23  C   UNK N   1      37.773   9.653  14.156  0.00  0.00     0.001 A 
HETATM   24  C   UNK N   1      37.328  10.877  14.657  0.00  0.00     0.011 A 
ENDBRANCH   1  19
BRANCH   1  25
HETATM   25  C   UNK N   1      35.520  12.426  16.737  0.00  0.00    -0.009 A 
HETATM   26  C   UNK N   1      35.735  11.181  17.356  0.00  0.00     0.011 A 
HETATM   27  C   UNK N   1      35.655  11.060  18.747  0.00  0.00     0.001 A 
HETATM   28  C   UNK N   1      35.357  12.177  19.533  0.00  0.00     0.000 A 
HETATM   29  C   UNK N   1      35.139  13.417  18.930  0.00  0.00     0.001 A 
HETATM   30  C   UNK N   1      35.210  13.540  17.540  0.00  0.00     0.011 A 
ENDBRANCH   1  25
TORSDOF 5
ENDMDL
MODEL 6
REMARK VINA RESULT:      -6.9     13.800     16.915
REMARK  5 active torsions:
REMARK  status: ('A' for Active; 'I' for Inactive)
REMARK    1  A    between atoms: C_2  and  O_6 
REMARK    2  A    between atoms: C_3  and  C_2 
REMARK    3  A    between atoms: C_13  and  C_3 
REMARK    4  A    between atoms: C_14  and  C_3 
REMARK    5  A    between atoms: C_7  and  O_6 
ROOT
HETATM    1  C   UNK N   1      26.959  24.450  -4.278  0.00  0.00     0.201 C 
HETATM    2  O   UNK N   1      25.792  24.076  -3.597  0.00  0.00    -0.371 OA
HETATM    3  H   UNK N   1      24.952  23.754  -3.236  0.00  0.00     0.212 HD
ENDROOT
BRANCH   1   4
HETATM    4  C   UNK N   1      28.124  23.925  -3.410  0.00  0.00     0.303 C 
HETATM    5  O   UNK N   1      27.871  23.670  -2.247  0.00  0.00    -0.261 OA
BRANCH   4   6
HETATM    6  O   UNK N   1      29.399  23.658  -3.830  0.00  0.00    -0.313 OA
BRANCH   6   7
HETATM    7  C   UNK N   1      30.544  23.280  -3.167  0.00  0.00     0.136 C 
HETATM    8  C   UNK N   1      31.820  23.558  -3.992  0.00  0.00     0.066 C 
HETATM    9  C   UNK N   1      32.111  22.501  -5.079  0.00  0.00     0.193 C 
HETATM   10  N   UNK N   1      32.236  21.165  -4.472  0.00  0.00    -0.058 N 
HETATM   11  C   UNK N   1      30.893  22.393  -6.002  0.00  0.00     0.036 C 
HETATM   12  C   UNK N   1      30.838  20.889  -4.104  0.00  0.00     0.193 C 
HETATM   13  C   UNK N   1      33.170  21.101  -3.338  0.00  0.00     0.238 C 
HETATM   14  C   UNK N   1      32.724  20.194  -5.468  0.00  0.00     0.238 C 
HETATM   15  C   UNK N   1      30.427  21.768  -2.882  0.00  0.00     0.066 C 
HETATM   16  C   UNK N   1      30.029  21.309  -5.342  0.00  0.00     0.036 C 
HETATM   17  C   UNK N   1      34.446  20.466  -3.834  0.00  0.00     0.030 C 
HETATM   18  C   UNK N   1      33.988  19.553  -4.937  0.00  0.00     0.030 C 
ENDBRANCH   6   7
ENDBRANCH   4   6
ENDBRANCH   1   4
BRANCH   1  19
HETATM   19  C   UNK N   1      26.967  25.976  -4.359  0.00  0.00    -0.009 A 
HETATM   20  C   UNK N   1      28.126  26.733  -4.112  0.00  0.00     0.011 A 
HETATM   21  C   UNK N   1      28.101  28.126  -4.217  0.00  0.00     0.001 A 
HETATM   22  C   UNK N   1      26.919  28.779  -4.574  0.00  0.00     0.000 A 
HETATM   23  C   UNK N   1      25.761  28.041  -4.823  0.00  0.00     0.001 A 
HETATM   24  C   UNK N   1      25.783  26.649  -4.717  0.00  0.00     0.011 A 
ENDBRANCH   1  19
BRANCH   1  25
HETATM   25  C   UNK N   1      26.879  23.956  -5.714  0.00  0.00    -0.009 A 
HETATM   26  C   UNK N   1      27.826  24.370  -6.669  0.00  0.00     0.011 A 
HETATM   27  C   UNK N   1      27.696  23.986  -8.006  0.00  0.00     0.001 A 
HETATM   28  C   UNK N   1      26.620  23.190  -8.407  0.00  0.00     0.000 A 
HETATM   29  C   UNK N   1      25.672  22.775  -7.470  0.00  0.00     0.001 A 
HETATM   30  C   UNK N   1      25.794  23.163  -6.134  0.00  0.00     0.011 A 
ENDBRANCH   1  25
TORSDOF 5
ENDMDL
MODEL 7
REMARK VINA RESULT:      -6.9     16.395     19.981
REMARK  5 active torsions:
REMARK  status: ('A' for Active; 'I' for Inactive)
REMARK    1  A    between atoms: C_2  and  O_6 
REMARK    2  A    between atoms: C_3  and  C_2 
REMARK    3  A    between atoms: C_13  and  C_3 
REMARK    4  A    between atoms: C_14  and  C_3 
REMARK    5  A    between atoms: C_7  and  O_6 
ROOT
HETATM    1  C   UNK N   1      26.324  27.115  -4.696  0.00  0.00     0.201 C 
HETATM    2  O   UNK N   1      25.526  27.491  -3.607  0.00  0.00    -0.371 OA
HETATM    3  H   UNK N   1      25.029  27.868  -2.865  0.00  0.00     0.212 HD
ENDROOT
BRANCH   1   4
HETATM    4  C   UNK N   1      25.336  26.614  -5.774  0.00  0.00     0.303 C 
HETATM    5  O   UNK N   1      24.324  27.270  -5.937  0.00  0.00    -0.261 OA
BRANCH   4   6
HETATM    6  O   UNK N   1      25.512  25.543  -6.606  0.00  0.00    -0.313 OA
BRANCH   6   7
HETATM    7  C   UNK N   1      25.957  25.429  -7.904  0.00  0.00     0.136 C 
HETATM    8  C   UNK N   1      25.188  24.346  -8.695  0.00  0.00     0.066 C 
HETATM    9  C   UNK N   1      25.662  22.904  -8.415  0.00  0.00     0.193 C 
HETATM   10  N   UNK N   1      27.096  22.769  -8.722  0.00  0.00    -0.058 N 
HETATM   11  C   UNK N   1      25.562  22.635  -6.910  0.00  0.00     0.036 C 
HETATM   12  C   UNK N   1      27.695  23.538  -7.620  0.00  0.00     0.193 C 
HETATM   13  C   UNK N   1      27.477  23.254 -10.057  0.00  0.00     0.238 C 
HETATM   14  C   UNK N   1      27.501  21.353  -8.663  0.00  0.00     0.238 C 
HETATM   15  C   UNK N   1      27.454  25.063  -7.842  0.00  0.00     0.066 C 
HETATM   16  C   UNK N   1      26.934  23.068  -6.370  0.00  0.00     0.036 C 
HETATM   17  C   UNK N   1      27.666  22.048 -10.943  0.00  0.00     0.030 C 
HETATM   18  C   UNK N   1      28.111  20.971  -9.994  0.00  0.00     0.030 C 
ENDBRANCH   6   7
ENDBRANCH   4   6
ENDBRANCH   1   4
BRANCH   1  19
HETATM   19  C   UNK N   1      27.245  25.992  -4.218  0.00  0.00    -0.009 A 
HETATM   20  C   UNK N   1      28.614  25.961  -4.536  0.00  0.00     0.011 A 
HETATM   21  C   UNK N   1      29.430  24.930  -4.062  0.00  0.00     0.001 A 
HETATM   22  C   UNK N   1      28.888  23.921  -3.262  0.00  0.00     0.000 A 
HETATM   23  C   UNK N   1      27.531  23.940  -2.937  0.00  0.00     0.001 A 
HETATM   24  C   UNK N   1      26.714  24.968  -3.411  0.00  0.00     0.011 A 
ENDBRANCH   1  19
BRANCH   1  25
HETATM   25  C   UNK N   1      27.237  28.273  -5.068  0.00  0.00    -0.009 A 
HETATM   26  C   UNK N   1      27.519  29.292  -4.139  0.00  0.00     0.011 A 
HETATM   27  C   UNK N   1      28.285  30.399  -4.514  0.00  0.00     0.001 A 
HETATM   28  C   UNK N   1      28.774  30.506  -5.819  0.00  0.00     0.000 A 
HETATM   29  C   UNK N   1      28.499  29.504  -6.751  0.00  0.00     0.001 A 
HETATM   30  C   UNK N   1      27.728  28.399  -6.382  0.00  0.00     0.011 A 
ENDBRANCH   1  25
TORSDOF 5
ENDMDL
MODEL 8
REMARK VINA RESULT:      -6.7      3.189      6.012
REMARK  5 active torsions:
REMARK  status: ('A' for Active; 'I' for Inactive)
REMARK    1  A    between atoms: C_2  and  O_6 
REMARK    2  A    between atoms: C_3  and  C_2 
REMARK    3  A    between atoms: C_13  and  C_3 
REMARK    4  A    between atoms: C_14  and  C_3 
REMARK    5  A    between atoms: C_7  and  O_6 
ROOT
HETATM    1  C   UNK N   1      28.009  17.388   6.582  0.00  0.00     0.201 C 
HETATM    2  O   UNK N   1      27.002  16.646   7.216  0.00  0.00    -0.371 OA
HETATM    3  H   UNK N   1      26.338  16.036   7.572  0.00  0.00     0.212 HD
ENDROOT
BRANCH   1   4
HETATM    4  C   UNK N   1      28.987  17.794   7.707  0.00  0.00     0.303 C 
HETATM    5  O   UNK N   1      28.494  18.200   8.743  0.00  0.00    -0.261 OA
BRANCH   4   6
HETATM    6  O   UNK N   1      30.351  17.686   7.681  0.00  0.00    -0.313 OA
BRANCH   6   7
HETATM    7  C   UNK N   1      31.301  17.586   8.671  0.00  0.00     0.136 C 
HETATM    8  C   UNK N   1      32.705  18.009   8.182  0.00  0.00     0.066 C 
HETATM    9  C   UNK N   1      33.445  16.921   7.375  0.00  0.00     0.193 C 
HETATM   10  N   UNK N   1      33.586  15.696   8.178  0.00  0.00    -0.058 N 
HETATM   11  C   UNK N   1      32.571  16.507   6.187  0.00  0.00     0.036 C 
HETATM   12  C   UNK N   1      32.198  15.209   8.198  0.00  0.00     0.193 C 
HETATM   13  C   UNK N   1      34.158  15.911   9.516  0.00  0.00     0.238 C 
HETATM   14  C   UNK N   1      34.475  14.737   7.497  0.00  0.00     0.238 C 
HETATM   15  C   UNK N   1      31.331  16.113   9.128  0.00  0.00     0.066 C 
HETATM   16  C   UNK N   1      31.723  15.353   6.743  0.00  0.00     0.036 C 
HETATM   17  C   UNK N   1      35.600  15.472   9.472  0.00  0.00     0.030 C 
HETATM   18  C   UNK N   1      35.615  14.389   8.430  0.00  0.00     0.030 C 
ENDBRANCH   6   7
ENDBRANCH   4   6
ENDBRANCH   1   4
BRANCH   1  19
HETATM   19  C   UNK N   1      27.342  18.611   5.953  0.00  0.00    -0.009 A 
HETATM   20  C   UNK N   1      27.823  19.916   6.163  0.00  0.00     0.011 A 
HETATM   21  C   UNK N   1      27.201  21.009   5.553  0.00  0.00     0.001 A 
HETATM   22  C   UNK N   1      26.094  20.811   4.724  0.00  0.00     0.000 A 
HETATM   23  C   UNK N   1      25.607  19.521   4.506  0.00  0.00     0.001 A 
HETATM   24  C   UNK N   1      26.226  18.428   5.115  0.00  0.00     0.011 A 
ENDBRANCH   1  19
BRANCH   1  25
HETATM   25  C   UNK N   1      28.572  16.578   5.425  0.00  0.00    -0.009 A 
HETATM   26  C   UNK N   1      28.367  15.187   5.356  0.00  0.00     0.011 A 
HETATM   27  C   UNK N   1      28.962  14.434   4.340  0.00  0.00     0.001 A 
HETATM   28  C   UNK N   1      29.769  15.058   3.384  0.00  0.00     0.000 A 
HETATM   29  C   UNK N   1      29.982  16.436   3.443  0.00  0.00     0.001 A 
HETATM   30  C   UNK N   1      29.396  17.191   4.461  0.00  0.00     0.011 A 
ENDBRANCH   1  25
TORSDOF 5
ENDMDL
MODEL 9
REMARK VINA RESULT:      -6.7      9.215     12.197
REMARK  5 active torsions:
REMARK  status: ('A' for Active; 'I' for Inactive)
REMARK    1  A    between atoms: C_2  and  O_6 
REMARK    2  A    between atoms: C_3  and  C_2 
REMARK    3  A    between atoms: C_13  and  C_3 
REMARK    4  A    between atoms: C_14  and  C_3 
REMARK    5  A    between atoms: C_7  and  O_6 
ROOT
HETATM    1  C   UNK N   1      21.621  13.456   8.383  0.00  0.00     0.201 C 
HETATM    2  O   UNK N   1      20.290  13.518   8.818  0.00  0.00    -0.371 OA
HETATM    3  H   UNK N   1      19.416  13.533   9.237  0.00  0.00     0.212 HD
ENDROOT
BRANCH   1   4
HETATM    4  C   UNK N   1      21.913  14.839   7.760  0.00  0.00     0.303 C 
HETATM    5  O   UNK N   1      21.200  15.760   8.110  0.00  0.00    -0.261 OA
BRANCH   4   6
HETATM    6  O   UNK N   1      22.933  15.148   6.901  0.00  0.00    -0.313 OA
BRANCH   6   7
HETATM    7  C   UNK N   1      22.967  15.444   5.557  0.00  0.00     0.136 C 
HETATM    8  C   UNK N   1      23.396  14.232   4.701  0.00  0.00     0.066 C 
HETATM    9  C   UNK N   1      24.920  13.984   4.676  0.00  0.00     0.193 C 
HETATM   10  N   UNK N   1      25.623  15.176   4.174  0.00  0.00    -0.058 N 
HETATM   11  C   UNK N   1      25.416  13.820   6.116  0.00  0.00     0.036 C 
HETATM   12  C   UNK N   1      25.454  16.102   5.305  0.00  0.00     0.193 C 
HETATM   13  C   UNK N   1      25.102  15.695   2.901  0.00  0.00     0.238 C 
HETATM   14  C   UNK N   1      27.047  14.872   3.946  0.00  0.00     0.238 C 
HETATM   15  C   UNK N   1      23.976  16.597   5.370  0.00  0.00     0.066 C 
HETATM   16  C   UNK N   1      25.773  15.251   6.545  0.00  0.00     0.036 C 
HETATM   17  C   UNK N   1      26.052  15.268   1.810  0.00  0.00     0.030 C 
HETATM   18  C   UNK N   1      27.383  15.187   2.504  0.00  0.00     0.030 C 
ENDBRANCH   6   7
ENDBRANCH   4   6
ENDBRANCH   1   4
BRANCH   1  19
HETATM   19  C   UNK N   1      21.704  12.344   7.337  0.00  0.00    -0.009 A 
HETATM   20  C   UNK N   1      22.758  11.413   7.316  0.00  0.00     0.011 A 
HETATM   21  C   UNK N   1      22.788  10.396   6.359  0.00  0.00     0.001 A 
HETATM   22  C   UNK N   1      21.766  10.295   5.412  0.00  0.00     0.000 A 
HETATM   23  C   UNK N   1      20.713  11.211   5.422  0.00  0.00     0.001 A 
HETATM   24  C   UNK N   1      20.681  12.229   6.377  0.00  0.00     0.011 A 
ENDBRANCH   1  19
BRANCH   1  25
HETATM   25  C   UNK N   1      22.503  13.008   9.538  0.00  0.00    -0.009 A 
HETATM   26  C   UNK N   1      23.905  13.095   9.446  0.00  0.00     0.011 A 
HETATM   27  C   UNK N   1      24.713  12.599  10.474  0.00  0.00     0.001 A 
HETATM   28  C   UNK N   1      24.134  12.008  11.600  0.00  0.00     0.000 A 
HETATM   29  C   UNK N   1      22.744  11.913  11.702  0.00  0.00     0.001 A 
HETATM   30  C   UNK N   1      21.934  12.401  10.674  0.00  0.00     0.011 A 
ENDBRANCH   1  25
TORSDOF 5
ENDMDL
