MODEL 1
REMARK VINA RESULT:      -7.3      0.000      0.000
REMARK  7 active torsions:
REMARK  status: ('A' for Active; 'I' for Inactive)
REMARK    1  A    between atoms: C_4  and  O_13 
REMARK    2  A    between atoms: C_6  and  O_16 
REMARK    3  A    between atoms: C_10  and  O_31 
REMARK    4  A    between atoms: C_11  and  N_15 
REMARK    5  A    between atoms: C_14  and  O_19 
REMARK    6  A    between atoms: C_17  and  C_22 
REMARK       I    between atoms: C_22  and  N_24 
REMARK    7  A    between atoms: C_27  and  O_30 
ROOT
HETATM    1  C   UNK N   1      23.333  12.639   8.948  0.00  0.00    -0.007 A 
HETATM    2  C   UNK N   1      22.017  13.043   9.302  0.00  0.00     0.057 A 
HETATM    3  C   UNK N   1      22.841  14.651   4.323  0.00  0.00     0.075 C 
HETATM    4  C   UNK N   1      21.405  14.103   4.409  0.00  0.00     0.177 C 
HETATM    5  C   UNK N   1      23.708  13.919   5.326  0.00  0.00     0.024 C 
HETATM    6  C   UNK N   1      20.850  14.046   5.822  0.00  0.00     0.097 C 
HETATM    7  C   UNK N   1      23.188  13.941   6.770  0.00  0.00     0.065 C 
HETATM    8  C   UNK N   1      21.672  13.908   6.899  0.00  0.00     0.033 C 
HETATM    9  C   UNK N   1      21.133  13.672   8.272  0.00  0.00     0.194 C 
HETATM   10  C   UNK N   1      23.848  12.772   7.530  0.00  0.00     0.090 C 
HETATM   11  C   UNK N   1      23.326  14.342   2.873  0.00  0.00     0.286 C 
HETATM   12  C   UNK N   1      20.574  14.890   3.412  0.00  0.00     0.208 C 
HETATM   13  C   UNK N   1      22.386  14.742   1.749  0.00  0.00     0.096 C 
HETATM   14  C   UNK N   1      21.068  15.009   2.002  0.00  0.00     0.112 C 
HETATM   15  O   UNK N   1      19.510  15.398   3.742  0.00  0.00    -0.288 OA
HETATM   16  O   UNK N   1      19.956  13.890   8.523  0.00  0.00    -0.287 OA
HETATM   17  C   UNK N   1      24.132  11.979   9.894  0.00  0.00     0.011 A 
HETATM   18  C   UNK N   1      21.549  12.768  10.611  0.00  0.00     0.080 A 
HETATM   19  C   UNK N   1      23.666  11.740  11.182  0.00  0.00     0.003 A 
HETATM   20  C   UNK N   1      22.377  12.128  11.536  0.00  0.00     0.037 A 
HETATM   21  C   UNK N   1      23.583  11.442   6.827  0.00  0.00     0.052 C 
ENDROOT
BRANCH  14  22
HETATM   22  C   UNK N   1      20.116  15.401   0.907  0.00  0.00     0.255 C 
HETATM   23  N   UNK N   1      18.932  14.778   0.749  0.00  0.00    -0.366 N 
HETATM   24  H   UNK N   1      18.610  14.128   1.415  0.00  0.00     0.159 HD
HETATM   25  H   UNK N   1      18.383  14.974  -0.044  0.00  0.00     0.159 HD
HETATM   26  O   UNK N   1      20.391  16.336   0.167  0.00  0.00    -0.268 OA
ENDBRANCH  14  22
BRANCH  13  27
HETATM   27  O   UNK N   1      22.880  14.813   0.497  0.00  0.00    -0.362 OA
HETATM   28  H   UNK N   1      23.687  14.388   0.276  0.00  0.00     0.217 HD
ENDBRANCH  13  27
BRANCH   4  29
HETATM   29  O   UNK N   1      21.407  12.771   3.972  0.00  0.00    -0.374 OA
HETATM   30  H   UNK N   1      21.205  11.904   3.588  0.00  0.00     0.211 HD
ENDBRANCH   4  29
BRANCH  11  31
HETATM   31  N   UNK N   1      24.749  14.465   2.525  0.00  0.00     0.091 NA
HETATM   32  C   UNK N   1      25.393  15.559   3.234  0.00  0.00     0.310 C 
HETATM   33  C   UNK N   1      25.438  13.222   2.843  0.00  0.00     0.310 C 
ENDBRANCH  11  31
BRANCH   6  34
HETATM   34  O   UNK N   1      19.511  13.969   5.985  0.00  0.00    -0.361 OA
HETATM   35  H   UNK N   1      19.016  14.665   6.368  0.00  0.00     0.217 HD
ENDBRANCH   6  34
BRANCH  10  36
HETATM   36  O   UNK N   1      25.232  12.989   7.553  0.00  0.00    -0.385 OA
HETATM   37  H   UNK N   1      25.819  12.743   8.284  0.00  0.00     0.211 HD
ENDBRANCH  10  36
BRANCH  18  38
HETATM   38  O   UNK N   1      20.298  13.094  10.985  0.00  0.00    -0.360 OA
HETATM   39  H   UNK N   1      19.952  12.783  11.798  0.00  0.00     0.217 HD
ENDBRANCH  18  38
TORSDOF 7
ENDMDL
MODEL 2
REMARK VINA RESULT:      -7.3      4.530      8.323
REMARK  7 active torsions:
REMARK  status: ('A' for Active; 'I' for Inactive)
REMARK    1  A    between atoms: C_4  and  O_13 
REMARK    2  A    between atoms: C_6  and  O_16 
REMARK    3  A    between atoms: C_10  and  O_31 
REMARK    4  A    between atoms: C_11  and  N_15 
REMARK    5  A    between atoms: C_14  and  O_19 
REMARK    6  A    between atoms: C_17  and  C_22 
REMARK       I    between atoms: C_22  and  N_24 
REMARK    7  A    between atoms: C_27  and  O_30 
ROOT
HETATM    1  C   UNK N   1      21.574  18.089   3.576  0.00  0.00    -0.007 A 
HETATM    2  C   UNK N   1      22.004  19.420   3.330  0.00  0.00     0.057 A 
HETATM    3  C   UNK N   1      26.133  16.815   5.383  0.00  0.00     0.075 C 
HETATM    4  C   UNK N   1      26.660  17.709   4.246  0.00  0.00     0.177 C 
HETATM    5  C   UNK N   1      24.710  16.405   5.068  0.00  0.00     0.024 C 
HETATM    6  C   UNK N   1      25.726  18.849   3.876  0.00  0.00     0.097 C 
HETATM    7  C   UNK N   1      23.749  17.568   4.782  0.00  0.00     0.065 C 
HETATM    8  C   UNK N   1      24.382  18.752   4.067  0.00  0.00     0.033 C 
HETATM    9  C   UNK N   1      23.439  19.787   3.546  0.00  0.00     0.194 C 
HETATM   10  C   UNK N   1      22.546  17.007   3.997  0.00  0.00     0.090 C 
HETATM   11  C   UNK N   1      27.059  15.559   5.397  0.00  0.00     0.286 C 
HETATM   12  C   UNK N   1      28.072  18.117   4.626  0.00  0.00     0.208 C 
HETATM   13  C   UNK N   1      28.555  15.825   5.388  0.00  0.00     0.096 C 
HETATM   14  C   UNK N   1      29.045  17.049   5.023  0.00  0.00     0.112 C 
HETATM   15  O   UNK N   1      28.420  19.290   4.585  0.00  0.00    -0.288 OA
HETATM   16  O   UNK N   1      23.851  20.885   3.200  0.00  0.00    -0.287 OA
HETATM   17  C   UNK N   1      20.246  17.728   3.298  0.00  0.00     0.011 A 
HETATM   18  C   UNK N   1      21.073  20.353   2.808  0.00  0.00     0.080 A 
HETATM   19  C   UNK N   1      19.338  18.663   2.812  0.00  0.00     0.003 A 
HETATM   20  C   UNK N   1      19.753  19.967   2.562  0.00  0.00     0.037 A 
HETATM   21  C   UNK N   1      23.005  16.294   2.726  0.00  0.00     0.052 C 
ENDROOT
BRANCH  14  22
HETATM   22  C   UNK N   1      30.520  17.336   5.002  0.00  0.00     0.255 C 
HETATM   23  N   UNK N   1      31.114  17.877   3.920  0.00  0.00    -0.366 N 
HETATM   24  H   UNK N   1      30.580  18.205   3.161  0.00  0.00     0.159 HD
HETATM   25  H   UNK N   1      32.096  17.945   3.890  0.00  0.00     0.159 HD
HETATM   26  O   UNK N   1      31.197  17.122   5.998  0.00  0.00    -0.268 OA
ENDBRANCH  14  22
BRANCH  13  27
HETATM   27  O   UNK N   1      29.384  14.821   5.737  0.00  0.00    -0.362 OA
HETATM   28  H   UNK N   1      30.201  14.700   5.293  0.00  0.00     0.217 HD
ENDBRANCH  13  27
BRANCH   4  29
HETATM   29  O   UNK N   1      26.761  16.938   3.080  0.00  0.00    -0.374 OA
HETATM   30  H   UNK N   1      26.648  16.302   2.357  0.00  0.00     0.211 HD
ENDBRANCH   4  29
BRANCH  11  31
HETATM   31  N   UNK N   1      26.675  14.364   6.162  0.00  0.00     0.091 NA
HETATM   32  C   UNK N   1      25.708  14.669   7.204  0.00  0.00     0.310 C 
HETATM   33  C   UNK N   1      26.106  13.370   5.262  0.00  0.00     0.310 C 
ENDBRANCH  11  31
BRANCH   6  34
HETATM   34  O   UNK N   1      26.234  19.902   3.198  0.00  0.00    -0.361 OA
HETATM   35  H   UNK N   1      25.721  20.395   2.588  0.00  0.00     0.217 HD
ENDBRANCH   6  34
BRANCH  10  36
HETATM   36  O   UNK N   1      21.887  16.075   4.810  0.00  0.00    -0.385 OA
HETATM   37  H   UNK N   1      21.578  15.204   4.516  0.00  0.00     0.211 HD
ENDBRANCH  10  36
BRANCH  18  38
HETATM   38  O   UNK N   1      21.439  21.614   2.520  0.00  0.00    -0.360 OA
HETATM   39  H   UNK N   1      22.294  21.792   2.179  0.00  0.00     0.217 HD
ENDBRANCH  18  38
TORSDOF 7
ENDMDL
MODEL 3
REMARK VINA RESULT:      -7.2      8.860     12.459
REMARK  7 active torsions:
REMARK  status: ('A' for Active; 'I' for Inactive)
REMARK    1  A    between atoms: C_4  and  O_13 
REMARK    2  A    between atoms: C_6  and  O_16 
REMARK    3  A    between atoms: C_10  and  O_31 
REMARK    4  A    between atoms: C_11  and  N_15 
REMARK    5  A    between atoms: C_14  and  O_19 
REMARK    6  A    between atoms: C_17  and  C_22 
REMARK       I    between atoms: C_22  and  N_24 
REMARK    7  A    between atoms: C_27  and  O_30 
ROOT
HETATM    1  C   UNK N   1      29.525  17.324   5.258  0.00  0.00    -0.007 A 
HETATM    2  C   UNK N   1      29.243  17.744   6.586  0.00  0.00     0.057 A 
HETATM    3  C   UNK N   1      33.435  14.517   6.840  0.00  0.00     0.075 C 
HETATM    4  C   UNK N   1      33.689  15.693   7.801  0.00  0.00     0.177 C 
HETATM    5  C   UNK N   1      32.572  14.995   5.692  0.00  0.00     0.024 C 
HETATM    6  C   UNK N   1      32.429  16.439   8.207  0.00  0.00     0.097 C 
HETATM    7  C   UNK N   1      31.257  15.670   6.108  0.00  0.00     0.065 C 
HETATM    8  C   UNK N   1      31.337  16.477   7.395  0.00  0.00     0.033 C 
HETATM    9  C   UNK N   1      30.163  17.350   7.699  0.00  0.00     0.194 C 
HETATM   10  C   UNK N   1      30.772  16.534   4.925  0.00  0.00     0.090 C 
HETATM   11  C   UNK N   1      34.841  14.093   6.311  0.00  0.00     0.286 C 
HETATM   12  C   UNK N   1      34.527  15.154   8.945  0.00  0.00     0.208 C 
HETATM   13  C   UNK N   1      35.920  13.885   7.358  0.00  0.00     0.096 C 
HETATM   14  C   UNK N   1      35.774  14.388   8.622  0.00  0.00     0.112 C 
HETATM   15  O   UNK N   1      34.208  15.359  10.109  0.00  0.00    -0.288 OA
HETATM   16  O   UNK N   1      30.014  17.824   8.816  0.00  0.00    -0.287 OA
HETATM   17  C   UNK N   1      28.704  17.760   4.206  0.00  0.00     0.011 A 
HETATM   18  C   UNK N   1      28.132  18.595   6.811  0.00  0.00     0.080 A 
HETATM   19  C   UNK N   1      27.602  18.573   4.448  0.00  0.00     0.003 A 
HETATM   20  C   UNK N   1      27.323  18.994   5.745  0.00  0.00     0.037 A 
HETATM   21  C   UNK N   1      31.844  17.538   4.504  0.00  0.00     0.052 C 
ENDROOT
BRANCH  14  22
HETATM   22  C   UNK N   1      36.830  14.201   9.676  0.00  0.00     0.255 C 
HETATM   23  N   UNK N   1      37.173  15.200  10.511  0.00  0.00    -0.366 N 
HETATM   24  H   UNK N   1      36.663  16.042  10.530  0.00  0.00     0.159 HD
HETATM   25  H   UNK N   1      37.946  15.087  11.110  0.00  0.00     0.159 HD
HETATM   26  O   UNK N   1      37.362  13.108   9.817  0.00  0.00    -0.268 OA
ENDBRANCH  14  22
BRANCH  13  27
HETATM   27  O   UNK N   1      37.030  13.206   7.006  0.00  0.00    -0.362 OA
HETATM   28  H   UNK N   1      36.969  12.333   6.669  0.00  0.00     0.217 HD
ENDBRANCH  13  27
BRANCH   4  29
HETATM   29  O   UNK N   1      34.473  16.649   7.140  0.00  0.00    -0.374 OA
HETATM   30  H   UNK N   1      35.033  17.401   6.890  0.00  0.00     0.211 HD
ENDBRANCH   4  29
BRANCH  11  31
HETATM   31  N   UNK N   1      34.956  13.191   5.155  0.00  0.00     0.091 NA
HETATM   32  C   UNK N   1      33.908  12.183   5.142  0.00  0.00     0.310 C 
HETATM   33  C   UNK N   1      34.886  13.965   3.924  0.00  0.00     0.310 C 
ENDBRANCH  11  31
BRANCH   6  34
HETATM   34  O   UNK N   1      32.466  17.207   9.318  0.00  0.00    -0.361 OA
HETATM   35  H   UNK N   1      31.911  17.043  10.055  0.00  0.00     0.217 HD
ENDBRANCH   6  34
BRANCH  10  36
HETATM   36  O   UNK N   1      30.514  15.686   3.840  0.00  0.00    -0.385 OA
HETATM   37  H   UNK N   1      29.653  15.286   3.642  0.00  0.00     0.211 HD
ENDBRANCH  10  36
BRANCH  18  38
HETATM   38  O   UNK N   1      27.846  19.054   8.043  0.00  0.00    -0.360 OA
HETATM   39  H   UNK N   1      28.390  18.825   8.770  0.00  0.00     0.217 HD
ENDBRANCH  18  38
TORSDOF 7
ENDMDL
MODEL 4
REMARK VINA RESULT:      -7.2     12.688     14.608
REMARK  7 active torsions:
REMARK  status: ('A' for Active; 'I' for Inactive)
REMARK    1  A    between atoms: C_4  and  O_13 
REMARK    2  A    between atoms: C_6  and  O_16 
REMARK    3  A    between atoms: C_10  and  O_31 
REMARK    4  A    between atoms: C_11  and  N_15 
REMARK    5  A    between atoms: C_14  and  O_19 
REMARK    6  A    between atoms: C_17  and  C_22 
REMARK       I    between atoms: C_22  and  N_24 
REMARK    7  A    between atoms: C_27  and  O_30 
ROOT
HETATM    1  C   UNK N   1      37.219  11.113  12.698  0.00  0.00    -0.007 A 
HETATM    2  C   UNK N   1      36.625  12.037  13.600  0.00  0.00     0.057 A 
HETATM    3  C   UNK N   1      36.459  14.249   8.790  0.00  0.00     0.075 C 
HETATM    4  C   UNK N   1      35.120  14.543   9.489  0.00  0.00     0.177 C 
HETATM    5  C   UNK N   1      37.001  12.929   9.298  0.00  0.00     0.024 C 
HETATM    6  C   UNK N   1      35.171  14.406  11.001  0.00  0.00     0.097 C 
HETATM    7  C   UNK N   1      37.134  12.830  10.825  0.00  0.00     0.065 C 
HETATM    8  C   UNK N   1      36.057  13.568  11.606  0.00  0.00     0.033 C 
HETATM    9  C   UNK N   1      36.000  13.291  13.072  0.00  0.00     0.194 C 
HETATM   10  C   UNK N   1      37.182  11.334  11.200  0.00  0.00     0.090 C 
HETATM   11  C   UNK N   1      36.128  14.138   7.269  0.00  0.00     0.286 C 
HETATM   12  C   UNK N   1      34.639  15.886   8.970  0.00  0.00     0.208 C 
HETATM   13  C   UNK N   1      35.293  15.261   6.679  0.00  0.00     0.096 C 
HETATM   14  C   UNK N   1      34.582  16.104   7.488  0.00  0.00     0.112 C 
HETATM   15  O   UNK N   1      34.281  16.767   9.741  0.00  0.00    -0.288 OA
HETATM   16  O   UNK N   1      35.360  14.018  13.818  0.00  0.00    -0.287 OA
HETATM   17  C   UNK N   1      37.734   9.903  13.186  0.00  0.00     0.011 A 
HETATM   18  C   UNK N   1      36.573  11.707  14.977  0.00  0.00     0.080 A 
HETATM   19  C   UNK N   1      37.699   9.607  14.545  0.00  0.00     0.003 A 
HETATM   20  C   UNK N   1      37.114  10.503  15.435  0.00  0.00     0.037 A 
HETATM   21  C   UNK N   1      35.957  10.595  10.665  0.00  0.00     0.052 C 
ENDROOT
BRANCH  14  22
HETATM   22  C   UNK N   1      33.744  17.220   6.929  0.00  0.00     0.255 C 
HETATM   23  N   UNK N   1      32.483  17.431   7.352  0.00  0.00    -0.366 N 
HETATM   24  H   UNK N   1      32.117  16.935   8.119  0.00  0.00     0.159 HD
HETATM   25  H   UNK N   1      31.920  18.092   6.887  0.00  0.00     0.159 HD
HETATM   26  O   UNK N   1      34.224  17.986   6.105  0.00  0.00    -0.268 OA
ENDBRANCH  14  22
BRANCH  13  27
HETATM   27  O   UNK N   1      35.263  15.398   5.338  0.00  0.00    -0.362 OA
HETATM   28  H   UNK N   1      36.059  15.448   4.844  0.00  0.00     0.217 HD
ENDBRANCH  13  27
BRANCH   4  29
HETATM   29  O   UNK N   1      34.180  13.589   9.075  0.00  0.00    -0.374 OA
HETATM   30  H   UNK N   1      33.652  12.791   8.920  0.00  0.00     0.211 HD
ENDBRANCH   4  29
BRANCH  11  31
HETATM   31  N   UNK N   1      37.115  13.580   6.334  0.00  0.00     0.091 NA
HETATM   32  C   UNK N   1      38.481  13.811   6.777  0.00  0.00     0.310 C 
HETATM   33  C   UNK N   1      36.898  12.147   6.194  0.00  0.00     0.310 C 
ENDBRANCH  11  31
BRANCH   6  34
HETATM   34  O   UNK N   1      34.208  15.007  11.735  0.00  0.00    -0.361 OA
HETATM   35  H   UNK N   1      34.384  15.753  12.272  0.00  0.00     0.217 HD
ENDBRANCH   6  34
BRANCH  10  36
HETATM   36  O   UNK N   1      38.325  10.771  10.616  0.00  0.00    -0.385 OA
HETATM   37  H   UNK N   1      38.325  10.218   9.821  0.00  0.00     0.211 HD
ENDBRANCH  10  36
BRANCH  18  38
HETATM   38  O   UNK N   1      35.986  12.528  15.867  0.00  0.00    -0.360 OA
HETATM   39  H   UNK N   1      35.327  13.133  15.588  0.00  0.00     0.217 HD
ENDBRANCH  18  38
TORSDOF 7
ENDMDL
MODEL 5
REMARK VINA RESULT:      -7.2      8.397     11.119
REMARK  7 active torsions:
REMARK  status: ('A' for Active; 'I' for Inactive)
REMARK    1  A    between atoms: C_4  and  O_13 
REMARK    2  A    between atoms: C_6  and  O_16 
REMARK    3  A    between atoms: C_10  and  O_31 
REMARK    4  A    between atoms: C_11  and  N_15 
REMARK    5  A    between atoms: C_14  and  O_19 
REMARK    6  A    between atoms: C_17  and  C_22 
REMARK       I    between atoms: C_22  and  N_24 
REMARK    7  A    between atoms: C_27  and  O_30 
ROOT
HETATM    1  C   UNK N   1      28.251  18.490   5.042  0.00  0.00    -0.007 A 
HETATM    2  C   UNK N   1      28.043  18.869   6.395  0.00  0.00     0.057 A 
HETATM    3  C   UNK N   1      31.326  14.714   6.442  0.00  0.00     0.075 C 
HETATM    4  C   UNK N   1      31.830  15.722   7.491  0.00  0.00     0.177 C 
HETATM    5  C   UNK N   1      30.636  15.468   5.325  0.00  0.00     0.024 C 
HETATM    6  C   UNK N   1      30.776  16.720   7.941  0.00  0.00     0.097 C 
HETATM    7  C   UNK N   1      29.511  16.409   5.779  0.00  0.00     0.065 C 
HETATM    8  C   UNK N   1      29.747  17.079   7.124  0.00  0.00     0.033 C 
HETATM    9  C   UNK N   1      28.811  18.186   7.483  0.00  0.00     0.194 C 
HETATM   10  C   UNK N   1      29.280  17.447   4.661  0.00  0.00     0.090 C 
HETATM   11  C   UNK N   1      32.602  14.001   5.894  0.00  0.00     0.286 C 
HETATM   12  C   UNK N   1      32.481  14.915   8.599  0.00  0.00     0.208 C 
HETATM   13  C   UNK N   1      33.571  13.464   6.933  0.00  0.00     0.096 C 
HETATM   14  C   UNK N   1      33.516  13.895   8.230  0.00  0.00     0.112 C 
HETATM   15  O   UNK N   1      32.190  15.108   9.772  0.00  0.00    -0.288 OA
HETATM   16  O   UNK N   1      28.749  18.601   8.631  0.00  0.00    -0.287 OA
HETATM   17  C   UNK N   1      27.589  19.185   4.018  0.00  0.00     0.011 A 
HETATM   18  C   UNK N   1      27.164  19.946   6.674  0.00  0.00     0.080 A 
HETATM   19  C   UNK N   1      26.709  20.222   4.312  0.00  0.00     0.003 A 
HETATM   20  C   UNK N   1      26.504  20.604   5.634  0.00  0.00     0.037 A 
HETATM   21  C   UNK N   1      30.573  18.189   4.327  0.00  0.00     0.052 C 
ENDROOT
BRANCH  14  22
HETATM   22  C   UNK N   1      34.467  13.383   9.276  0.00  0.00     0.255 C 
HETATM   23  N   UNK N   1      34.025  12.715  10.358  0.00  0.00    -0.366 N 
HETATM   24  H   UNK N   1      33.082  12.444  10.437  0.00  0.00     0.159 HD
HETATM   25  H   UNK N   1      34.656  12.495  11.083  0.00  0.00     0.159 HD
HETATM   26  O   UNK N   1      35.672  13.530   9.127  0.00  0.00    -0.268 OA
ENDBRANCH  14  22
BRANCH  13  27
HETATM   27  O   UNK N   1      34.493  12.563   6.540  0.00  0.00    -0.362 OA
HETATM   28  H   UNK N   1      34.627  11.772   7.026  0.00  0.00     0.217 HD
ENDBRANCH  13  27
BRANCH   4  29
HETATM   29  O   UNK N   1      32.838  16.504   6.912  0.00  0.00    -0.374 OA
HETATM   30  H   UNK N   1      33.594  16.851   6.412  0.00  0.00     0.211 HD
ENDBRANCH   4  29
BRANCH  11  31
HETATM   31  N   UNK N   1      32.528  13.183   4.675  0.00  0.00     0.091 NA
HETATM   32  C   UNK N   1      31.241  12.520   4.538  0.00  0.00     0.310 C 
HETATM   33  C   UNK N   1      32.754  14.025   3.508  0.00  0.00     0.310 C 
ENDBRANCH  11  31
BRANCH   6  34
HETATM   34  O   UNK N   1      30.966  17.375   9.108  0.00  0.00    -0.361 OA
HETATM   35  H   UNK N   1      31.810  17.686   9.371  0.00  0.00     0.217 HD
ENDBRANCH   6  34
BRANCH  10  36
HETATM   36  O   UNK N   1      28.855  16.767   3.512  0.00  0.00    -0.385 OA
HETATM   37  H   UNK N   1      28.545  17.194   2.699  0.00  0.00     0.211 HD
ENDBRANCH  10  36
BRANCH  18  38
HETATM   38  O   UNK N   1      26.963  20.371   7.935  0.00  0.00    -0.360 OA
HETATM   39  H   UNK N   1      26.824  21.280   8.110  0.00  0.00     0.217 HD
ENDBRANCH  18  38
TORSDOF 7
ENDMDL
MODEL 6
REMARK VINA RESULT:      -7.2      6.866     10.340
REMARK  7 active torsions:
REMARK  status: ('A' for Active; 'I' for Inactive)
REMARK    1  A    between atoms: C_4  and  O_13 
REMARK    2  A    between atoms: C_6  and  O_16 
REMARK    3  A    between atoms: C_10  and  O_31 
REMARK    4  A    between atoms: C_11  and  N_15 
REMARK    5  A    between atoms: C_14  and  O_19 
REMARK    6  A    between atoms: C_17  and  C_22 
REMARK       I    between atoms: C_22  and  N_24 
REMARK    7  A    between atoms: C_27  and  O_30 
ROOT
HETATM    1  C   UNK N   1      27.058  15.100   3.658  0.00  0.00    -0.007 A 
HETATM    2  C   UNK N   1      26.455  15.827   4.719  0.00  0.00     0.057 A 
HETATM    3  C   UNK N   1      31.600  15.360   5.889  0.00  0.00     0.075 C 
HETATM    4  C   UNK N   1      31.161  16.788   6.261  0.00  0.00     0.177 C 
HETATM    5  C   UNK N   1      30.760  14.873   4.727  0.00  0.00     0.024 C 
HETATM    6  C   UNK N   1      29.660  16.945   6.439  0.00  0.00     0.097 C 
HETATM    7  C   UNK N   1      29.242  14.951   4.948  0.00  0.00     0.065 C 
HETATM    8  C   UNK N   1      28.782  16.137   5.783  0.00  0.00     0.033 C 
HETATM    9  C   UNK N   1      27.311  16.394   5.809  0.00  0.00     0.194 C 
HETATM   10  C   UNK N   1      28.560  14.932   3.565  0.00  0.00     0.090 C 
HETATM   11  C   UNK N   1      33.094  15.476   5.455  0.00  0.00     0.286 C 
HETATM   12  C   UNK N   1      32.008  17.213   7.446  0.00  0.00     0.208 C 
HETATM   13  C   UNK N   1      34.011  16.238   6.395  0.00  0.00     0.096 C 
HETATM   14  C   UNK N   1      33.497  17.068   7.353  0.00  0.00     0.112 C 
HETATM   15  O   UNK N   1      31.492  17.689   8.450  0.00  0.00    -0.288 OA
HETATM   16  O   UNK N   1      26.825  17.142   6.645  0.00  0.00    -0.287 OA
HETATM   17  C   UNK N   1      26.263  14.638   2.597  0.00  0.00     0.011 A 
HETATM   18  C   UNK N   1      25.059  16.065   4.677  0.00  0.00     0.080 A 
HETATM   19  C   UNK N   1      24.889  14.857   2.585  0.00  0.00     0.003 A 
HETATM   20  C   UNK N   1      24.292  15.573   3.617  0.00  0.00     0.037 A 
HETATM   21  C   UNK N   1      29.086  16.059   2.678  0.00  0.00     0.052 C 
ENDROOT
BRANCH  14  22
HETATM   22  C   UNK N   1      34.383  17.837   8.293  0.00  0.00     0.255 C 
HETATM   23  N   UNK N   1      34.507  17.485   9.587  0.00  0.00    -0.366 N 
HETATM   24  H   UNK N   1      34.112  16.649   9.924  0.00  0.00     0.159 HD
HETATM   25  H   UNK N   1      34.999  18.074  10.204  0.00  0.00     0.159 HD
HETATM   26  O   UNK N   1      35.046  18.775   7.873  0.00  0.00    -0.268 OA
ENDBRANCH  14  22
BRANCH  13  27
HETATM   27  O   UNK N   1      35.343  16.084   6.253  0.00  0.00    -0.362 OA
HETATM   28  H   UNK N   1      35.935  16.753   6.538  0.00  0.00     0.217 HD
ENDBRANCH  13  27
BRANCH   4  29
HETATM   29  O   UNK N   1      31.487  17.646   5.202  0.00  0.00    -0.374 OA
HETATM   30  H   UNK N   1      31.924  18.185   4.524  0.00  0.00     0.211 HD
ENDBRANCH   4  29
BRANCH  11  31
HETATM   31  N   UNK N   1      33.753  14.360   4.761  0.00  0.00     0.091 NA
HETATM   32  C   UNK N   1      33.201  13.071   5.150  0.00  0.00     0.310 C 
HETATM   33  C   UNK N   1      33.605  14.524   3.322  0.00  0.00     0.310 C 
ENDBRANCH  11  31
BRANCH   6  34
HETATM   34  O   UNK N   1      29.203  18.009   7.134  0.00  0.00    -0.361 OA
HETATM   35  H   UNK N   1      29.779  18.658   7.487  0.00  0.00     0.217 HD
ENDBRANCH   6  34
BRANCH  10  36
HETATM   36  O   UNK N   1      28.857  13.711   2.946  0.00  0.00    -0.385 OA
HETATM   37  H   UNK N   1      29.700  13.498   2.517  0.00  0.00     0.211 HD
ENDBRANCH  10  36
BRANCH  18  38
HETATM   38  O   UNK N   1      24.446  16.782   5.636  0.00  0.00    -0.360 OA
HETATM   39  H   UNK N   1      23.817  17.437   5.406  0.00  0.00     0.217 HD
ENDBRANCH  18  38
TORSDOF 7
ENDMDL
MODEL 7
REMARK VINA RESULT:      -7.0     13.354     16.371
REMARK  7 active torsions:
REMARK  status: ('A' for Active; 'I' for Inactive)
REMARK    1  A    between atoms: C_4  and  O_13 
REMARK    2  A    between atoms: C_6  and  O_16 
REMARK    3  A    between atoms: C_10  and  O_31 
REMARK    4  A    between atoms: C_11  and  N_15 
REMARK    5  A    between atoms: C_14  and  O_19 
REMARK    6  A    between atoms: C_17  and  C_22 
REMARK       I    between atoms: C_22  and  N_24 
REMARK    7  A    between atoms: C_27  and  O_30 
ROOT
HETATM    1  C   UNK N   1      35.594  11.779  16.752  0.00  0.00    -0.007 A 
HETATM    2  C   UNK N   1      36.241  10.533  16.529  0.00  0.00     0.057 A 
HETATM    3  C   UNK N   1      35.460  12.742  11.778  0.00  0.00     0.075 C 
HETATM    4  C   UNK N   1      36.863  12.107  11.777  0.00  0.00     0.177 C 
HETATM    5  C   UNK N   1      35.119  13.181  13.187  0.00  0.00     0.024 C 
HETATM    6  C   UNK N   1      37.062  11.049  12.850  0.00  0.00     0.097 C 
HETATM    7  C   UNK N   1      35.236  12.083  14.254  0.00  0.00     0.065 C 
HETATM    8  C   UNK N   1      36.356  11.081  14.013  0.00  0.00     0.033 C 
HETATM    9  C   UNK N   1      36.666  10.156  15.144  0.00  0.00     0.194 C 
HETATM   10  C   UNK N   1      35.376  12.770  15.628  0.00  0.00     0.090 C 
HETATM   11  C   UNK N   1      35.557  13.985  10.841  0.00  0.00     0.286 C 
HETATM   12  C   UNK N   1      37.140  11.656  10.355  0.00  0.00     0.208 C 
HETATM   13  C   UNK N   1      36.190  13.754   9.479  0.00  0.00     0.096 C 
HETATM   14  C   UNK N   1      36.945  12.639   9.240  0.00  0.00     0.112 C 
HETATM   15  O   UNK N   1      37.539  10.522  10.121  0.00  0.00    -0.288 OA
HETATM   16  O   UNK N   1      37.351   9.159  14.962  0.00  0.00    -0.287 OA
HETATM   17  C   UNK N   1      35.266  12.164  18.061  0.00  0.00     0.011 A 
HETATM   18  C   UNK N   1      36.537   9.710  17.644  0.00  0.00     0.080 A 
HETATM   19  C   UNK N   1      35.540  11.331  19.141  0.00  0.00     0.003 A 
HETATM   20  C   UNK N   1      36.178  10.113  18.933  0.00  0.00     0.037 A 
HETATM   21  C   UNK N   1      36.560  13.735  15.641  0.00  0.00     0.052 C 
ENDROOT
BRANCH  14  22
HETATM   22  C   UNK N   1      37.586  12.389   7.903  0.00  0.00     0.255 C 
HETATM   23  N   UNK N   1      38.887  12.056   7.800  0.00  0.00    -0.366 N 
HETATM   24  H   UNK N   1      39.423  11.855   8.600  0.00  0.00     0.159 HD
HETATM   25  H   UNK N   1      39.307  12.014   6.910  0.00  0.00     0.159 HD
HETATM   26  O   UNK N   1      36.910  12.441   6.885  0.00  0.00    -0.268 OA
ENDBRANCH  14  22
BRANCH  13  27
HETATM   27  O   UNK N   1      35.997  14.681   8.520  0.00  0.00    -0.362 OA
HETATM   28  H   UNK N   1      36.631  14.804   7.840  0.00  0.00     0.217 HD
ENDBRANCH  13  27
BRANCH   4  29
HETATM   29  O   UNK N   1      37.804  13.101  12.077  0.00  0.00    -0.374 OA
HETATM   30  H   UNK N   1      38.427  13.715  12.497  0.00  0.00     0.211 HD
ENDBRANCH   4  29
BRANCH  11  31
HETATM   31  N   UNK N   1      34.487  14.992  10.833  0.00  0.00     0.091 NA
HETATM   32  C   UNK N   1      35.003  16.338  10.638  0.00  0.00     0.310 C 
HETATM   33  C   UNK N   1      33.539  14.689   9.769  0.00  0.00     0.310 C 
ENDBRANCH  11  31
BRANCH   6  34
HETATM   34  O   UNK N   1      38.073  10.166  12.702  0.00  0.00    -0.361 OA
HETATM   35  H   UNK N   1      37.958   9.248  12.852  0.00  0.00     0.217 HD
ENDBRANCH   6  34
BRANCH  10  36
HETATM   36  O   UNK N   1      34.208  13.505  15.872  0.00  0.00    -0.385 OA
HETATM   37  H   UNK N   1      33.955  14.315  15.404  0.00  0.00     0.211 HD
ENDBRANCH  10  36
BRANCH  18  38
HETATM   38  O   UNK N   1      37.183   8.540  17.492  0.00  0.00    -0.360 OA
HETATM   39  H   UNK N   1      37.860   8.454  16.850  0.00  0.00     0.217 HD
ENDBRANCH  18  38
TORSDOF 7
ENDMDL
MODEL 8
REMARK VINA RESULT:      -6.9     12.234     15.778
REMARK  7 active torsions:
REMARK  status: ('A' for Active; 'I' for Inactive)
REMARK    1  A    between atoms: C_4  and  O_13 
REMARK    2  A    between atoms: C_6  and  O_16 
REMARK    3  A    between atoms: C_10  and  O_31 
REMARK    4  A    between atoms: C_11  and  N_15 
REMARK    5  A    between atoms: C_14  and  O_19 
REMARK    6  A    between atoms: C_17  and  C_22 
REMARK       I    between atoms: C_22  and  N_24 
REMARK    7  A    between atoms: C_27  and  O_30 
ROOT
HETATM    1  C   UNK N   1      34.058  15.355   7.333  0.00  0.00    -0.007 A 
HETATM    2  C   UNK N   1      34.406  16.460   8.156  0.00  0.00     0.057 A 
HETATM    3  C   UNK N   1      34.919  12.102  11.121  0.00  0.00     0.075 C 
HETATM    4  C   UNK N   1      36.108  13.028  11.438  0.00  0.00     0.177 C 
HETATM    5  C   UNK N   1      34.487  12.327   9.688  0.00  0.00     0.024 C 
HETATM    6  C   UNK N   1      35.876  14.480  11.053  0.00  0.00     0.097 C 
HETATM    7  C   UNK N   1      34.169  13.785   9.329  0.00  0.00     0.065 C 
HETATM    8  C   UNK N   1      35.031  14.817  10.040  0.00  0.00     0.033 C 
HETATM    9  C   UNK N   1      34.931  16.220   9.537  0.00  0.00     0.194 C 
HETATM   10  C   UNK N   1      34.262  13.928   7.795  0.00  0.00     0.090 C 
HETATM   11  C   UNK N   1      35.459  10.648  11.293  0.00  0.00     0.286 C 
HETATM   12  C   UNK N   1      36.478  12.788  12.890  0.00  0.00     0.208 C 
HETATM   13  C   UNK N   1      36.214  10.358  12.579  0.00  0.00     0.096 C 
HETATM   14  C   UNK N   1      36.701  11.379  13.349  0.00  0.00     0.112 C 
HETATM   15  O   UNK N   1      36.618  13.724  13.667  0.00  0.00    -0.288 OA
HETATM   16  O   UNK N   1      35.370  17.150  10.197  0.00  0.00    -0.287 OA
HETATM   17  C   UNK N   1      33.640  15.580   6.012  0.00  0.00     0.011 A 
HETATM   18  C   UNK N   1      34.318  17.768   7.615  0.00  0.00     0.080 A 
HETATM   19  C   UNK N   1      33.534  16.872   5.506  0.00  0.00     0.003 A 
HETATM   20  C   UNK N   1      33.879  17.959   6.303  0.00  0.00     0.037 A 
HETATM   21  C   UNK N   1      35.630  13.480   7.285  0.00  0.00     0.052 C 
ENDROOT
BRANCH  14  22
HETATM   22  C   UNK N   1      37.457  11.119  14.622  0.00  0.00     0.255 C 
HETATM   23  N   UNK N   1      36.895  11.332  15.828  0.00  0.00    -0.366 N 
HETATM   24  H   UNK N   1      35.939  11.555  15.909  0.00  0.00     0.159 HD
HETATM   25  H   UNK N   1      37.449  11.266  16.639  0.00  0.00     0.159 HD
HETATM   26  O   UNK N   1      38.589  10.658  14.575  0.00  0.00    -0.268 OA
ENDBRANCH  14  22
BRANCH  13  27
HETATM   27  O   UNK N   1      36.403   9.071  12.933  0.00  0.00    -0.362 OA
HETATM   28  H   UNK N   1      36.047   8.739  13.734  0.00  0.00     0.217 HD
ENDBRANCH  13  27
BRANCH   4  29
HETATM   29  O   UNK N   1      37.207  12.626  10.667  0.00  0.00    -0.374 OA
HETATM   30  H   UNK N   1      38.033  12.562  10.164  0.00  0.00     0.211 HD
ENDBRANCH   4  29
BRANCH  11  31
HETATM   31  N   UNK N   1      34.682   9.505  10.793  0.00  0.00     0.091 NA
HETATM   32  C   UNK N   1      33.249   9.726  10.907  0.00  0.00     0.310 C 
HETATM   33  C   UNK N   1      35.015   9.262   9.397  0.00  0.00     0.310 C 
ENDBRANCH  11  31
BRANCH   6  34
HETATM   34  O   UNK N   1      36.651  15.428  11.625  0.00  0.00    -0.361 OA
HETATM   35  H   UNK N   1      36.378  15.901  12.386  0.00  0.00     0.217 HD
ENDBRANCH   6  34
BRANCH  10  36
HETATM   36  O   UNK N   1      33.286  13.105   7.218  0.00  0.00    -0.385 OA
HETATM   37  H   UNK N   1      33.459  12.240   6.814  0.00  0.00     0.211 HD
ENDBRANCH  10  36
BRANCH  18  38
HETATM   38  O   UNK N   1      34.674  18.845   8.338  0.00  0.00    -0.360 OA
HETATM   39  H   UNK N   1      34.727  18.790   9.272  0.00  0.00     0.217 HD
ENDBRANCH  18  38
TORSDOF 7
ENDMDL
MODEL 9
REMARK VINA RESULT:      -6.7      7.773     11.842
REMARK  7 active torsions:
REMARK  status: ('A' for Active; 'I' for Inactive)
REMARK    1  A    between atoms: C_4  and  O_13 
REMARK    2  A    between atoms: C_6  and  O_16 
REMARK    3  A    between atoms: C_10  and  O_31 
REMARK    4  A    between atoms: C_11  and  N_15 
REMARK    5  A    between atoms: C_14  and  O_19 
REMARK    6  A    between atoms: C_17  and  C_22 
REMARK       I    between atoms: C_22  and  N_24 
REMARK    7  A    between atoms: C_27  and  O_30 
ROOT
HETATM    1  C   UNK N   1      29.809  13.119   2.207  0.00  0.00    -0.007 A 
HETATM    2  C   UNK N   1      31.161  12.927   1.813  0.00  0.00     0.057 A 
HETATM    3  C   UNK N   1      31.162  16.651   5.579  0.00  0.00     0.075 C 
HETATM    4  C   UNK N   1      32.361  15.722   5.837  0.00  0.00     0.177 C 
HETATM    5  C   UNK N   1      30.056  15.857   4.917  0.00  0.00     0.024 C 
HETATM    6  C   UNK N   1      32.786  14.912   4.623  0.00  0.00     0.097 C 
HETATM    7  C   UNK N   1      30.470  15.112   3.640  0.00  0.00     0.065 C 
HETATM    8  C   UNK N   1      31.896  14.581   3.648  0.00  0.00     0.033 C 
HETATM    9  C   UNK N   1      32.255  13.640   2.545  0.00  0.00     0.194 C 
HETATM   10  C   UNK N   1      29.446  13.984   3.395  0.00  0.00     0.090 C 
HETATM   11  C   UNK N   1      30.697  17.142   6.985  0.00  0.00     0.286 C 
HETATM   12  C   UNK N   1      33.449  16.572   6.468  0.00  0.00     0.208 C 
HETATM   13  C   UNK N   1      31.781  17.682   7.902  0.00  0.00     0.096 C 
HETATM   14  C   UNK N   1      33.100  17.415   7.657  0.00  0.00     0.112 C 
HETATM   15  O   UNK N   1      34.593  16.553   6.034  0.00  0.00    -0.288 OA
HETATM   16  O   UNK N   1      33.425  13.373   2.312  0.00  0.00    -0.287 OA
HETATM   17  C   UNK N   1      28.793  12.390   1.571  0.00  0.00     0.011 A 
HETATM   18  C   UNK N   1      31.445  12.000   0.779  0.00  0.00     0.080 A 
HETATM   19  C   UNK N   1      29.087  11.503   0.539  0.00  0.00     0.003 A 
HETATM   20  C   UNK N   1      30.408  11.305   0.151  0.00  0.00     0.037 A 
HETATM   21  C   UNK N   1      29.345  13.062   4.610  0.00  0.00     0.052 C 
ENDROOT
BRANCH  14  22
HETATM   22  C   UNK N   1      34.191  17.932   8.553  0.00  0.00     0.255 C 
HETATM   23  N   UNK N   1      34.507  17.311   9.705  0.00  0.00    -0.366 N 
HETATM   24  H   UNK N   1      34.111  16.440   9.936  0.00  0.00     0.159 HD
HETATM   25  H   UNK N   1      35.142  17.736  10.327  0.00  0.00     0.159 HD
HETATM   26  O   UNK N   1      34.844  18.909   8.214  0.00  0.00    -0.268 OA
ENDBRANCH  14  22
BRANCH  13  27
HETATM   27  O   UNK N   1      31.408  18.418   8.968  0.00  0.00    -0.362 OA
HETATM   28  H   UNK N   1      30.627  18.937   8.941  0.00  0.00     0.217 HD
ENDBRANCH  13  27
BRANCH   4  29
HETATM   29  O   UNK N   1      31.989  14.765   6.792  0.00  0.00    -0.374 OA
HETATM   30  H   UNK N   1      31.746  14.279   7.595  0.00  0.00     0.211 HD
ENDBRANCH   4  29
BRANCH  11  31
HETATM   31  N   UNK N   1      29.399  17.814   7.144  0.00  0.00     0.091 NA
HETATM   32  C   UNK N   1      28.883  18.314   5.879  0.00  0.00     0.310 C 
HETATM   33  C   UNK N   1      28.435  16.885   7.716  0.00  0.00     0.310 C 
ENDBRANCH  11  31
BRANCH   6  34
HETATM   34  O   UNK N   1      34.028  14.381   4.606  0.00  0.00    -0.361 OA
HETATM   35  H   UNK N   1      34.795  14.906   4.723  0.00  0.00     0.217 HD
ENDBRANCH   6  34
BRANCH  10  36
HETATM   36  O   UNK N   1      28.191  14.569   3.182  0.00  0.00    -0.385 OA
HETATM   37  H   UNK N   1      27.960  15.122   2.421  0.00  0.00     0.211 HD
ENDBRANCH  10  36
BRANCH  18  38
HETATM   38  O   UNK N   1      32.711  11.752   0.396  0.00  0.00    -0.360 OA
HETATM   39  H   UNK N   1      32.941  10.916   0.040  0.00  0.00     0.217 HD
ENDBRANCH  18  38
TORSDOF 7
ENDMDL
