MODEL 1
REMARK VINA RESULT:      -6.3      0.000      0.000
REMARK  7 active torsions:
REMARK  status: ('A' for Active; 'I' for Inactive)
REMARK    1  A    between atoms: C_9  and  C_1 
REMARK    2  A    between atoms: O_10  and  C_9 
REMARK    3  A    between atoms: N_11  and  O_10 
REMARK    4  A    between atoms: C_13  and  N_11 
REMARK    5  A    between atoms: C_14  and  C_13 
REMARK    6  A    between atoms: C_15  and  C_13 
REMARK    7  A    between atoms: N_16  and  C_15 
ROOT
HETATM    1  C   UNK N   1      33.196  15.111   8.768  0.00  0.00     0.062 C 
ENDROOT
BRANCH   1   2
HETATM    2  N   UNK N   1      32.354  15.812   9.452  0.00  0.00    -0.268 N 
ATOM      3  HN  UNK N   1      32.610  16.108  10.394  1.00  0.00     0.194 HD
BRANCH   2   4
HETATM    4  O   UNK N   1      31.177  16.155   8.974  0.00  0.00    -0.276 OA
BRANCH   4   5
HETATM    5  C   UNK N   1      30.888  17.468   8.663  0.00  0.00     0.241 C 
BRANCH   5   6
HETATM    6  C   UNK N   1      29.957  17.490   7.501  0.00  0.00    -0.010 A 
HETATM    7  C   UNK N   1      30.471  17.257   6.220  0.00  0.00     0.013 A 
HETATM    8  C   UNK N   1      29.635  17.319   5.105  0.00  0.00     0.024 A 
HETATM    9  C   UNK N   1      28.280  17.614   5.265  0.00  0.00     0.035 A 
HETATM   10  C   UNK N   1      27.756  17.832   6.540  0.00  0.00     0.048 A 
HETATM   11 Cl   UNK N   1      27.243  17.723   3.862  0.00  0.00    -0.084 Cl
HETATM   12  C   UNK N   1      28.587  17.770   7.663  0.00  0.00     0.044 A 
HETATM   13 Cl   UNK N   1      27.882  18.058   9.246  0.00  0.00    -0.084 Cl
ENDBRANCH   5   6
ENDBRANCH   4   5
ENDBRANCH   2   4
ENDBRANCH   1   2
BRANCH   1  14
HETATM   14  C   UNK N   1      33.358  15.360   7.302  0.00  0.00     0.012 A 
HETATM   15  C   UNK N   1      33.889  16.570   6.768  0.00  0.00     0.048 A 
HETATM   16  C   UNK N   1      33.929  16.757   5.383  0.00  0.00     0.048 A 
HETATM   17 Cl   UNK N   1      34.530  17.875   7.761  0.00  0.00    -0.083 Cl
HETATM   18  C   UNK N   1      33.457  15.772   4.518  0.00  0.00     0.035 A 
HETATM   19  C   UNK N   1      32.966  14.574   5.027  0.00  0.00     0.025 A 
HETATM   20 Cl   UNK N   1      33.463  16.052   2.791  0.00  0.00    -0.084 Cl
HETATM   21  C   UNK N   1      32.925  14.369   6.405  0.00  0.00     0.017 A 
ENDBRANCH   1  14
BRANCH   1  22
HETATM   22  C   UNK N   1      33.967  14.009   9.465  0.00  0.00     0.189 C 
BRANCH  22  23
HETATM   23  N   UNK N   1      34.911  14.521  10.450  0.00  0.00    -0.346 N 
HETATM   24  C   UNK N   1      35.902  15.388  10.196  0.00  0.00     0.182 A 
HETATM   25  N   UNK N   1      36.582  15.678  11.322  0.00  0.00    -0.361 N 
HETATM   26  C   UNK N   1      35.991  14.967  12.306  0.00  0.00     0.106 A 
ATOM     27  HN  UNK N   1      37.380  16.307  11.413  1.00  0.00     0.166 HD
HETATM   28  C   UNK N   1      34.944  14.250  11.763  0.00  0.00     0.109 A 
ENDBRANCH  22  23
ENDBRANCH   1  22
TORSDOF 7
ENDMDL
MODEL 2
REMARK VINA RESULT:      -6.2      6.825     11.095
REMARK  7 active torsions:
REMARK  status: ('A' for Active; 'I' for Inactive)
REMARK    1  A    between atoms: C_9  and  C_1 
REMARK    2  A    between atoms: O_10  and  C_9 
REMARK    3  A    between atoms: N_11  and  O_10 
REMARK    4  A    between atoms: C_13  and  N_11 
REMARK    5  A    between atoms: C_14  and  C_13 
REMARK    6  A    between atoms: C_15  and  C_13 
REMARK    7  A    between atoms: N_16  and  C_15 
ROOT
HETATM    1  C   UNK N   1      36.534  12.746  13.156  0.00  0.00     0.062 C 
ENDROOT
BRANCH   1   2
HETATM    2  N   UNK N   1      36.286  13.673  14.019  0.00  0.00    -0.268 N 
ATOM      3  HN  UNK N   1      36.140  14.627  13.690  1.00  0.00     0.194 HD
BRANCH   2   4
HETATM    4  O   UNK N   1      36.218  13.428  15.311  0.00  0.00    -0.276 OA
BRANCH   4   5
HETATM    5  C   UNK N   1      35.002  13.270  15.943  0.00  0.00     0.241 C 
BRANCH   5   6
HETATM    6  C   UNK N   1      35.217  12.523  17.214  0.00  0.00    -0.010 A 
HETATM    7  C   UNK N   1      35.391  11.136  17.159  0.00  0.00     0.013 A 
HETATM    8  C   UNK N   1      35.546  10.399  18.333  0.00  0.00     0.024 A 
HETATM    9  C   UNK N   1      35.529  11.047  19.570  0.00  0.00     0.035 A 
HETATM   10  C   UNK N   1      35.371  12.433  19.633  0.00  0.00     0.048 A 
HETATM   11 Cl   UNK N   1      35.690  10.117  21.041  0.00  0.00    -0.084 Cl
HETATM   12  C   UNK N   1      35.217  13.179  18.460  0.00  0.00     0.044 A 
HETATM   13 Cl   UNK N   1      35.016  14.918  18.591  0.00  0.00    -0.084 Cl
ENDBRANCH   5   6
ENDBRANCH   4   5
ENDBRANCH   2   4
ENDBRANCH   1   2
BRANCH   1  14
HETATM   14  C   UNK N   1      36.714  11.332  13.609  0.00  0.00     0.012 A 
HETATM   15  C   UNK N   1      35.662  10.371  13.609  0.00  0.00     0.048 A 
HETATM   16  C   UNK N   1      35.891   9.093  14.127  0.00  0.00     0.048 A 
HETATM   17 Cl   UNK N   1      34.053  10.687  12.968  0.00  0.00    -0.083 Cl
HETATM   18  C   UNK N   1      37.139   8.747  14.643  0.00  0.00     0.035 A 
HETATM   19  C   UNK N   1      38.182   9.668  14.619  0.00  0.00     0.025 A 
HETATM   20 Cl   UNK N   1      37.386   7.162  15.339  0.00  0.00    -0.084 Cl
HETATM   21  C   UNK N   1      37.972  10.943  14.100  0.00  0.00     0.017 A 
ENDBRANCH   1  14
BRANCH   1  22
HETATM   22  C   UNK N   1      36.690  13.126  11.698  0.00  0.00     0.189 C 
BRANCH  22  23
HETATM   23  N   UNK N   1      35.886  14.286  11.331  0.00  0.00    -0.346 N 
HETATM   24  C   UNK N   1      34.553  14.291  11.192  0.00  0.00     0.182 A 
HETATM   25  N   UNK N   1      34.113  15.522  10.867  0.00  0.00    -0.361 N 
HETATM   26  C   UNK N   1      35.210  16.305  10.805  0.00  0.00     0.106 A 
ATOM     27  HN  UNK N   1      33.147  15.805  10.702  1.00  0.00     0.166 HD
HETATM   28  C   UNK N   1      36.318  15.535  11.101  0.00  0.00     0.109 A 
ENDBRANCH  22  23
ENDBRANCH   1  22
TORSDOF 7
ENDMDL
MODEL 3
REMARK VINA RESULT:      -6.2      3.487      7.464
REMARK  7 active torsions:
REMARK  status: ('A' for Active; 'I' for Inactive)
REMARK    1  A    between atoms: C_9  and  C_1 
REMARK    2  A    between atoms: O_10  and  C_9 
REMARK    3  A    between atoms: N_11  and  O_10 
REMARK    4  A    between atoms: C_13  and  N_11 
REMARK    5  A    between atoms: C_14  and  C_13 
REMARK    6  A    between atoms: C_15  and  C_13 
REMARK    7  A    between atoms: N_16  and  C_15 
ROOT
HETATM    1  C   UNK N   1      29.191  17.782   4.953  0.00  0.00     0.062 C 
ENDROOT
BRANCH   1   2
HETATM    2  N   UNK N   1      30.294  18.046   4.335  0.00  0.00    -0.268 N 
ATOM      3  HN  UNK N   1      30.368  18.917   3.809  1.00  0.00     0.194 HD
BRANCH   2   4
HETATM    4  O   UNK N   1      31.325  17.228   4.360  0.00  0.00    -0.276 OA
BRANCH   4   5
HETATM    5  C   UNK N   1      32.617  17.709   4.359  0.00  0.00     0.241 C 
BRANCH   5   6
HETATM    6  C   UNK N   1      33.449  16.849   5.245  0.00  0.00    -0.010 A 
HETATM    7  C   UNK N   1      33.675  17.259   6.564  0.00  0.00     0.013 A 
HETATM    8  C   UNK N   1      34.489  16.502   7.407  0.00  0.00     0.024 A 
HETATM    9  C   UNK N   1      35.080  15.328   6.935  0.00  0.00     0.035 A 
HETATM   10  C   UNK N   1      34.847  14.903   5.625  0.00  0.00     0.048 A 
HETATM   11 Cl   UNK N   1      36.126  14.400   7.983  0.00  0.00    -0.084 Cl
HETATM   12  C   UNK N   1      34.030  15.656   4.776  0.00  0.00     0.044 A 
HETATM   13 Cl   UNK N   1      33.771  15.083   3.135  0.00  0.00    -0.084 Cl
ENDBRANCH   5   6
ENDBRANCH   4   5
ENDBRANCH   2   4
ENDBRANCH   1   2
BRANCH   1  14
HETATM   14  C   UNK N   1      27.917  18.438   4.522  0.00  0.00     0.012 A 
HETATM   15  C   UNK N   1      26.851  17.736   3.888  0.00  0.00     0.048 A 
HETATM   16  C   UNK N   1      25.729  18.438   3.441  0.00  0.00     0.048 A 
HETATM   17 Cl   UNK N   1      26.845  15.993   3.638  0.00  0.00    -0.083 Cl
HETATM   18  C   UNK N   1      25.639  19.819   3.608  0.00  0.00     0.035 A 
HETATM   19  C   UNK N   1      26.660  20.510   4.255  0.00  0.00     0.025 A 
HETATM   20 Cl   UNK N   1      24.252  20.685   2.989  0.00  0.00    -0.084 Cl
HETATM   21  C   UNK N   1      27.783  19.824   4.712  0.00  0.00     0.017 A 
ENDBRANCH   1  14
BRANCH   1  22
HETATM   22  C   UNK N   1      29.225  16.845   6.143  0.00  0.00     0.189 C 
BRANCH  22  23
HETATM   23  N   UNK N   1      29.222  17.555   7.416  0.00  0.00    -0.346 N 
HETATM   24  C   UNK N   1      28.125  17.946   8.081  0.00  0.00     0.182 A 
HETATM   25  N   UNK N   1      28.460  18.558   9.233  0.00  0.00    -0.361 N 
HETATM   26  C   UNK N   1      29.809  18.544   9.283  0.00  0.00     0.106 A 
ATOM     27  HN  UNK N   1      27.825  18.952   9.928  1.00  0.00     0.166 HD
HETATM   28  C   UNK N   1      30.285  17.912   8.151  0.00  0.00     0.109 A 
ENDBRANCH  22  23
ENDBRANCH   1  22
TORSDOF 7
ENDMDL
MODEL 4
REMARK VINA RESULT:      -6.2     15.896     17.853
REMARK  7 active torsions:
REMARK  status: ('A' for Active; 'I' for Inactive)
REMARK    1  A    between atoms: C_9  and  C_1 
REMARK    2  A    between atoms: O_10  and  C_9 
REMARK    3  A    between atoms: N_11  and  O_10 
REMARK    4  A    between atoms: C_13  and  N_11 
REMARK    5  A    between atoms: C_14  and  C_13 
REMARK    6  A    between atoms: C_15  and  C_13 
REMARK    7  A    between atoms: N_16  and  C_15 
ROOT
HETATM    1  C   UNK N   1      26.287  24.013  -6.445  0.00  0.00     0.062 C 
ENDROOT
BRANCH   1   2
HETATM    2  N   UNK N   1      25.424  24.938  -6.705  0.00  0.00    -0.268 N 
ATOM      3  HN  UNK N   1      25.149  25.097  -7.675  1.00  0.00     0.194 HD
BRANCH   2   4
HETATM    4  O   UNK N   1      24.889  25.684  -5.761  0.00  0.00    -0.276 OA
BRANCH   4   5
HETATM    5  C   UNK N   1      24.895  27.060  -5.851  0.00  0.00     0.241 C 
BRANCH   5   6
HETATM    6  C   UNK N   1      26.034  27.586  -5.048  0.00  0.00    -0.010 A 
HETATM    7  C   UNK N   1      25.885  27.705  -3.662  0.00  0.00     0.013 A 
HETATM    8  C   UNK N   1      26.914  28.240  -2.887  0.00  0.00     0.024 A 
HETATM    9  C   UNK N   1      28.099  28.657  -3.494  0.00  0.00     0.035 A 
HETATM   10  C   UNK N   1      28.263  28.528  -4.875  0.00  0.00     0.048 A 
HETATM   11 Cl   UNK N   1      29.374  29.357  -2.524  0.00  0.00    -0.084 Cl
HETATM   12  C   UNK N   1      27.237  27.991  -5.658  0.00  0.00     0.044 A 
HETATM   13 Cl   UNK N   1      27.488  27.854  -7.391  0.00  0.00    -0.084 Cl
ENDBRANCH   5   6
ENDBRANCH   4   5
ENDBRANCH   2   4
ENDBRANCH   1   2
BRANCH   1  14
HETATM   14  C   UNK N   1      27.623  24.376  -5.879  0.00  0.00     0.012 A 
HETATM   15  C   UNK N   1      27.872  24.500  -4.481  0.00  0.00     0.048 A 
HETATM   16  C   UNK N   1      29.127  24.924  -4.036  0.00  0.00     0.048 A 
HETATM   17 Cl   UNK N   1      26.678  24.127  -3.241  0.00  0.00    -0.083 Cl
HETATM   18  C   UNK N   1      30.139  25.228  -4.945  0.00  0.00     0.035 A 
HETATM   19  C   UNK N   1      29.917  25.079  -6.310  0.00  0.00     0.025 A 
HETATM   20 Cl   UNK N   1      31.683  25.813  -4.367  0.00  0.00    -0.084 Cl
HETATM   21  C   UNK N   1      28.674  24.652  -6.770  0.00  0.00     0.017 A 
ENDBRANCH   1  14
BRANCH   1  22
HETATM   22  C   UNK N   1      25.940  22.576  -6.773  0.00  0.00     0.189 C 
BRANCH  22  23
HETATM   23  N   UNK N   1      26.505  22.137  -8.043  0.00  0.00    -0.346 N 
HETATM   24  C   UNK N   1      27.503  21.252  -8.182  0.00  0.00     0.182 A 
HETATM   25  N   UNK N   1      27.779  21.046  -9.484  0.00  0.00    -0.361 N 
HETATM   26  C   UNK N   1      26.923  21.830 -10.174  0.00  0.00     0.106 A 
ATOM     27  HN  UNK N   1      28.490  20.425  -9.871  1.00  0.00     0.166 HD
HETATM   28  C   UNK N   1      26.123  22.506  -9.274  0.00  0.00     0.109 A 
ENDBRANCH  22  23
ENDBRANCH   1  22
TORSDOF 7
ENDMDL
MODEL 5
REMARK VINA RESULT:      -6.2      2.306      3.319
REMARK  7 active torsions:
REMARK  status: ('A' for Active; 'I' for Inactive)
REMARK    1  A    between atoms: C_9  and  C_1 
REMARK    2  A    between atoms: O_10  and  C_9 
REMARK    3  A    between atoms: N_11  and  O_10 
REMARK    4  A    between atoms: C_13  and  N_11 
REMARK    5  A    between atoms: C_14  and  C_13 
REMARK    6  A    between atoms: C_15  and  C_13 
REMARK    7  A    between atoms: N_16  and  C_15 
ROOT
HETATM    1  C   UNK N   1      34.707  15.385   9.703  0.00  0.00     0.062 C 
ENDROOT
BRANCH   1   2
HETATM    2  N   UNK N   1      35.135  16.595   9.565  0.00  0.00    -0.268 N 
ATOM      3  HN  UNK N   1      36.139  16.772   9.612  1.00  0.00     0.194 HD
BRANCH   2   4
HETATM    4  O   UNK N   1      34.319  17.610   9.368  0.00  0.00    -0.276 OA
BRANCH   4   5
HETATM    5  C   UNK N   1      34.114  18.125   8.105  0.00  0.00     0.241 C 
BRANCH   5   6
HETATM    6  C   UNK N   1      32.724  17.801   7.678  0.00  0.00    -0.010 A 
HETATM    7  C   UNK N   1      31.684  17.938   8.604  0.00  0.00     0.013 A 
HETATM    8  C   UNK N   1      30.378  17.597   8.251  0.00  0.00     0.024 A 
HETATM    9  C   UNK N   1      30.106  17.118   6.968  0.00  0.00     0.035 A 
HETATM   10  C   UNK N   1      31.134  16.993   6.033  0.00  0.00     0.048 A 
HETATM   11 Cl   UNK N   1      28.474  16.660   6.540  0.00  0.00    -0.084 Cl
HETATM   12  C   UNK N   1      32.445  17.336   6.378  0.00  0.00     0.044 A 
HETATM   13 Cl   UNK N   1      33.707  17.156   5.169  0.00  0.00    -0.084 Cl
ENDBRANCH   5   6
ENDBRANCH   4   5
ENDBRANCH   2   4
ENDBRANCH   1   2
BRANCH   1  14
HETATM   14  C   UNK N   1      34.681  14.463   8.526  0.00  0.00     0.012 A 
HETATM   15  C   UNK N   1      35.837  13.793   8.031  0.00  0.00     0.048 A 
HETATM   16  C   UNK N   1      35.745  13.014   6.874  0.00  0.00     0.048 A 
HETATM   17 Cl   UNK N   1      37.415  13.869   8.809  0.00  0.00    -0.083 Cl
HETATM   18  C   UNK N   1      34.533  12.884   6.198  0.00  0.00     0.035 A 
HETATM   19  C   UNK N   1      33.390  13.508   6.691  0.00  0.00     0.025 A 
HETATM   20 Cl   UNK N   1      34.453  11.951   4.721  0.00  0.00    -0.084 Cl
HETATM   21  C   UNK N   1      33.464  14.283   7.846  0.00  0.00     0.017 A 
ENDBRANCH   1  14
BRANCH   1  22
HETATM   22  C   UNK N   1      34.188  14.942  11.056  0.00  0.00     0.189 C 
BRANCH  22  23
HETATM   23  N   UNK N   1      35.201  14.255  11.848  0.00  0.00    -0.346 N 
HETATM   24  C   UNK N   1      36.074  14.852  12.673  0.00  0.00     0.182 A 
HETATM   25  N   UNK N   1      36.862  13.939  13.273  0.00  0.00    -0.361 N 
HETATM   26  C   UNK N   1      36.463  12.738  12.804  0.00  0.00     0.106 A 
ATOM     27  HN  UNK N   1      37.609  14.118  13.945  1.00  0.00     0.166 HD
HETATM   28  C   UNK N   1      35.421  12.935  11.919  0.00  0.00     0.109 A 
ENDBRANCH  22  23
ENDBRANCH   1  22
TORSDOF 7
ENDMDL
MODEL 6
REMARK VINA RESULT:      -6.2     13.501     15.973
REMARK  7 active torsions:
REMARK  status: ('A' for Active; 'I' for Inactive)
REMARK    1  A    between atoms: C_9  and  C_1 
REMARK    2  A    between atoms: O_10  and  C_9 
REMARK    3  A    between atoms: N_11  and  O_10 
REMARK    4  A    between atoms: C_13  and  N_11 
REMARK    5  A    between atoms: C_14  and  C_13 
REMARK    6  A    between atoms: C_15  and  C_13 
REMARK    7  A    between atoms: N_16  and  C_15 
ROOT
HETATM    1  C   UNK N   1      29.456  23.342  -5.975  0.00  0.00     0.062 C 
ENDROOT
BRANCH   1   2
HETATM    2  N   UNK N   1      28.275  22.823  -5.921  0.00  0.00    -0.268 N 
ATOM      3  HN  UNK N   1      28.145  21.945  -5.418  1.00  0.00     0.194 HD
BRANCH   2   4
HETATM    4  O   UNK N   1      27.233  23.388  -6.494  0.00  0.00    -0.276 OA
BRANCH   4   5
HETATM    5  C   UNK N   1      26.051  23.569  -5.806  0.00  0.00     0.241 C 
BRANCH   5   6
HETATM    6  C   UNK N   1      26.015  24.960  -5.275  0.00  0.00    -0.010 A 
HETATM    7  C   UNK N   1      25.557  25.987  -6.107  0.00  0.00     0.013 A 
HETATM    8  C   UNK N   1      25.555  27.308  -5.659  0.00  0.00     0.024 A 
HETATM    9  C   UNK N   1      26.012  27.608  -4.374  0.00  0.00     0.035 A 
HETATM   10  C   UNK N   1      26.456  26.588  -3.532  0.00  0.00     0.048 A 
HETATM   11 Cl   UNK N   1      26.040  29.269  -3.828  0.00  0.00    -0.084 Cl
HETATM   12  C   UNK N   1      26.458  25.261  -3.973  0.00  0.00     0.044 A 
HETATM   13 Cl   UNK N   1      27.032  24.012  -2.879  0.00  0.00    -0.084 Cl
ENDBRANCH   5   6
ENDBRANCH   4   5
ENDBRANCH   2   4
ENDBRANCH   1   2
BRANCH   1  14
HETATM   14  C   UNK N   1      29.681  24.739  -5.489  0.00  0.00     0.012 A 
HETATM   15  C   UNK N   1      30.119  25.046  -4.169  0.00  0.00     0.048 A 
HETATM   16  C   UNK N   1      30.225  26.381  -3.767  0.00  0.00     0.048 A 
HETATM   17 Cl   UNK N   1      30.565  23.825  -2.981  0.00  0.00    -0.083 Cl
HETATM   18  C   UNK N   1      29.907  27.416  -4.644  0.00  0.00     0.035 A 
HETATM   19  C   UNK N   1      29.509  27.128  -5.946  0.00  0.00     0.025 A 
HETATM   20 Cl   UNK N   1      29.991  29.076  -4.102  0.00  0.00    -0.084 Cl
HETATM   21  C   UNK N   1      29.404  25.803  -6.364  0.00  0.00     0.017 A 
ENDBRANCH   1  14
BRANCH   1  22
HETATM   22  C   UNK N   1      30.583  22.534  -6.584  0.00  0.00     0.189 C 
BRANCH  22  23
HETATM   23  N   UNK N   1      31.339  21.785  -5.588  0.00  0.00    -0.346 N 
HETATM   24  C   UNK N   1      30.876  20.734  -4.896  0.00  0.00     0.182 A 
HETATM   25  N   UNK N   1      31.825  20.252  -4.071  0.00  0.00    -0.361 N 
HETATM   26  C   UNK N   1      32.912  21.030  -4.260  0.00  0.00     0.106 A 
ATOM     27  HN  UNK N   1      31.741  19.461  -3.433  1.00  0.00     0.166 HD
HETATM   28  C   UNK N   1      32.610  21.983  -5.213  0.00  0.00     0.109 A 
ENDBRANCH  22  23
ENDBRANCH   1  22
TORSDOF 7
ENDMDL
MODEL 7
REMARK VINA RESULT:      -6.1     13.762     16.399
REMARK  7 active torsions:
REMARK  status: ('A' for Active; 'I' for Inactive)
REMARK    1  A    between atoms: C_9  and  C_1 
REMARK    2  A    between atoms: O_10  and  C_9 
REMARK    3  A    between atoms: N_11  and  O_10 
REMARK    4  A    between atoms: C_13  and  N_11 
REMARK    5  A    between atoms: C_14  and  C_13 
REMARK    6  A    between atoms: C_15  and  C_13 
REMARK    7  A    between atoms: N_16  and  C_15 
ROOT
HETATM    1  C   UNK N   1      29.058  24.376  -4.058  0.00  0.00     0.062 C 
ENDROOT
BRANCH   1   2
HETATM    2  N   UNK N   1      29.456  25.599  -4.178  0.00  0.00    -0.268 N 
ATOM      3  HN  UNK N   1      30.449  25.782  -4.322  1.00  0.00     0.194 HD
BRANCH   2   4
HETATM    4  O   UNK N   1      28.623  26.617  -4.120  0.00  0.00    -0.276 OA
BRANCH   4   5
HETATM    5  C   UNK N   1      28.613  27.588  -5.100  0.00  0.00     0.241 C 
BRANCH   5   6
HETATM    6  C   UNK N   1      27.788  27.106  -6.242  0.00  0.00    -0.010 A 
HETATM    7  C   UNK N   1      28.433  26.672  -7.405  0.00  0.00     0.013 A 
HETATM    8  C   UNK N   1      27.690  26.260  -8.511  0.00  0.00     0.024 A 
HETATM    9  C   UNK N   1      26.294  26.280  -8.459  0.00  0.00     0.035 A 
HETATM   10  C   UNK N   1      25.642  26.697  -7.297  0.00  0.00     0.048 A 
HETATM   11 Cl   UNK N   1      25.365  25.796  -9.858  0.00  0.00    -0.084 Cl
HETATM   12  C   UNK N   1      26.381  27.109  -6.184  0.00  0.00     0.044 A 
HETATM   13 Cl   UNK N   1      25.515  27.630  -4.747  0.00  0.00    -0.084 Cl
ENDBRANCH   5   6
ENDBRANCH   4   5
ENDBRANCH   2   4
ENDBRANCH   1   2
BRANCH   1  14
HETATM   14  C   UNK N   1      28.110  23.797  -5.059  0.00  0.00     0.012 A 
HETATM   15  C   UNK N   1      28.532  23.217  -6.290  0.00  0.00     0.048 A 
HETATM   16  C   UNK N   1      27.578  22.773  -7.210  0.00  0.00     0.048 A 
HETATM   17 Cl   UNK N   1      30.222  22.999  -6.737  0.00  0.00    -0.083 Cl
HETATM   18  C   UNK N   1      26.216  22.891  -6.936  0.00  0.00     0.035 A 
HETATM   19  C   UNK N   1      25.794  23.427  -5.724  0.00  0.00     0.025 A 
HETATM   20 Cl   UNK N   1      25.040  22.383  -8.126  0.00  0.00    -0.084 Cl
HETATM   21  C   UNK N   1      26.732  23.868  -4.794  0.00  0.00     0.017 A 
ENDBRANCH   1  14
BRANCH   1  22
HETATM   22  C   UNK N   1      29.524  23.570  -2.864  0.00  0.00     0.189 C 
BRANCH  22  23
HETATM   23  N   UNK N   1      30.505  22.552  -3.222  0.00  0.00    -0.346 N 
HETATM   24  C   UNK N   1      30.245  21.245  -3.367  0.00  0.00     0.182 A 
HETATM   25  N   UNK N   1      31.359  20.575  -3.722  0.00  0.00    -0.361 N 
HETATM   26  C   UNK N   1      32.340  21.499  -3.799  0.00  0.00     0.106 A 
ATOM     27  HN  UNK N   1      31.444  19.573  -3.896  1.00  0.00     0.166 HD
HETATM   28  C   UNK N   1      31.805  22.735  -3.494  0.00  0.00     0.109 A 
ENDBRANCH  22  23
ENDBRANCH   1  22
TORSDOF 7
ENDMDL
MODEL 8
REMARK VINA RESULT:      -6.1      2.585      3.808
REMARK  7 active torsions:
REMARK  status: ('A' for Active; 'I' for Inactive)
REMARK    1  A    between atoms: C_9  and  C_1 
REMARK    2  A    between atoms: O_10  and  C_9 
REMARK    3  A    between atoms: N_11  and  O_10 
REMARK    4  A    between atoms: C_13  and  N_11 
REMARK    5  A    between atoms: C_14  and  C_13 
REMARK    6  A    between atoms: C_15  and  C_13 
REMARK    7  A    between atoms: N_16  and  C_15 
ROOT
HETATM    1  C   UNK N   1      31.072  16.194   6.706  0.00  0.00     0.062 C 
ENDROOT
BRANCH   1   2
HETATM    2  N   UNK N   1      30.450  17.116   7.362  0.00  0.00    -0.268 N 
ATOM      3  HN  UNK N   1      30.929  17.997   7.550  1.00  0.00     0.194 HD
BRANCH   2   4
HETATM    4  O   UNK N   1      29.218  16.955   7.799  0.00  0.00    -0.276 OA
BRANCH   4   5
HETATM    5  C   UNK N   1      28.221  17.847   7.463  0.00  0.00     0.241 C 
BRANCH   5   6
HETATM    6  C   UNK N   1      27.458  17.298   6.308  0.00  0.00    -0.010 A 
HETATM    7  C   UNK N   1      26.710  16.130   6.488  0.00  0.00     0.013 A 
HETATM    8  C   UNK N   1      26.022  15.561   5.416  0.00  0.00     0.024 A 
HETATM    9  C   UNK N   1      26.080  16.161   4.156  0.00  0.00     0.035 A 
HETATM   10  C   UNK N   1      26.811  17.336   3.970  0.00  0.00     0.048 A 
HETATM   11 Cl   UNK N   1      25.245  15.428   2.806  0.00  0.00    -0.084 Cl
HETATM   12  C   UNK N   1      27.500  17.912   5.042  0.00  0.00     0.044 A 
HETATM   13 Cl   UNK N   1      28.411  19.387   4.758  0.00  0.00    -0.084 Cl
ENDBRANCH   5   6
ENDBRANCH   4   5
ENDBRANCH   2   4
ENDBRANCH   1   2
BRANCH   1  14
HETATM   14  C   UNK N   1      30.555  15.744   5.377  0.00  0.00     0.012 A 
HETATM   15  C   UNK N   1      30.773  16.466   4.168  0.00  0.00     0.048 A 
HETATM   16  C   UNK N   1      30.184  16.023   2.980  0.00  0.00     0.048 A 
HETATM   17 Cl   UNK N   1      31.775  17.910   4.062  0.00  0.00    -0.083 Cl
HETATM   18  C   UNK N   1      29.385  14.881   2.964  0.00  0.00     0.035 A 
HETATM   19  C   UNK N   1      29.192  14.150   4.133  0.00  0.00     0.025 A 
HETATM   20 Cl   UNK N   1      28.611  14.377   1.479  0.00  0.00    -0.084 Cl
HETATM   21  C   UNK N   1      29.777  14.575   5.324  0.00  0.00     0.017 A 
ENDBRANCH   1  14
BRANCH   1  22
HETATM   22  C   UNK N   1      32.293  15.549   7.329  0.00  0.00     0.189 C 
BRANCH  22  23
HETATM   23  N   UNK N   1      33.200  16.523   7.925  0.00  0.00    -0.346 N 
HETATM   24  C   UNK N   1      33.611  16.517   9.202  0.00  0.00     0.182 A 
HETATM   25  N   UNK N   1      34.460  17.537   9.433  0.00  0.00    -0.361 N 
HETATM   26  C   UNK N   1      34.578  18.194   8.260  0.00  0.00     0.106 A 
ATOM     27  HN  UNK N   1      34.920  17.766  10.314  1.00  0.00     0.166 HD
HETATM   28  C   UNK N   1      33.797  17.557   7.317  0.00  0.00     0.109 A 
ENDBRANCH  22  23
ENDBRANCH   1  22
TORSDOF 7
ENDMDL
MODEL 9
REMARK VINA RESULT:      -6.1     10.893     12.880
REMARK  7 active torsions:
REMARK  status: ('A' for Active; 'I' for Inactive)
REMARK    1  A    between atoms: C_9  and  C_1 
REMARK    2  A    between atoms: O_10  and  C_9 
REMARK    3  A    between atoms: N_11  and  O_10 
REMARK    4  A    between atoms: C_13  and  N_11 
REMARK    5  A    between atoms: C_14  and  C_13 
REMARK    6  A    between atoms: C_15  and  C_13 
REMARK    7  A    between atoms: N_16  and  C_15 
ROOT
HETATM    1  C   UNK N   1      20.455  15.637   7.353  0.00  0.00     0.062 C 
ENDROOT
BRANCH   1   2
HETATM    2  N   UNK N   1      19.827  15.146   6.337  0.00  0.00    -0.268 N 
ATOM      3  HN  UNK N   1      19.367  14.240   6.432  1.00  0.00     0.194 HD
BRANCH   2   4
HETATM    4  O   UNK N   1      19.761  15.775   5.182  0.00  0.00    -0.276 OA
BRANCH   4   5
HETATM    5  C   UNK N   1      20.819  15.751   4.296  0.00  0.00     0.241 C 
BRANCH   5   6
HETATM    6  C   UNK N   1      20.806  17.012   3.503  0.00  0.00    -0.010 A 
HETATM    7  C   UNK N   1      21.213  18.200   4.119  0.00  0.00     0.013 A 
HETATM    8  C   UNK N   1      21.167  19.407   3.420  0.00  0.00     0.024 A 
HETATM    9  C   UNK N   1      20.715  19.430   2.100  0.00  0.00     0.035 A 
HETATM   10  C   UNK N   1      20.321  18.246   1.472  0.00  0.00     0.048 A 
HETATM   11 Cl   UNK N   1      20.627  20.948   1.238  0.00  0.00    -0.084 Cl
HETATM   12  C   UNK N   1      20.367  17.033   2.165  0.00  0.00     0.044 A 
HETATM   13 Cl   UNK N   1      19.856  15.572   1.336  0.00  0.00    -0.084 Cl
ENDBRANCH   5   6
ENDBRANCH   4   5
ENDBRANCH   2   4
ENDBRANCH   1   2
BRANCH   1  14
HETATM   14  C   UNK N   1      21.146  14.724   8.316  0.00  0.00     0.012 A 
HETATM   15  C   UNK N   1      22.492  14.287   8.150  0.00  0.00     0.048 A 
HETATM   16  C   UNK N   1      23.037  13.367   9.051  0.00  0.00     0.048 A 
HETATM   17 Cl   UNK N   1      23.550  14.854   6.862  0.00  0.00    -0.083 Cl
HETATM   18  C   UNK N   1      22.279  12.873  10.111  0.00  0.00     0.035 A 
HETATM   19  C   UNK N   1      20.974  13.318  10.300  0.00  0.00     0.025 A 
HETATM   20 Cl   UNK N   1      22.962  11.680  11.191  0.00  0.00    -0.084 Cl
HETATM   21  C   UNK N   1      20.418  14.239   9.415  0.00  0.00     0.017 A 
ENDBRANCH   1  14
BRANCH   1  22
HETATM   22  C   UNK N   1      20.431  17.135   7.574  0.00  0.00     0.189 C 
BRANCH  22  23
HETATM   23  N   UNK N   1      19.400  17.547   8.518  0.00  0.00    -0.346 N 
HETATM   24  C   UNK N   1      18.157  17.048   8.573  0.00  0.00     0.182 A 
HETATM   25  N   UNK N   1      17.457  17.623   9.570  0.00  0.00    -0.361 N 
HETATM   26  C   UNK N   1      18.295  18.506  10.151  0.00  0.00     0.106 A 
ATOM     27  HN  UNK N   1      16.490  17.430   9.832  1.00  0.00     0.166 HD
HETATM   28  C   UNK N   1      19.511  18.454   9.499  0.00  0.00     0.109 A 
ENDBRANCH  22  23
ENDBRANCH   1  22
TORSDOF 7
ENDMDL
