REMARK  0 active torsions:
REMARK  status: ('A' for Active; 'I' for Inactive)
REMARK       I    between atoms: N_1  and  C_4 
REMARK       I    between atoms: C_4  and  N_5 
REMARK       I    between atoms: N_5  and  C_8 
REMARK       I    between atoms: C_8  and  N_10 
ROOT
HETATM    1  N   UNK N   1      -4.465   1.943  -0.000  0.00  0.00    -0.234 N 
HETATM    2  N   UNK N   1      -3.487  -0.170  -0.000  0.00  0.00    -0.234 N 
ATOM      3  HN  UNK N   1      -2.672  -0.784  -0.000  1.00  0.00     0.174 HD
HETATM    4  C   UNK N   1      -3.330   1.102   0.000  0.00  0.00     0.683 C 
HETATM    5  N   UNK N   1      -2.035   1.691   0.000  0.00  0.00    -0.024 N 
HETATM    6  N   UNK N   1      -0.739  -0.283  -0.000  0.00  0.00    -0.234 N 
ATOM      7  HN  UNK N   1       0.162  -0.762  -0.000  1.00  0.00     0.174 HD
HETATM    8  C   UNK N   1      -0.783   1.001   0.000  0.00  0.00     0.687 C 
HETATM    9  C   UNK N   1       0.371   3.199   0.000  0.00  0.00     0.168 C 
HETATM   10  N   UNK N   1       0.424   1.761   0.000  0.00  0.00    -0.226 N 
HETATM   11  C   UNK N   1       1.711   1.114  -0.000  0.00  0.00     0.168 C 
HETATM   12  H   UNK N   1      -4.352   2.921  -0.000  0.00  0.00     0.174 HD
HETATM   13  H   UNK N   1      -5.368   1.551  -0.000  0.00  0.00     0.174 HD
HETATM   14  H   UNK N   1      -4.393  -0.554  -0.000  0.00  0.00     0.174 HD
HETATM   15  H   UNK N   1      -1.996   2.675   0.000  0.00  0.00     0.203 HD
HETATM   16  H   UNK N   1      -1.574  -0.804  -0.000  0.00  0.00     0.174 HD
ENDROOT
TORSDOF 0
