REMARK  23 active torsions:
REMARK  status: ('A' for Active; 'I' for Inactive)
REMARK    1  A    between atoms: C_1  and  C_3 
REMARK    2  A    between atoms: O_8  and  C_1 
REMARK    3  A    between atoms: C_3  and  C_4 
REMARK    4  A    between atoms: C_3  and  N_5 
REMARK    5  A    between atoms: C_4  and  C_10 
REMARK    6  A    between atoms: C_10  and  C_11 
REMARK    7  A    between atoms: C_11  and  C_12 
REMARK    8  A    between atoms: C_12  and  N_13 
REMARK       I    between atoms: N_13  and  C_14 
REMARK    9  A    between atoms: C_14  and  C_16 
REMARK   10  A    between atoms: C_16  and  N_17 
REMARK   11  A    between atoms: C_16  and  C_18 
REMARK       I    between atoms: N_17  and  C_19 
REMARK   12  A    between atoms: C_19  and  C_21 
REMARK   13  A    between atoms: C_21  and  C_22 
REMARK   14  A    between atoms: C_30  and  C_32 
REMARK   15  A    between atoms: C_32  and  O_33 
REMARK   16  A    between atoms: C_37  and  C_39 
REMARK   17  A    between atoms: O_44  and  C_37 
REMARK   18  A    between atoms: C_39  and  C_40 
REMARK   19  A    between atoms: C_39  and  N_41 
REMARK   20  A    between atoms: C_40  and  C_46 
REMARK   21  A    between atoms: C_46  and  C_47 
REMARK   22  A    between atoms: C_47  and  C_48 
REMARK   23  A    between atoms: C_48  and  N_49 
ROOT
HETATM    1  C   UNK N   1      14.621  -7.209  -0.369  0.00  0.00     0.280 C 
ENDROOT
BRANCH   1   2
HETATM    2  C   UNK N   1      15.723  -6.339   0.165  0.00  0.00     0.171 C 
HETATM    3  O   UNK N   1      15.492  -5.171   0.432  0.00  0.00    -0.648 OA
BRANCH   2   4
HETATM    4  O   UNK N   1      16.962  -6.833   0.357  0.00  0.00    -0.775 OA
HETATM    5  H   UNK N   1      17.096  -7.751   0.491  0.00  0.00     0.167 HD
ENDBRANCH   2   4
ENDBRANCH   1   2
BRANCH   1   6
HETATM    6  C   UNK N   1      15.041  -8.657  -0.580  0.00  0.00     0.044 C 
BRANCH   6   7
HETATM    7  C   UNK N   1      14.848  -9.453   0.700  0.00  0.00     0.004 C 
BRANCH   7   8
HETATM    8  C   UNK N   1      14.744 -10.936   0.385  0.00  0.00     0.019 C 
BRANCH   8   9
HETATM    9  C   UNK N   1      13.462 -11.229  -0.375  0.00  0.00     0.111 C 
BRANCH   9  10
HETATM   10  N   UNK N   1      13.398 -12.642  -0.699  0.00  0.00    -0.430 N 
HETATM   11  H   UNK N   1      12.516 -13.100  -0.927  0.00  0.00     0.149 HD
HETATM   12  H   UNK N   1      14.258 -13.191  -0.699  0.00  0.00     0.149 HD
ENDBRANCH   9  10
ENDBRANCH   8   9
ENDBRANCH   7   8
ENDBRANCH   6   7
ENDBRANCH   1   6
BRANCH   1  13
HETATM   13  N   UNK N   1      14.112  -6.662  -1.616  0.00  0.00    -0.065 N 
HETATM   14  H   UNK N   1      13.206  -7.145  -1.817  0.00  0.00     0.275 HD
ATOM     15  HN2 UNK N   1      14.029  -5.645  -1.602  1.00  0.00     0.275 HD
ATOM     16  HN1 UNK N   1      14.780  -6.728  -2.383  1.00  0.00     0.275 HD
ENDBRANCH   1  13
TORSDOF 23
