REMARK  5 active torsions:
REMARK  status: ('A' for Active; 'I' for Inactive)
REMARK    1  A    between atoms: C_4  and  C_7 
REMARK    2  A    between atoms: C_16  and  C_7 
REMARK    3  A    between atoms: C_9  and  C_10 
REMARK    4  A    between atoms: C_10  and  C_14 
REMARK    5  A    between atoms: C_14  and  N_11 
ROOT
HETATM    1  C   UNK N   1       0.349  -0.692  -0.533  0.00  0.00     0.021 A 
HETATM    2  C   UNK N   1       1.543  -0.021  -0.271  0.00  0.00    -0.001 A 
HETATM    3  C   UNK N   1       0.399   2.002   0.360  0.00  0.00     0.031 A 
HETATM    4  C   UNK N   1      -0.855   0.012  -0.339  0.00  0.00    -0.055 A 
HETATM    5  C   UNK N   1      -0.824   1.360   0.096  0.00  0.00     0.009 A 
HETATM    6  C   UNK N   1       1.566   1.273   0.161  0.00  0.00     0.043 A 
HETATM    7  C   UNK N   1       3.632   0.669  -0.027  0.00  0.00     0.096 A 
HETATM    8  C   UNK N   1       2.848  -0.419  -0.397  0.00  0.00    -0.029 A 
HETATM    9  N   UNK N   1       2.829   1.708   0.322  0.00  0.00    -0.365 N 
HETATM   10  H   UNK N   1       3.114   2.599   0.630  0.00  0.00     0.165 HD
ENDROOT
BRANCH   4  11
HETATM   11  C   UNK N   1      -2.155  -0.652  -0.669  0.00  0.00     0.066 C 
BRANCH  11  12
HETATM   12  C   UNK N   1      -3.136  -0.713   0.499  0.00  0.00     0.115 A 
HETATM   13  N   UNK N   1      -4.321  -1.400   0.061  0.00  0.00    -0.330 N 
HETATM   14  C   UNK N   1      -5.344  -0.557   0.094  0.00  0.00     0.361 A 
HETATM   15  H   UNK N   1      -4.365  -2.343  -0.219  0.00  0.00     0.165 HD
HETATM   16  O   UNK N   1      -6.474  -0.869  -0.250  0.00  0.00    -0.239 OA
HETATM   17  O   UNK N   1      -5.024   0.659   0.523  0.00  0.00    -0.302 OA
HETATM   18  C   UNK N   1      -3.680   0.708   0.839  0.00  0.00     0.206 A 
ENDBRANCH  11  12
ENDBRANCH   4  11
BRANCH   8  19
HETATM   19  C   UNK N   1       3.322  -1.733  -0.921  0.00  0.00     0.071 C 
BRANCH  19  20
HETATM   20  C   UNK N   1       4.269  -2.469   0.028  0.00  0.00     0.276 C 
BRANCH  20  21
HETATM   21  N   UNK N   1       3.702  -3.685   0.624  0.00  0.00     0.080 N 
HETATM   22  C   UNK N   1       2.830  -4.400  -0.301  0.00  0.00     0.309 C 
HETATM   23  C   UNK N   1       4.827  -4.571   0.869  0.00  0.00     0.309 C 
ENDBRANCH  20  21
ENDBRANCH  19  20
ENDBRANCH   8  19
TORSDOF 5
