REMARK  7 active torsions:
REMARK  status: ('A' for Active; 'I' for Inactive)
REMARK    1  A    between atoms: O_2  and  C_16 
REMARK    2  A    between atoms: O_2  and  C_17 
REMARK    3  A    between atoms: N_5  and  C_13 
REMARK    4  A    between atoms: N_5  and  C_21 
REMARK    5  A    between atoms: C_9  and  C_10 
REMARK    6  A    between atoms: C_10  and  C_11 
REMARK    7  A    between atoms: C_13  and  C_16 
ROOT
HETATM    1  C   UNK N   1       6.579   1.520  -0.363  0.00  0.00    -0.056 A 
HETATM    2  C   UNK N   1       6.613   0.239  -0.925  0.00  0.00     0.010 A 
HETATM    3  C   UNK N   1       5.398   1.995   0.215  0.00  0.00     0.010 A 
HETATM    4  C   UNK N   1       4.315  -0.127  -0.284  0.00  0.00     0.068 A 
HETATM    5  C   UNK N   1       5.495  -0.585  -0.867  0.00  0.00     0.037 A 
HETATM    6  C   UNK N   1       4.264   1.177   0.246  0.00  0.00     0.037 A 
ENDROOT
BRANCH   4   7
HETATM    7  O   UNK N   1       3.250  -0.960  -0.260  0.00  0.00    -0.350 OA
BRANCH   7   8
HETATM    8  C   UNK N   1       1.939  -0.546  -0.334  0.00  0.00     0.195 C 
BRANCH   8   9
HETATM    9  C   UNK N   1       1.489   0.305   0.844  0.00  0.00     0.150 C 
BRANCH   9  10
HETATM   10  N   UNK N   1       0.268   0.982   0.476  0.00  0.00    -0.370 N 
HETATM   11  C   UNK N   1       0.305   2.411   0.295  0.00  0.00     0.151 C 
BRANCH  10  12
HETATM   12  C   UNK N   1      -0.936   0.256   0.227  0.00  0.00     0.102 A 
HETATM   13  N   UNK N   1      -2.051   0.909  -0.211  0.00  0.00    -0.352 N 
HETATM   14  C   UNK N   1      -3.211   0.248  -0.472  0.00  0.00     0.089 A 
ATOM     15  HN  UNK N   1      -2.014   1.919  -0.346  1.00  0.00     0.166 HD
HETATM   16  C   UNK N   1      -3.287  -1.135  -0.294  0.00  0.00     0.017 A 
HETATM   17  C   UNK N   1      -2.165  -1.828   0.154  0.00  0.00     0.005 A 
HETATM   18  C   UNK N   1      -0.985  -1.135   0.416  0.00  0.00     0.048 A 
ENDBRANCH  10  12
ENDBRANCH   9  10
ENDBRANCH   8   9
ENDBRANCH   7   8
ENDBRANCH   4   7
BRANCH   1  19
HETATM   19  C   UNK N   1       7.812   2.360  -0.383  0.00  0.00     0.063 C 
BRANCH  19  20
HETATM   20  C   UNK N   1       8.877   1.951   0.655  0.00  0.00     0.153 C 
HETATM   21  S   UNK N   1       8.954   0.130   1.000  0.00  0.00    -0.054 SA
HETATM   22  C   UNK N   1      10.526   0.085   0.170  0.00  0.00     0.287 C 
HETATM   23  O   UNK N   1      11.117  -0.958  -0.058  0.00  0.00    -0.260 OA
HETATM   24  N   UNK N   1      11.038   1.270  -0.179  0.00  0.00    -0.287 N 
HETATM   25  C   UNK N   1      10.220   2.297   0.090  0.00  0.00     0.239 C 
HETATM   26  H   UNK N   1      11.925   1.377  -0.592  0.00  0.00     0.172 HD
HETATM   27  O   UNK N   1      10.548   3.447  -0.159  0.00  0.00    -0.272 OA
ENDBRANCH  19  20
ENDBRANCH   1  19
TORSDOF 7
