MODEL 1
REMARK VINA RESULT:      -7.1      0.000      0.000
REMARK  7 active torsions:
REMARK  status: ('A' for Active; 'I' for Inactive)
REMARK    1  A    between atoms: O_2  and  C_16 
REMARK    2  A    between atoms: O_2  and  C_17 
REMARK    3  A    between atoms: N_5  and  C_13 
REMARK    4  A    between atoms: N_5  and  C_21 
REMARK    5  A    between atoms: C_9  and  C_10 
REMARK    6  A    between atoms: C_10  and  C_11 
REMARK    7  A    between atoms: C_13  and  C_16 
ROOT
HETATM    1  C   UNK N   1      35.146  12.510  17.359  0.00  0.00    -0.056 A 
HETATM    2  C   UNK N   1      35.368  11.129  17.339  0.00  0.00     0.010 A 
HETATM    3  C   UNK N   1      35.167  13.201  18.574  0.00  0.00     0.010 A 
HETATM    4  C   UNK N   1      35.695  11.125  19.731  0.00  0.00     0.068 A 
HETATM    5  C   UNK N   1      35.661  10.446  18.514  0.00  0.00     0.037 A 
HETATM    6  C   UNK N   1      35.431  12.508  19.760  0.00  0.00     0.037 A 
ENDROOT
BRANCH   4   7
HETATM    7  O   UNK N   1      35.973  10.417  20.849  0.00  0.00    -0.350 OA
BRANCH   7   8
HETATM    8  C   UNK N   1      35.457   9.172  21.128  0.00  0.00     0.195 C 
BRANCH   8   9
HETATM    9  C   UNK N   1      34.693   9.096  22.441  0.00  0.00     0.150 C 
BRANCH   9  10
HETATM   10  N   UNK N   1      33.309   9.414  22.181  0.00  0.00    -0.370 N 
HETATM   11  C   UNK N   1      32.853  10.755  22.444  0.00  0.00     0.151 C 
BRANCH  10  12
HETATM   12  C   UNK N   1      32.421   8.452  21.611  0.00  0.00     0.102 A 
HETATM   13  N   UNK N   1      32.320   7.206  22.158  0.00  0.00    -0.352 N 
HETATM   14  C   UNK N   1      31.475   6.268  21.651  0.00  0.00     0.089 A 
ATOM     15  HN  UNK N   1      32.894   6.971  22.968  1.00  0.00     0.166 HD
HETATM   16  C   UNK N   1      30.680   6.565  20.542  0.00  0.00     0.017 A 
HETATM   17  C   UNK N   1      30.763   7.829  19.961  0.00  0.00     0.005 A 
HETATM   18  C   UNK N   1      31.634   8.777  20.494  0.00  0.00     0.048 A 
ENDBRANCH  10  12
ENDBRANCH   9  10
ENDBRANCH   8   9
ENDBRANCH   7   8
ENDBRANCH   4   7
BRANCH   1  19
HETATM   19  C   UNK N   1      34.897  13.229  16.075  0.00  0.00     0.063 C 
BRANCH  19  20
HETATM   20  C   UNK N   1      35.973  12.994  14.996  0.00  0.00     0.153 C 
HETATM   21  S   UNK N   1      35.300  12.650  13.302  0.00  0.00    -0.054 SA
HETATM   22  C   UNK N   1      35.904  14.241  12.788  0.00  0.00     0.287 C 
HETATM   23  O   UNK N   1      35.663  14.710  11.687  0.00  0.00    -0.260 OA
HETATM   24  N   UNK N   1      36.658  14.896  13.676  0.00  0.00    -0.287 N 
HETATM   25  C   UNK N   1      36.759  14.261  14.852  0.00  0.00     0.239 C 
HETATM   26  H   UNK N   1      37.095  15.758  13.487  0.00  0.00     0.172 HD
HETATM   27  O   UNK N   1      37.424  14.725  15.766  0.00  0.00    -0.272 OA
ENDBRANCH  19  20
ENDBRANCH   1  19
TORSDOF 7
ENDMDL
MODEL 2
REMARK VINA RESULT:      -7.0     28.435     30.235
REMARK  7 active torsions:
REMARK  status: ('A' for Active; 'I' for Inactive)
REMARK    1  A    between atoms: O_2  and  C_16 
REMARK    2  A    between atoms: O_2  and  C_17 
REMARK    3  A    between atoms: N_5  and  C_13 
REMARK    4  A    between atoms: N_5  and  C_21 
REMARK    5  A    between atoms: C_9  and  C_10 
REMARK    6  A    between atoms: C_10  and  C_11 
REMARK    7  A    between atoms: C_13  and  C_16 
ROOT
HETATM    1  C   UNK N   1      25.768  25.040  -5.156  0.00  0.00    -0.056 A 
HETATM    2  C   UNK N   1      25.129  26.136  -5.747  0.00  0.00     0.010 A 
HETATM    3  C   UNK N   1      26.468  25.207  -3.957  0.00  0.00     0.010 A 
HETATM    4  C   UNK N   1      25.828  27.555  -3.924  0.00  0.00     0.068 A 
HETATM    5  C   UNK N   1      25.142  27.379  -5.124  0.00  0.00     0.037 A 
HETATM    6  C   UNK N   1      26.507  26.465  -3.346  0.00  0.00     0.037 A 
ENDROOT
BRANCH   4   7
HETATM    7  O   UNK N   1      25.822  28.784  -3.360  0.00  0.00    -0.350 OA
BRANCH   7   8
HETATM    8  C   UNK N   1      26.955  29.495  -3.035  0.00  0.00     0.195 C 
BRANCH   8   9
HETATM    9  C   UNK N   1      27.399  30.481  -4.106  0.00  0.00     0.150 C 
BRANCH   9  10
HETATM   10  N   UNK N   1      28.618  29.988  -4.701  0.00  0.00    -0.370 N 
HETATM   11  C   UNK N   1      29.860  30.628  -4.347  0.00  0.00     0.151 C 
BRANCH  10  12
HETATM   12  C   UNK N   1      28.615  28.852  -5.566  0.00  0.00     0.102 A 
HETATM   13  N   UNK N   1      29.264  27.710  -5.198  0.00  0.00    -0.352 N 
HETATM   14  C   UNK N   1      29.270  26.603  -5.989  0.00  0.00     0.089 A 
ATOM     15  HN  UNK N   1      29.758  27.684  -4.306  1.00  0.00     0.166 HD
HETATM   16  C   UNK N   1      28.602  26.613  -7.216  0.00  0.00     0.017 A 
HETATM   17  C   UNK N   1      27.932  27.766  -7.618  0.00  0.00     0.005 A 
HETATM   18  C   UNK N   1      27.936  28.890  -6.795  0.00  0.00     0.048 A 
ENDBRANCH  10  12
ENDBRANCH   9  10
ENDBRANCH   8   9
ENDBRANCH   7   8
ENDBRANCH   4   7
BRANCH   1  19
HETATM   19  C   UNK N   1      25.685  23.704  -5.813  0.00  0.00     0.063 C 
BRANCH  19  20
HETATM   20  C   UNK N   1      26.392  23.623  -7.182  0.00  0.00     0.153 C 
HETATM   21  S   UNK N   1      28.053  22.799  -7.141  0.00  0.00    -0.054 SA
HETATM   22  C   UNK N   1      27.347  21.432  -8.032  0.00  0.00     0.287 C 
HETATM   23  O   UNK N   1      27.966  20.403  -8.251  0.00  0.00    -0.260 OA
HETATM   24  N   UNK N   1      26.095  21.602  -8.469  0.00  0.00    -0.287 N 
HETATM   25  C   UNK N   1      25.554  22.764  -8.077  0.00  0.00     0.239 C 
HETATM   26  H   UNK N   1      25.619  20.941  -9.021  0.00  0.00     0.172 HD
HETATM   27  O   UNK N   1      24.418  23.073  -8.405  0.00  0.00    -0.272 OA
ENDBRANCH  19  20
ENDBRANCH   1  19
TORSDOF 7
ENDMDL
MODEL 3
REMARK VINA RESULT:      -6.6      1.507      2.202
REMARK  7 active torsions:
REMARK  status: ('A' for Active; 'I' for Inactive)
REMARK    1  A    between atoms: O_2  and  C_16 
REMARK    2  A    between atoms: O_2  and  C_17 
REMARK    3  A    between atoms: N_5  and  C_13 
REMARK    4  A    between atoms: N_5  and  C_21 
REMARK    5  A    between atoms: C_9  and  C_10 
REMARK    6  A    between atoms: C_10  and  C_11 
REMARK    7  A    between atoms: C_13  and  C_16 
ROOT
HETATM    1  C   UNK N   1      35.160  12.518  17.391  0.00  0.00    -0.056 A 
HETATM    2  C   UNK N   1      35.439  11.147  17.383  0.00  0.00     0.010 A 
HETATM    3  C   UNK N   1      35.132  13.215  18.602  0.00  0.00     0.010 A 
HETATM    4  C   UNK N   1      35.724  11.168  19.779  0.00  0.00     0.068 A 
HETATM    5  C   UNK N   1      35.739  10.482  18.566  0.00  0.00     0.037 A 
HETATM    6  C   UNK N   1      35.404  12.539  19.797  0.00  0.00     0.037 A 
ENDROOT
BRANCH   4   7
HETATM    7  O   UNK N   1      36.012  10.478  20.906  0.00  0.00    -0.350 OA
BRANCH   7   8
HETATM    8  C   UNK N   1      36.667   9.267  20.928  0.00  0.00     0.195 C 
BRANCH   8   9
HETATM    9  C   UNK N   1      36.110   8.278  21.941  0.00  0.00     0.150 C 
BRANCH   9  10
HETATM   10  N   UNK N   1      34.683   8.179  21.743  0.00  0.00    -0.370 N 
HETATM   11  C   UNK N   1      34.199   7.442  20.603  0.00  0.00     0.151 C 
BRANCH  10  12
HETATM   12  C   UNK N   1      33.764   8.735  22.684  0.00  0.00     0.102 A 
HETATM   13  N   UNK N   1      33.887  10.036  23.075  0.00  0.00    -0.352 N 
HETATM   14  C   UNK N   1      33.022  10.603  23.958  0.00  0.00     0.089 A 
ATOM     15  HN  UNK N   1      34.648  10.599  22.695  1.00  0.00     0.166 HD
HETATM   16  C   UNK N   1      31.972   9.853  24.492  0.00  0.00     0.017 A 
HETATM   17  C   UNK N   1      31.822   8.521  24.113  0.00  0.00     0.005 A 
HETATM   18  C   UNK N   1      32.718   7.957  23.207  0.00  0.00     0.048 A 
ENDBRANCH  10  12
ENDBRANCH   9  10
ENDBRANCH   8   9
ENDBRANCH   7   8
ENDBRANCH   4   7
BRANCH   1  19
HETATM   19  C   UNK N   1      34.904  13.220  16.099  0.00  0.00     0.063 C 
BRANCH  19  20
HETATM   20  C   UNK N   1      35.984  12.986  15.023  0.00  0.00     0.153 C 
HETATM   21  S   UNK N   1      35.317  12.675  13.320  0.00  0.00    -0.054 SA
HETATM   22  C   UNK N   1      35.946  14.266  12.833  0.00  0.00     0.287 C 
HETATM   23  O   UNK N   1      35.719  14.753  11.738  0.00  0.00    -0.260 OA
HETATM   24  N   UNK N   1      36.703  14.898  13.736  0.00  0.00    -0.287 N 
HETATM   25  C   UNK N   1      36.787  14.244  14.903  0.00  0.00     0.239 C 
HETATM   26  H   UNK N   1      37.153  15.756  13.562  0.00  0.00     0.172 HD
HETATM   27  O   UNK N   1      37.453  14.685  15.827  0.00  0.00    -0.272 OA
ENDBRANCH  19  20
ENDBRANCH   1  19
TORSDOF 7
ENDMDL
MODEL 4
REMARK VINA RESULT:      -6.6     27.707     29.859
REMARK  7 active torsions:
REMARK  status: ('A' for Active; 'I' for Inactive)
REMARK    1  A    between atoms: O_2  and  C_16 
REMARK    2  A    between atoms: O_2  and  C_17 
REMARK    3  A    between atoms: N_5  and  C_13 
REMARK    4  A    between atoms: N_5  and  C_21 
REMARK    5  A    between atoms: C_9  and  C_10 
REMARK    6  A    between atoms: C_10  and  C_11 
REMARK    7  A    between atoms: C_13  and  C_16 
ROOT
HETATM    1  C   UNK N   1      27.134  28.108  -6.215  0.00  0.00    -0.056 A 
HETATM    2  C   UNK N   1      27.954  27.885  -7.327  0.00  0.00     0.010 A 
HETATM    3  C   UNK N   1      25.921  27.423  -6.096  0.00  0.00     0.010 A 
HETATM    4  C   UNK N   1      26.394  26.251  -8.176  0.00  0.00     0.068 A 
HETATM    5  C   UNK N   1      27.595  26.948  -8.289  0.00  0.00     0.037 A 
HETATM    6  C   UNK N   1      25.546  26.502  -7.080  0.00  0.00     0.037 A 
ENDROOT
BRANCH   4   7
HETATM    7  O   UNK N   1      26.082  25.357  -9.142  0.00  0.00    -0.350 OA
BRANCH   7   8
HETATM    8  C   UNK N   1      26.689  24.130  -9.289  0.00  0.00     0.195 C 
BRANCH   8   9
HETATM    9  C   UNK N   1      26.117  23.043  -8.391  0.00  0.00     0.150 C 
BRANCH   9  10
HETATM   10  N   UNK N   1      27.102  22.717  -7.387  0.00  0.00    -0.370 N 
HETATM   11  C   UNK N   1      28.049  21.668  -7.672  0.00  0.00     0.151 C 
BRANCH  10  12
HETATM   12  C   UNK N   1      27.190  23.454  -6.168  0.00  0.00     0.102 A 
HETATM   13  N   UNK N   1      26.110  23.536  -5.338  0.00  0.00    -0.352 N 
HETATM   14  C   UNK N   1      26.162  24.217  -4.162  0.00  0.00     0.089 A 
ATOM     15  HN  UNK N   1      25.241  23.074  -5.607  1.00  0.00     0.166 HD
HETATM   16  C   UNK N   1      27.339  24.858  -3.772  0.00  0.00     0.017 A 
HETATM   17  C   UNK N   1      28.458  24.793  -4.600  0.00  0.00     0.005 A 
HETATM   18  C   UNK N   1      28.387  24.091  -5.801  0.00  0.00     0.048 A 
ENDBRANCH  10  12
ENDBRANCH   9  10
ENDBRANCH   8   9
ENDBRANCH   7   8
ENDBRANCH   4   7
BRANCH   1  19
HETATM   19  C   UNK N   1      27.573  29.073  -5.165  0.00  0.00     0.063 C 
BRANCH  19  20
HETATM   20  C   UNK N   1      28.186  28.415  -3.912  0.00  0.00     0.153 C 
HETATM   21  S   UNK N   1      29.791  29.162  -3.359  0.00  0.00    -0.054 SA
HETATM   22  C   UNK N   1      28.946  29.816  -1.938  0.00  0.00     0.287 C 
HETATM   23  O   UNK N   1      29.483  30.576  -1.148  0.00  0.00    -0.260 OA
HETATM   24  N   UNK N   1      27.681  29.413  -1.772  0.00  0.00    -0.287 N 
HETATM   25  C   UNK N   1      27.240  28.637  -2.772  0.00  0.00     0.239 C 
HETATM   26  H   UNK N   1      27.131  29.662  -0.995  0.00  0.00     0.172 HD
HETATM   27  O   UNK N   1      26.108  28.178  -2.762  0.00  0.00    -0.272 OA
ENDBRANCH  19  20
ENDBRANCH   1  19
TORSDOF 7
ENDMDL
MODEL 5
REMARK VINA RESULT:      -6.6     15.068     19.265
REMARK  7 active torsions:
REMARK  status: ('A' for Active; 'I' for Inactive)
REMARK    1  A    between atoms: O_2  and  C_16 
REMARK    2  A    between atoms: O_2  and  C_17 
REMARK    3  A    between atoms: N_5  and  C_13 
REMARK    4  A    between atoms: N_5  and  C_21 
REMARK    5  A    between atoms: C_9  and  C_10 
REMARK    6  A    between atoms: C_10  and  C_11 
REMARK    7  A    between atoms: C_13  and  C_16 
ROOT
HETATM    1  C   UNK N   1      20.950  15.051   8.366  0.00  0.00    -0.056 A 
HETATM    2  C   UNK N   1      20.670  16.419   8.293  0.00  0.00     0.010 A 
HETATM    3  C   UNK N   1      21.074  14.302   7.191  0.00  0.00     0.010 A 
HETATM    4  C   UNK N   1      20.695  16.319   5.882  0.00  0.00     0.068 A 
HETATM    5  C   UNK N   1      20.564  17.052   7.060  0.00  0.00     0.037 A 
HETATM    6  C   UNK N   1      20.936  14.933   5.951  0.00  0.00     0.037 A 
ENDROOT
BRANCH   4   7
HETATM    7  O   UNK N   1      20.573  16.975   4.706  0.00  0.00    -0.350 OA
BRANCH   7   8
HETATM    8  C   UNK N   1      21.581  17.093   3.775  0.00  0.00     0.195 C 
BRANCH   8   9
HETATM    9  C   UNK N   1      22.499  18.285   4.001  0.00  0.00     0.150 C 
BRANCH   9  10
HETATM   10  N   UNK N   1      23.858  17.805   4.076  0.00  0.00    -0.370 N 
HETATM   11  C   UNK N   1      24.096  16.394   3.906  0.00  0.00     0.151 C 
BRANCH  10  12
HETATM   12  C   UNK N   1      24.954  18.705   4.244  0.00  0.00     0.102 A 
HETATM   13  N   UNK N   1      25.641  18.734   5.422  0.00  0.00    -0.352 N 
HETATM   14  C   UNK N   1      26.699  19.568   5.612  0.00  0.00     0.089 A 
ATOM     15  HN  UNK N   1      25.355  18.115   6.180  1.00  0.00     0.166 HD
HETATM   16  C   UNK N   1      27.111  20.426   4.590  0.00  0.00     0.017 A 
HETATM   17  C   UNK N   1      26.427  20.419   3.377  0.00  0.00     0.005 A 
HETATM   18  C   UNK N   1      25.346  19.558   3.199  0.00  0.00     0.048 A 
ENDBRANCH  10  12
ENDBRANCH   9  10
ENDBRANCH   8   9
ENDBRANCH   7   8
ENDBRANCH   4   7
BRANCH   1  19
HETATM   19  C   UNK N   1      21.122  14.409   9.702  0.00  0.00     0.063 C 
BRANCH  19  20
HETATM   20  C   UNK N   1      21.635  12.956   9.649  0.00  0.00     0.153 C 
HETATM   21  S   UNK N   1      23.482  12.794   9.599  0.00  0.00    -0.054 SA
HETATM   22  C   UNK N   1      23.425  12.142  11.252  0.00  0.00     0.287 C 
HETATM   23  O   UNK N   1      24.432  11.910  11.900  0.00  0.00    -0.260 OA
HETATM   24  N   UNK N   1      22.205  11.901  11.744  0.00  0.00    -0.287 N 
HETATM   25  C   UNK N   1      21.220  12.279  10.919  0.00  0.00     0.239 C 
HETATM   26  H   UNK N   1      22.047  11.488  12.624  0.00  0.00     0.172 HD
HETATM   27  O   UNK N   1      20.047  12.115  11.219  0.00  0.00    -0.272 OA
ENDBRANCH  19  20
ENDBRANCH   1  19
TORSDOF 7
ENDMDL
MODEL 6
REMARK VINA RESULT:      -6.6     10.907     15.193
REMARK  7 active torsions:
REMARK  status: ('A' for Active; 'I' for Inactive)
REMARK    1  A    between atoms: O_2  and  C_16 
REMARK    2  A    between atoms: O_2  and  C_17 
REMARK    3  A    between atoms: N_5  and  C_13 
REMARK    4  A    between atoms: N_5  and  C_21 
REMARK    5  A    between atoms: C_9  and  C_10 
REMARK    6  A    between atoms: C_10  and  C_11 
REMARK    7  A    between atoms: C_13  and  C_16 
ROOT
HETATM    1  C   UNK N   1      32.752  16.964   5.778  0.00  0.00    -0.056 A 
HETATM    2  C   UNK N   1      32.951  17.165   4.407  0.00  0.00     0.010 A 
HETATM    3  C   UNK N   1      31.467  16.699   6.262  0.00  0.00     0.010 A 
HETATM    4  C   UNK N   1      30.606  16.778   3.987  0.00  0.00     0.068 A 
HETATM    5  C   UNK N   1      31.889  17.052   3.518  0.00  0.00     0.037 A 
HETATM    6  C   UNK N   1      30.394  16.616   5.370  0.00  0.00     0.037 A 
ENDROOT
BRANCH   4   7
HETATM    7  O   UNK N   1      29.603  16.688   3.085  0.00  0.00    -0.350 OA
BRANCH   7   8
HETATM    8  C   UNK N   1      28.296  16.392   3.404  0.00  0.00     0.195 C 
BRANCH   8   9
HETATM    9  C   UNK N   1      27.419  17.615   3.626  0.00  0.00     0.150 C 
BRANCH   9  10
HETATM   10  N   UNK N   1      26.650  17.411   4.831  0.00  0.00    -0.370 N 
HETATM   11  C   UNK N   1      25.343  16.815   4.716  0.00  0.00     0.151 C 
BRANCH  10  12
HETATM   12  C   UNK N   1      27.188  17.723   6.116  0.00  0.00     0.102 A 
HETATM   13  N   UNK N   1      27.200  16.779   7.101  0.00  0.00    -0.352 N 
HETATM   14  C   UNK N   1      27.718  17.037   8.333  0.00  0.00     0.089 A 
ATOM     15  HN  UNK N   1      26.811  15.857   6.909  1.00  0.00     0.166 HD
HETATM   16  C   UNK N   1      28.256  18.293   8.620  0.00  0.00     0.017 A 
HETATM   17  C   UNK N   1      28.256  19.277   7.634  0.00  0.00     0.005 A 
HETATM   18  C   UNK N   1      27.722  18.996   6.378  0.00  0.00     0.048 A 
ENDBRANCH  10  12
ENDBRANCH   9  10
ENDBRANCH   8   9
ENDBRANCH   7   8
ENDBRANCH   4   7
BRANCH   1  19
HETATM   19  C   UNK N   1      33.920  17.029   6.704  0.00  0.00     0.063 C 
BRANCH  19  20
HETATM   20  C   UNK N   1      33.551  17.314   8.174  0.00  0.00     0.153 C 
HETATM   21  S   UNK N   1      33.354  15.798   9.225  0.00  0.00    -0.054 SA
HETATM   22  C   UNK N   1      34.848  16.250  10.077  0.00  0.00     0.287 C 
HETATM   23  O   UNK N   1      35.373  15.526  10.907  0.00  0.00    -0.260 OA
HETATM   24  N   UNK N   1      35.359  17.447   9.768  0.00  0.00    -0.287 N 
HETATM   25  C   UNK N   1      34.687  18.070   8.790  0.00  0.00     0.239 C 
HETATM   26  H   UNK N   1      36.149  17.830  10.213  0.00  0.00     0.172 HD
HETATM   27  O   UNK N   1      35.022  19.178   8.402  0.00  0.00    -0.272 OA
ENDBRANCH  19  20
ENDBRANCH   1  19
TORSDOF 7
ENDMDL
MODEL 7
REMARK VINA RESULT:      -6.5     15.648     19.858
REMARK  7 active torsions:
REMARK  status: ('A' for Active; 'I' for Inactive)
REMARK    1  A    between atoms: O_2  and  C_16 
REMARK    2  A    between atoms: O_2  and  C_17 
REMARK    3  A    between atoms: N_5  and  C_13 
REMARK    4  A    between atoms: N_5  and  C_21 
REMARK    5  A    between atoms: C_9  and  C_10 
REMARK    6  A    between atoms: C_10  and  C_11 
REMARK    7  A    between atoms: C_13  and  C_16 
ROOT
HETATM    1  C   UNK N   1      21.501  15.006   7.861  0.00  0.00    -0.056 A 
HETATM    2  C   UNK N   1      20.234  15.266   7.327  0.00  0.00     0.010 A 
HETATM    3  C   UNK N   1      22.641  15.212   7.078  0.00  0.00     0.010 A 
HETATM    4  C   UNK N   1      21.233  15.996   5.254  0.00  0.00     0.068 A 
HETATM    5  C   UNK N   1      20.103  15.777   6.041  0.00  0.00     0.037 A 
HETATM    6  C   UNK N   1      22.508  15.697   5.773  0.00  0.00     0.037 A 
ENDROOT
BRANCH   4   7
HETATM    7  O   UNK N   1      21.056  16.484   4.005  0.00  0.00    -0.350 OA
BRANCH   7   8
HETATM    8  C   UNK N   1      20.553  17.734   3.725  0.00  0.00     0.195 C 
BRANCH   8   9
HETATM    9  C   UNK N   1      21.249  18.865   4.466  0.00  0.00     0.150 C 
BRANCH   9  10
HETATM   10  N   UNK N   1      22.010  19.635   3.510  0.00  0.00    -0.370 N 
HETATM   11  C   UNK N   1      21.295  20.461   2.572  0.00  0.00     0.151 C 
BRANCH  10  12
HETATM   12  C   UNK N   1      23.438  19.639   3.530  0.00  0.00     0.102 A 
HETATM   13  N   UNK N   1      24.132  20.484   2.714  0.00  0.00    -0.352 N 
HETATM   14  C   UNK N   1      25.492  20.525   2.717  0.00  0.00     0.089 A 
ATOM     15  HN  UNK N   1      23.618  21.101   2.086  1.00  0.00     0.166 HD
HETATM   16  C   UNK N   1      26.218  19.689   3.568  0.00  0.00     0.017 A 
HETATM   17  C   UNK N   1      25.537  18.815   4.410  0.00  0.00     0.005 A 
HETATM   18  C   UNK N   1      24.144  18.786   4.395  0.00  0.00     0.048 A 
ENDBRANCH  10  12
ENDBRANCH   9  10
ENDBRANCH   8   9
ENDBRANCH   7   8
ENDBRANCH   4   7
BRANCH   1  19
HETATM   19  C   UNK N   1      21.616  14.518   9.266  0.00  0.00     0.063 C 
BRANCH  19  20
HETATM   20  C   UNK N   1      21.916  13.011   9.393  0.00  0.00     0.153 C 
HETATM   21  S   UNK N   1      23.718  12.597   9.551  0.00  0.00    -0.054 SA
HETATM   22  C   UNK N   1      23.416  12.128  11.240  0.00  0.00     0.287 C 
HETATM   23  O   UNK N   1      24.316  11.829  12.008  0.00  0.00    -0.260 OA
HETATM   24  N   UNK N   1      22.134  12.105  11.621  0.00  0.00    -0.287 N 
HETATM   25  C   UNK N   1      21.293  12.528  10.667  0.00  0.00     0.239 C 
HETATM   26  H   UNK N   1      21.838  11.808  12.511  0.00  0.00     0.172 HD
HETATM   27  O   UNK N   1      20.087  12.556  10.855  0.00  0.00    -0.272 OA
ENDBRANCH  19  20
ENDBRANCH   1  19
TORSDOF 7
ENDMDL
MODEL 8
REMARK VINA RESULT:      -6.3      3.969      5.987
REMARK  7 active torsions:
REMARK  status: ('A' for Active; 'I' for Inactive)
REMARK    1  A    between atoms: O_2  and  C_16 
REMARK    2  A    between atoms: O_2  and  C_17 
REMARK    3  A    between atoms: N_5  and  C_13 
REMARK    4  A    between atoms: N_5  and  C_21 
REMARK    5  A    between atoms: C_9  and  C_10 
REMARK    6  A    between atoms: C_10  and  C_11 
REMARK    7  A    between atoms: C_13  and  C_16 
ROOT
HETATM    1  C   UNK N   1      35.262  12.452  17.407  0.00  0.00    -0.056 A 
HETATM    2  C   UNK N   1      35.665  11.113  17.342  0.00  0.00     0.010 A 
HETATM    3  C   UNK N   1      35.144  13.083  18.649  0.00  0.00     0.010 A 
HETATM    4  C   UNK N   1      35.895  11.043  19.744  0.00  0.00     0.068 A 
HETATM    5  C   UNK N   1      35.999  10.421  18.500  0.00  0.00     0.037 A 
HETATM    6  C   UNK N   1      35.451  12.377  19.817  0.00  0.00     0.037 A 
ENDROOT
BRANCH   4   7
HETATM    7  O   UNK N   1      36.220  10.327  20.844  0.00  0.00    -0.350 OA
BRANCH   7   8
HETATM    8  C   UNK N   1      37.498   9.919  21.155  0.00  0.00     0.195 C 
BRANCH   8   9
HETATM    9  C   UNK N   1      38.112  10.649  22.340  0.00  0.00     0.150 C 
BRANCH   9  10
HETATM   10  N   UNK N   1      39.546  10.500  22.273  0.00  0.00    -0.370 N 
HETATM   11  C   UNK N   1      40.084   9.349  21.593  0.00  0.00     0.151 C 
BRANCH  10  12
HETATM   12  C   UNK N   1      40.421  11.496  22.803  0.00  0.00     0.102 A 
HETATM   13  N   UNK N   1      41.596  11.782  22.171  0.00  0.00    -0.352 N 
HETATM   14  C   UNK N   1      42.447  12.735  22.639  0.00  0.00     0.089 A 
ATOM     15  HN  UNK N   1      41.843  11.268  21.325  1.00  0.00     0.166 HD
HETATM   16  C   UNK N   1      42.131  13.452  23.795  0.00  0.00     0.017 A 
HETATM   17  C   UNK N   1      40.940  13.180  24.462  0.00  0.00     0.005 A 
HETATM   18  C   UNK N   1      40.080  12.202  23.968  0.00  0.00     0.048 A 
ENDBRANCH  10  12
ENDBRANCH   9  10
ENDBRANCH   8   9
ENDBRANCH   7   8
ENDBRANCH   4   7
BRANCH   1  19
HETATM   19  C   UNK N   1      34.971  13.190  16.143  0.00  0.00     0.063 C 
BRANCH  19  20
HETATM   20  C   UNK N   1      36.031  13.003  15.039  0.00  0.00     0.153 C 
HETATM   21  S   UNK N   1      35.333  12.715  13.345  0.00  0.00    -0.054 SA
HETATM   22  C   UNK N   1      35.916  14.329  12.879  0.00  0.00     0.287 C 
HETATM   23  O   UNK N   1      35.653  14.834  11.800  0.00  0.00    -0.260 OA
HETATM   24  N   UNK N   1      36.679  14.958  13.779  0.00  0.00    -0.287 N 
HETATM   25  C   UNK N   1      36.804  14.281  14.929  0.00  0.00     0.239 C 
HETATM   26  H   UNK N   1      37.106  15.829  13.613  0.00  0.00     0.172 HD
HETATM   27  O   UNK N   1      37.480  14.717  15.848  0.00  0.00    -0.272 OA
ENDBRANCH  19  20
ENDBRANCH   1  19
TORSDOF 7
ENDMDL
MODEL 9
REMARK VINA RESULT:      -6.3     12.137     16.600
REMARK  7 active torsions:
REMARK  status: ('A' for Active; 'I' for Inactive)
REMARK    1  A    between atoms: O_2  and  C_16 
REMARK    2  A    between atoms: O_2  and  C_17 
REMARK    3  A    between atoms: N_5  and  C_13 
REMARK    4  A    between atoms: N_5  and  C_21 
REMARK    5  A    between atoms: C_9  and  C_10 
REMARK    6  A    between atoms: C_10  and  C_11 
REMARK    7  A    between atoms: C_13  and  C_16 
ROOT
HETATM    1  C   UNK N   1      30.020  16.970   6.016  0.00  0.00    -0.056 A 
HETATM    2  C   UNK N   1      29.966  17.559   4.748  0.00  0.00     0.010 A 
HETATM    3  C   UNK N   1      29.203  15.875   6.311  0.00  0.00     0.010 A 
HETATM    4  C   UNK N   1      28.330  15.931   4.039  0.00  0.00     0.068 A 
HETATM    5  C   UNK N   1      29.142  17.030   3.761  0.00  0.00     0.037 A 
HETATM    6  C   UNK N   1      28.352  15.361   5.327  0.00  0.00     0.037 A 
ENDROOT
BRANCH   4   7
HETATM    7  O   UNK N   1      27.538  15.458   3.051  0.00  0.00    -0.350 OA
BRANCH   7   8
HETATM    8  C   UNK N   1      26.315  15.993   2.713  0.00  0.00     0.195 C 
BRANCH   8   9
HETATM    9  C   UNK N   1      25.296  15.977   3.842  0.00  0.00     0.150 C 
BRANCH   9  10
HETATM   10  N   UNK N   1      24.836  17.328   4.059  0.00  0.00    -0.370 N 
HETATM   11  C   UNK N   1      23.425  17.598   3.943  0.00  0.00     0.151 C 
BRANCH  10  12
HETATM   12  C   UNK N   1      25.737  18.364   4.448  0.00  0.00     0.102 A 
HETATM   13  N   UNK N   1      26.278  18.367   5.701  0.00  0.00    -0.352 N 
HETATM   14  C   UNK N   1      27.151  19.331   6.101  0.00  0.00     0.089 A 
ATOM     15  HN  UNK N   1      26.020  17.628   6.354  1.00  0.00     0.166 HD
HETATM   16  C   UNK N   1      27.518  20.354   5.225  0.00  0.00     0.017 A 
HETATM   17  C   UNK N   1      26.980  20.378   3.940  0.00  0.00     0.005 A 
HETATM   18  C   UNK N   1      26.088  19.383   3.547  0.00  0.00     0.048 A 
ENDBRANCH  10  12
ENDBRANCH   9  10
ENDBRANCH   8   9
ENDBRANCH   7   8
ENDBRANCH   4   7
BRANCH   1  19
HETATM   19  C   UNK N   1      30.960  17.519   7.037  0.00  0.00     0.063 C 
BRANCH  19  20
HETATM   20  C   UNK N   1      32.260  16.707   7.207  0.00  0.00     0.153 C 
HETATM   21  S   UNK N   1      33.808  17.640   6.793  0.00  0.00    -0.054 SA
HETATM   22  C   UNK N   1      34.220  17.637   8.523  0.00  0.00     0.287 C 
HETATM   23  O   UNK N   1      35.175  18.251   8.970  0.00  0.00    -0.260 OA
HETATM   24  N   UNK N   1      33.427  16.904   9.312  0.00  0.00    -0.287 N 
HETATM   25  C   UNK N   1      32.392  16.358   8.657  0.00  0.00     0.239 C 
HETATM   26  H   UNK N   1      33.586  16.780  10.275  0.00  0.00     0.172 HD
HETATM   27  O   UNK N   1      31.582  15.650   9.236  0.00  0.00    -0.272 OA
ENDBRANCH  19  20
ENDBRANCH   1  19
TORSDOF 7
ENDMDL
