REMARK  5 active torsions:
REMARK  status: ('A' for Active; 'I' for Inactive)
REMARK    1  A    between atoms: N_2  and  C_6 
REMARK    2  A    between atoms: C_10  and  N_16 
REMARK    3  A    between atoms: C_13  and  C_20 
REMARK    4  A    between atoms: C_20  and  O_23 
REMARK    5  A    between atoms: C_30  and  N_31 
ROOT
HETATM    1  C   UNK N   1       1.021   1.200   0.182  0.00  0.00     0.128 A 
HETATM    2  N   UNK N   1       2.182   0.465   0.019  0.00  0.00    -0.303 N 
HETATM    3  C   UNK N   1       1.046   2.611   0.170  0.00  0.00     0.063 A 
HETATM    4  N   UNK N   1      -0.168   0.576   0.359  0.00  0.00    -0.325 N 
ATOM      5  HN  UNK N   1      -0.172  -0.443   0.393  1.00  0.00     0.169 HD
HETATM    6  C   UNK N   1       3.366   1.133  -0.118  0.00  0.00     0.121 A 
HETATM    7  C   UNK N   1       2.266   3.280   0.020  0.00  0.00     0.204 A 
HETATM    8  C   UNK N   1      -0.164   3.315   0.306  0.00  0.00     0.065 A 
HETATM    9  C   UNK N   1      -1.353   1.218   0.495  0.00  0.00     0.144 A 
HETATM   10  C   UNK N   1       3.449   2.530  -0.116  0.00  0.00     0.104 A 
HETATM   11  O   UNK N   1       2.298   4.501   0.013  0.00  0.00    -0.286 OA
HETATM   12  C   UNK N   1      -1.372   2.624   0.458  0.00  0.00     0.161 A 
HETATM   13  F   UNK N   1      -2.526   3.322   0.595  0.00  0.00    -0.202 F 
ENDROOT
BRANCH   9  14
HETATM   14  N   UNK N   1      -2.529   0.429   0.659  0.00  0.00    -0.364 N 
HETATM   15  C   UNK N   1      -3.810   0.884   0.199  0.00  0.00     0.131 C 
HETATM   16  C   UNK N   1      -4.426  -0.344  -0.457  0.00  0.00     0.034 A 
HETATM   17  C   UNK N   1      -3.586  -1.552  -0.062  0.00  0.00     0.034 A 
HETATM   18  C   UNK N   1      -4.912  -1.329   0.615  0.00  0.00     0.086 A 
HETATM   19  C   UNK N   1      -2.399  -1.004   0.696  0.00  0.00     0.131 C 
BRANCH  18  20
HETATM   20  N   UNK N   1      -5.861  -2.283   0.059  0.00  0.00    -0.425 N 
HETATM   21  H   UNK N   1      -6.772  -2.041  -0.331  0.00  0.00     0.150 HD
HETATM   22  H   UNK N   1      -5.594  -3.267   0.059  0.00  0.00     0.150 HD
ENDBRANCH  18  20
ENDBRANCH   9  14
BRANCH   2  23
HETATM   23  C   UNK N   1       2.184  -1.007  -0.046  0.00  0.00     0.079 A 
HETATM   24  C   UNK N   1       3.390  -1.763  -0.096  0.00  0.00     0.146 A 
HETATM   25  C   UNK N   1       3.346  -3.161  -0.183  0.00  0.00     0.086 A 
HETATM   26  F   UNK N   1       4.608  -1.170  -0.056  0.00  0.00    -0.204 F 
HETATM   27  C   UNK N   1       2.125  -3.834  -0.226  0.00  0.00     0.119 A 
HETATM   28  F   UNK N   1       2.093  -5.186  -0.314  0.00  0.00    -0.206 F 
HETATM   29  C   UNK N   1       0.937  -3.116  -0.181  0.00  0.00     0.045 A 
HETATM   30  C   UNK N   1       0.972  -1.728  -0.093  0.00  0.00     0.036 A 
ENDBRANCH   2  23
BRANCH  10  31
HETATM   31  C   UNK N   1       4.788   3.159  -0.262  0.00  0.00     0.181 C 
HETATM   32  O   UNK N   1       4.913   4.373  -0.267  0.00  0.00    -0.646 OA
BRANCH  31  33
HETATM   33  O   UNK N   1       5.884   2.384  -0.385  0.00  0.00    -0.772 OA
HETATM   34  H   UNK N   1       5.799   1.455  -0.470  0.00  0.00     0.167 HD
ENDBRANCH  31  33
ENDBRANCH  10  31
TORSDOF 5
