REMARK  11 active torsions:
REMARK  status: ('A' for Active; 'I' for Inactive)
REMARK    1  A    between atoms: C_2  and  O_1 
REMARK    2  A    between atoms: C_28  and  O_1 
REMARK    3  A    between atoms: C_12  and  O_26 
REMARK    4  A    between atoms: C_18  and  C_19 
REMARK    5  A    between atoms: C_31  and  O_34 
REMARK    6  A    between atoms: C_32  and  O_37 
REMARK    7  A    between atoms: C_35  and  O_34 
REMARK    8  A    between atoms: C_40  and  O_45 
REMARK    9  A    between atoms: C_44  and  O_45 
REMARK   10  A    between atoms: C_47  and  O_50 
REMARK   11  A    between atoms: C_48  and  O_51 
ROOT
HETATM    1  C   UNK N   1       9.902  -6.459  -1.582  0.00  0.00     0.263 C 
HETATM    2  O   UNK N   1       9.234  -7.387  -2.399  0.00  0.00    -0.354 OA
HETATM    3  C   UNK N   1       8.969  -5.288  -1.238  0.00  0.00     0.095 C 
HETATM    4  C   UNK N   1       7.685  -5.785  -0.579  0.00  0.00     0.154 C 
HETATM    5  C   UNK N   1       7.218  -7.194  -1.060  0.00  0.00     0.182 C 
HETATM    6  C   UNK N   1       8.359  -8.085  -1.558  0.00  0.00     0.152 C 
HETATM    7  O   UNK N   1       7.783  -5.687   0.810  0.00  0.00    -0.393 OA
HETATM    8  C   UNK N   1       7.845  -9.332  -2.251  0.00  0.00     0.042 C 
HETATM    9  H   UNK N   1       7.876  -5.711   1.775  0.00  0.00     0.210 HD
ENDROOT
BRANCH   5  10
HETATM   10  O   UNK N   1       6.551  -7.867  -0.026  0.00  0.00    -0.351 OA
BRANCH  10  11
HETATM   11  C   UNK N   1       5.252  -7.383  -0.074  0.00  0.00     0.263 C 
HETATM   12  O   UNK N   1       5.111  -6.299   0.802  0.00  0.00    -0.354 OA
HETATM   13  C   UNK N   1       4.008  -5.596   0.311  0.00  0.00     0.151 C 
HETATM   14  C   UNK N   1       2.739  -6.398   0.629  0.00  0.00     0.175 C 
HETATM   15  C   UNK N   1       3.976  -4.218   0.942  0.00  0.00     0.042 C 
HETATM   16  C   UNK N   1       2.862  -7.809   0.022  0.00  0.00     0.154 C 
HETATM   17  C   UNK N   1       4.227  -8.440   0.296  0.00  0.00     0.095 C 
BRANCH  14  18
HETATM   18  O   UNK N   1       1.628  -5.757   0.080  0.00  0.00    -0.390 OA
HETATM   19  H   UNK N   1       1.628  -4.866  -0.302  0.00  0.00     0.210 HD
ENDBRANCH  14  18
BRANCH  16  20
HETATM   20  O   UNK N   1       1.849  -8.634   0.506  0.00  0.00    -0.393 OA
HETATM   21  H   UNK N   1       0.999  -8.311   0.843  0.00  0.00     0.210 HD
ENDBRANCH  16  20
ENDBRANCH  10  11
ENDBRANCH   5  10
BRANCH   1  22
HETATM   22  O   UNK N   1      10.644  -7.106  -0.553  0.00  0.00    -0.351 OA
BRANCH  22  23
HETATM   23  C   UNK N   1      10.200  -6.859   0.767  0.00  0.00     0.182 C 
HETATM   24  C   UNK N   1      11.300  -6.141   1.533  0.00  0.00     0.152 C 
HETATM   25  O   UNK N   1      12.507  -6.896   1.652  0.00  0.00    -0.354 OA
HETATM   26  C   UNK N   1      11.584  -4.775   0.925  0.00  0.00     0.042 C 
HETATM   27  C   UNK N   1      12.413  -8.311   1.441  0.00  0.00     0.263 C 
HETATM   28  C   UNK N   1      11.172  -8.834   2.149  0.00  0.00     0.095 C 
HETATM   29  C   UNK N   1       9.918  -8.150   1.580  0.00  0.00     0.154 C 
BRANCH  27  30
HETATM   30  O   UNK N   1      12.350  -8.744   0.079  0.00  0.00    -0.356 OA
BRANCH  30  31
HETATM   31  C   UNK N   1      13.347  -8.300  -0.837  0.00  0.00     0.125 C 
HETATM   32  C   UNK N   1      14.711  -8.969  -0.790  0.00  0.00     0.037 C 
HETATM   33  C   UNK N   1      15.546  -8.353   0.321  0.00  0.00    -0.004 C 
HETATM   34  C   UNK N   1      15.583  -6.786   0.293  0.00  0.00    -0.036 C 
HETATM   35  C   UNK N   1      16.966  -8.930   0.285  0.00  0.00     0.006 C 
HETATM   36  C   UNK N   1      14.224  -6.150   0.009  0.00  0.00     0.012 C 
HETATM   37  C   UNK N   1      16.526  -6.197  -0.786  0.00  0.00     0.003 C 
HETATM   38  C   UNK N   1      15.954  -6.328   1.703  0.00  0.00     0.016 C 
HETATM   39  C   UNK N   1      13.447  -6.811  -1.116  0.00  0.00     0.033 C 
HETATM   40  C   UNK N   1      17.918  -6.883  -0.899  0.00  0.00     0.026 C 
HETATM   41  C   UNK N   1      16.600  -4.669  -0.520  0.00  0.00     0.038 C 
HETATM   42  C   UNK N   1      17.754  -8.413  -0.926  0.00  0.00     0.008 C 
HETATM   43  C   UNK N   1      18.929  -6.369   0.150  0.00  0.00     0.072 C 
HETATM   44  C   UNK N   1      19.054  -4.806   0.085  0.00  0.00     0.021 C 
HETATM   45  C   UNK N   1      20.334  -6.910  -0.133  0.00  0.00     0.040 C 
HETATM   46  C   UNK N   1      17.961  -4.073  -0.749  0.00  0.00     0.130 C 
HETATM   47  C   UNK N   1      20.402  -4.582  -0.595  0.00  0.00     0.030 C 
HETATM   48  C   UNK N   1      19.078  -4.227   1.511  0.00  0.00     0.022 C 
HETATM   49  O   UNK N   1      18.215  -4.097  -2.123  0.00  0.00    -0.395 OA
HETATM   50  H   UNK N   1      18.289  -4.257  -3.077  0.00  0.00     0.210 HD
HETATM   51  C   UNK N   1      21.276  -5.718  -0.116  0.00  0.00     0.013 C 
BRANCH  43  52
HETATM   52  O   UNK N   1      18.566  -6.810   1.427  0.00  0.00    -0.389 OA
HETATM   53  H   UNK N   1      18.176  -6.745   2.313  0.00  0.00     0.210 HD
ENDBRANCH  43  52
BRANCH  47  54
HETATM   54  C   UNK N   1      20.956  -3.190  -0.413  0.00  0.00    -0.045 A 
HETATM   55  C   UNK N   1      22.125  -2.907   0.135  0.00  0.00     0.087 A 
HETATM   56  C   UNK N   1      22.189  -1.472   0.150  0.00  0.00     0.283 A 
HETATM   57  O   UNK N   1      21.075  -0.933  -0.371  0.00  0.00    -0.314 OA
HETATM   58  O   UNK N   1      23.113  -0.820   0.585  0.00  0.00    -0.260 OA
HETATM   59  C   UNK N   1      20.205  -1.924  -0.780  0.00  0.00     0.213 A 
ENDBRANCH  47  54
ENDBRANCH  30  31
ENDBRANCH  27  30
BRANCH  29  60
HETATM   60  O   UNK N   1       9.154  -9.071   0.874  0.00  0.00    -0.393 OA
HETATM   61  H   UNK N   1       8.331  -8.930   0.382  0.00  0.00     0.210 HD
ENDBRANCH  29  60
ENDBRANCH  22  23
ENDBRANCH   1  22
TORSDOF 11
