REMARK  17 active torsions:
REMARK  status: ('A' for Active; 'I' for Inactive)
REMARK    1  A    between atoms: C_3  and  O_19 
REMARK    2  A    between atoms: C_10  and  O_39 
REMARK    3  A    between atoms: C_11  and  O_21 
REMARK    4  A    between atoms: C_12  and  O_43 
REMARK    5  A    between atoms: C_16  and  C_24 
REMARK    6  A    between atoms: C_17  and  O_23 
REMARK    7  A    between atoms: C_18  and  N_40 
REMARK       I    between atoms: C_24  and  N_25 
REMARK    8  A    between atoms: N_25  and  C_27 
REMARK    9  A    between atoms: C_27  and  N_28 
REMARK   10  A    between atoms: N_28  and  C_29 
REMARK   11  A    between atoms: C_29  and  C_30 
REMARK   12  A    between atoms: C_30  and  C_31 
REMARK   13  A    between atoms: C_31  and  C_32 
REMARK   14  A    between atoms: C_32  and  C_33 
REMARK   15  A    between atoms: C_33  and  N_34 
REMARK   16  A    between atoms: C_33  and  C_35 
REMARK   17  A    between atoms: C_35  and  O_37 
ROOT
HETATM    1  C   UNK N   1       4.290 -13.740  -0.481  0.00  0.00     0.003 A 
HETATM    2  C   UNK N   1       4.206 -15.125  -0.533  0.00  0.00     0.037 A 
HETATM    3  C   UNK N   1       5.344 -15.906  -0.353  0.00  0.00     0.080 A 
HETATM    4  C   UNK N   1       6.606 -15.294  -0.130  0.00  0.00     0.057 A 
HETATM    5  C   UNK N   1       6.688 -13.883  -0.060  0.00  0.00    -0.007 A 
HETATM    6  C   UNK N   1       5.513 -13.127  -0.226  0.00  0.00     0.011 A 
HETATM    7  C   UNK N   1       7.813 -16.125   0.040  0.00  0.00     0.194 C 
HETATM    8  C   UNK N   1       9.145 -15.498   0.159  0.00  0.00     0.033 C 
HETATM    9  C   UNK N   1       9.296 -13.984   0.321  0.00  0.00     0.065 C 
HETATM   10  C   UNK N   1       7.970 -13.135   0.286  0.00  0.00     0.090 C 
HETATM   11  C   UNK N   1      10.276 -16.249   0.068  0.00  0.00     0.097 C 
HETATM   12  C   UNK N   1      11.593 -15.554   0.269  0.00  0.00     0.177 C 
HETATM   13  C   UNK N   1      11.714 -14.289  -0.593  0.00  0.00     0.075 C 
HETATM   14  C   UNK N   1      10.363 -13.527  -0.703  0.00  0.00     0.024 C 
HETATM   15  C   UNK N   1      12.840 -16.347   0.004  0.00  0.00     0.208 C 
HETATM   16  C   UNK N   1      14.108 -15.721   0.467  0.00  0.00     0.112 C 
HETATM   17  C   UNK N   1      14.104 -14.346   0.562  0.00  0.00     0.096 C 
HETATM   18  C   UNK N   1      12.972 -13.484  -0.093  0.00  0.00     0.286 C 
HETATM   19  O   UNK N   1       7.713 -17.343   0.074  0.00  0.00    -0.287 OA
HETATM   20  O   UNK N   1      12.803 -17.482  -0.445  0.00  0.00    -0.288 OA
HETATM   21  C   UNK N   1       8.116 -11.932  -0.653  0.00  0.00     0.052 C 
ENDROOT
BRANCH  16  22
HETATM   22  C   UNK N   1      15.195 -16.696   0.920  0.00  0.00     0.259 C 
HETATM   23  N   UNK N   1      16.500 -16.390   1.180  0.00  0.00    -0.341 N 
HETATM   24  H   UNK N   1      17.054 -17.149   1.474  0.00  0.00     0.164 HD
HETATM   25  O   UNK N   1      14.887 -17.871   1.010  0.00  0.00    -0.267 OA
BRANCH  23  26
HETATM   26  C   UNK N   1      17.192 -15.131   1.090  0.00  0.00     0.241 C 
BRANCH  26  27
HETATM   27  N   UNK N   1      16.970 -14.467  -0.193  0.00  0.00    -0.406 N 
HETATM   28  H   UNK N   1      16.587 -13.526  -0.291  0.00  0.00     0.154 HD
BRANCH  27  29
HETATM   29  C   UNK N   1      17.361 -15.305  -1.308  0.00  0.00     0.115 C 
BRANCH  29  30
HETATM   30  C   UNK N   1      18.318 -14.511  -2.175  0.00  0.00     0.019 C 
BRANCH  30  31
HETATM   31  C   UNK N   1      19.756 -14.725  -1.725  0.00  0.00     0.004 C 
BRANCH  31  32
HETATM   32  C   UNK N   1      19.955 -14.358  -0.256  0.00  0.00     0.035 C 
BRANCH  32  33
HETATM   33  C   UNK N   1      20.896 -15.334   0.453  0.00  0.00     0.173 C 
BRANCH  33  34
HETATM   34  N   UNK N   1      22.212 -15.278  -0.158  0.00  0.00    -0.418 N 
HETATM   35  H   UNK N   1      22.709 -16.058  -0.588  0.00  0.00     0.150 HD
HETATM   36  H   UNK N   1      22.684 -14.373  -0.158  0.00  0.00     0.150 HD
ENDBRANCH  33  34
BRANCH  33  37
HETATM   37  C   UNK N   1      20.407 -16.764   0.503  0.00  0.00     0.163 C 
HETATM   38  O   UNK N   1      19.351 -17.091  -0.014  0.00  0.00    -0.648 OA
BRANCH  37  39
HETATM   39  O   UNK N   1      21.149 -17.695   1.131  0.00  0.00    -0.775 OA
HETATM   40  H   UNK N   1      20.846 -18.466   1.568  0.00  0.00     0.167 HD
ENDBRANCH  37  39
ENDBRANCH  33  37
ENDBRANCH  32  33
ENDBRANCH  31  32
ENDBRANCH  30  31
ENDBRANCH  29  30
ENDBRANCH  27  29
ENDBRANCH  26  27
ENDBRANCH  23  26
ENDBRANCH  16  22
BRANCH  17  41
HETATM   41  O   UNK N   1      15.054 -13.709   1.261  0.00  0.00    -0.362 OA
HETATM   42  H   UNK N   1      15.772 -14.061   1.750  0.00  0.00     0.217 HD
ENDBRANCH  17  41
BRANCH  12  43
HETATM   43  O   UNK N   1      11.612 -15.205   1.628  0.00  0.00    -0.374 OA
HETATM   44  H   UNK N   1      11.828 -15.096   2.567  0.00  0.00     0.211 HD
ENDBRANCH  12  43
BRANCH  18  45
HETATM   45  N   UNK N   1      12.786 -12.102   0.423  0.00  0.00     0.091 NA
HETATM   46  C   UNK N   1      12.034 -11.297  -0.527  0.00  0.00     0.310 C 
HETATM   47  C   UNK N   1      14.060 -11.397   0.471  0.00  0.00     0.310 C 
ENDBRANCH  18  45
BRANCH  11  48
HETATM   48  O   UNK N   1      10.227 -17.577  -0.165  0.00  0.00    -0.361 OA
HETATM   49  H   UNK N   1       9.411 -18.009  -0.327  0.00  0.00     0.217 HD
ENDBRANCH  11  48
BRANCH  10  50
HETATM   50  O   UNK N   1       7.768 -12.608   1.566  0.00  0.00    -0.385 OA
HETATM   51  H   UNK N   1       8.015 -12.304   2.453  0.00  0.00     0.211 HD
ENDBRANCH  10  50
BRANCH   3  52
HETATM   52  O   UNK N   1       5.214 -17.245  -0.391  0.00  0.00    -0.360 OA
HETATM   53  H   UNK N   1       4.362 -17.633  -0.418  0.00  0.00     0.217 HD
ENDBRANCH   3  52
TORSDOF 17
