MODEL 1
REMARK VINA RESULT:      -6.1      0.000      0.000
REMARK  3 active torsions:
REMARK  status: ('A' for Active; 'I' for Inactive)
REMARK    1  A    between atoms: C_1  and  C_2 
REMARK    2  A    between atoms: C_2  and  C_5 
REMARK    3  A    between atoms: C_5  and  N_8 
REMARK       I    between atoms: N_8  and  C_10 
REMARK       I    between atoms: C_10  and  N_11 
REMARK       I    between atoms: N_11  and  C_14 
REMARK       I    between atoms: C_14  and  N_15 
ROOT
HETATM    1  N   UNK N   1      35.193  13.383  12.515  0.00  0.00    -0.226 N 
HETATM    2  C   UNK N   1      35.361  14.650  11.893  0.00  0.00     0.686 C 
HETATM    3  N   UNK N   1      34.364  15.133  10.996  0.00  0.00    -0.024 N 
HETATM    4  N   UNK N   1      36.408  15.349  12.145  0.00  0.00    -0.234 N 
ATOM      5  HN  UNK N   1      37.116  14.993  12.788  1.00  0.00     0.174 HD
HETATM    6  C   UNK N   1      34.422  16.387  10.314  0.00  0.00     0.683 C 
HETATM    7  N   UNK N   1      33.370  16.754   9.448  0.00  0.00    -0.234 N 
HETATM    8  N   UNK N   1      35.413  17.186  10.472  0.00  0.00    -0.234 N 
ATOM      9  HN  UNK N   1      36.179  16.931  11.095  1.00  0.00     0.174 HD
HETATM   10  H   UNK N   1      34.394  12.838  12.331  0.00  0.00     0.177 HD
HETATM   11  H   UNK N   1      33.577  14.562  10.834  0.00  0.00     0.203 HD
HETATM   12  H   UNK N   1      36.529  16.227  11.716  0.00  0.00     0.174 HD
HETATM   13  H   UNK N   1      32.605  16.149   9.320  0.00  0.00     0.174 HD
HETATM   14  H   UNK N   1      33.401  17.616   8.974  0.00  0.00     0.174 HD
HETATM   15  H   UNK N   1      35.433  18.045   9.992  0.00  0.00     0.174 HD
ENDROOT
BRANCH   1  16
HETATM   16  C   UNK N   1      36.208  12.909  13.418  0.00  0.00     0.142 C 
BRANCH  16  17
HETATM   17  C   UNK N   1      35.659  12.484  14.769  0.00  0.00     0.058 C 
BRANCH  17  18
HETATM   18  C   UNK N   1      35.961  13.525  15.818  0.00  0.00    -0.057 A 
HETATM   19  C   UNK N   1      35.277  13.546  17.050  0.00  0.00     0.007 A 
HETATM   20  C   UNK N   1      35.568  14.516  18.009  0.00  0.00     0.001 A 
HETATM   21  C   UNK N   1      36.545  15.477  17.749  0.00  0.00     0.000 A 
HETATM   22  C   UNK N   1      37.230  15.467  16.530  0.00  0.00     0.001 A 
HETATM   23  C   UNK N   1      36.939  14.493  15.566  0.00  0.00     0.007 A 
ENDBRANCH  17  18
ENDBRANCH  16  17
ENDBRANCH   1  16
TORSDOF 3
ENDMDL
MODEL 2
REMARK VINA RESULT:      -6.1      1.447      2.674
REMARK  3 active torsions:
REMARK  status: ('A' for Active; 'I' for Inactive)
REMARK    1  A    between atoms: C_1  and  C_2 
REMARK    2  A    between atoms: C_2  and  C_5 
REMARK    3  A    between atoms: C_5  and  N_8 
REMARK       I    between atoms: N_8  and  C_10 
REMARK       I    between atoms: C_10  and  N_11 
REMARK       I    between atoms: N_11  and  C_14 
REMARK       I    between atoms: C_14  and  N_15 
ROOT
HETATM    1  N   UNK N   1      36.138  15.379  12.214  0.00  0.00    -0.226 N 
HETATM    2  C   UNK N   1      35.138  15.716  11.261  0.00  0.00     0.686 C 
HETATM    3  N   UNK N   1      35.345  16.819  10.382  0.00  0.00    -0.024 N 
HETATM    4  N   UNK N   1      34.058  15.025  11.201  0.00  0.00    -0.234 N 
ATOM      5  HN  UNK N   1      33.920  14.237  11.835  1.00  0.00     0.174 HD
HETATM    6  C   UNK N   1      34.415  17.251   9.387  0.00  0.00     0.683 C 
HETATM    7  N   UNK N   1      34.735  18.360   8.575  0.00  0.00    -0.234 N 
HETATM    8  N   UNK N   1      33.294  16.651   9.217  0.00  0.00    -0.234 N 
ATOM      9  HN  UNK N   1      33.052  15.849   9.798  1.00  0.00     0.174 HD
HETATM   10  H   UNK N   1      36.971  15.901  12.270  0.00  0.00     0.177 HD
HETATM   11  H   UNK N   1      36.189  17.319  10.465  0.00  0.00     0.203 HD
HETATM   12  H   UNK N   1      33.363  15.254  10.543  0.00  0.00     0.174 HD
HETATM   13  H   UNK N   1      35.592  18.828   8.697  0.00  0.00     0.174 HD
HETATM   14  H   UNK N   1      34.101  18.665   7.887  0.00  0.00     0.174 HD
HETATM   15  H   UNK N   1      32.668  16.966   8.525  0.00  0.00     0.174 HD
ENDROOT
BRANCH   1  16
HETATM   16  C   UNK N   1      35.914  14.263  13.094  0.00  0.00     0.142 C 
BRANCH  16  17
HETATM   17  C   UNK N   1      36.595  14.416  14.443  0.00  0.00     0.058 C 
BRANCH  17  18
HETATM   18  C   UNK N   1      36.347  13.203  15.305  0.00  0.00    -0.057 A 
HETATM   19  C   UNK N   1      36.909  11.950  14.990  0.00  0.00     0.007 A 
HETATM   20  C   UNK N   1      36.669  10.839  15.797  0.00  0.00     0.001 A 
HETATM   21  C   UNK N   1      35.864  10.966  16.930  0.00  0.00     0.000 A 
HETATM   22  C   UNK N   1      35.300  12.204  17.254  0.00  0.00     0.001 A 
HETATM   23  C   UNK N   1      35.541  13.321  16.443  0.00  0.00     0.007 A 
ENDBRANCH  17  18
ENDBRANCH  16  17
ENDBRANCH   1  16
TORSDOF 3
ENDMDL
MODEL 3
REMARK VINA RESULT:      -6.0      1.341      1.827
REMARK  3 active torsions:
REMARK  status: ('A' for Active; 'I' for Inactive)
REMARK    1  A    between atoms: C_1  and  C_2 
REMARK    2  A    between atoms: C_2  and  C_5 
REMARK    3  A    between atoms: C_5  and  N_8 
REMARK       I    between atoms: N_8  and  C_10 
REMARK       I    between atoms: C_10  and  N_11 
REMARK       I    between atoms: N_11  and  C_14 
REMARK       I    between atoms: C_14  and  N_15 
ROOT
HETATM    1  N   UNK N   1      35.213  12.998  13.055  0.00  0.00    -0.226 N 
HETATM    2  C   UNK N   1      35.286  14.265  12.413  0.00  0.00     0.686 C 
HETATM    3  N   UNK N   1      34.395  14.564  11.340  0.00  0.00    -0.024 N 
HETATM    4  N   UNK N   1      36.153  15.127  12.803  0.00  0.00    -0.234 N 
ATOM      5  HN  UNK N   1      36.786  14.903  13.571  1.00  0.00     0.174 HD
HETATM    6  C   UNK N   1      34.375  15.798  10.621  0.00  0.00     0.683 C 
HETATM    7  N   UNK N   1      33.443  15.975   9.576  0.00  0.00    -0.234 N 
HETATM    8  N   UNK N   1      35.187  16.749  10.906  0.00  0.00    -0.234 N 
ATOM      9  HN  UNK N   1      35.864  16.632  11.658  1.00  0.00     0.174 HD
HETATM   10  H   UNK N   1      34.552  12.329  12.765  0.00  0.00     0.177 HD
HETATM   11  H   UNK N   1      33.747  13.871  11.076  0.00  0.00     0.203 HD
HETATM   12  H   UNK N   1      36.207  16.005  12.361  0.00  0.00     0.174 HD
HETATM   13  H   UNK N   1      32.815  15.252   9.349  0.00  0.00     0.174 HD
HETATM   14  H   UNK N   1      33.420  16.822   9.075  0.00  0.00     0.174 HD
HETATM   15  H   UNK N   1      35.155  17.591  10.397  0.00  0.00     0.174 HD
ENDROOT
BRANCH   1  16
HETATM   16  C   UNK N   1      36.118  12.712  14.135  0.00  0.00     0.142 C 
BRANCH  16  17
HETATM   17  C   UNK N   1      35.673  11.544  15.000  0.00  0.00     0.058 C 
BRANCH  17  18
HETATM   18  C   UNK N   1      35.522  11.974  16.437  0.00  0.00    -0.057 A 
HETATM   19  C   UNK N   1      35.588  11.043  17.493  0.00  0.00     0.007 A 
HETATM   20  C   UNK N   1      35.446  11.457  18.817  0.00  0.00     0.001 A 
HETATM   21  C   UNK N   1      35.238  12.806  19.103  0.00  0.00     0.000 A 
HETATM   22  C   UNK N   1      35.170  13.740  18.065  0.00  0.00     0.001 A 
HETATM   23  C   UNK N   1      35.312  13.325  16.734  0.00  0.00     0.007 A 
ENDBRANCH  17  18
ENDBRANCH  16  17
ENDBRANCH   1  16
TORSDOF 3
ENDMDL
MODEL 4
REMARK VINA RESULT:      -5.9      3.627      8.698
REMARK  3 active torsions:
REMARK  status: ('A' for Active; 'I' for Inactive)
REMARK    1  A    between atoms: C_1  and  C_2 
REMARK    2  A    between atoms: C_2  and  C_5 
REMARK    3  A    between atoms: C_5  and  N_8 
REMARK       I    between atoms: N_8  and  C_10 
REMARK       I    between atoms: C_10  and  N_11 
REMARK       I    between atoms: N_11  and  C_14 
REMARK       I    between atoms: C_14  and  N_15 
ROOT
HETATM    1  N   UNK N   1      34.706  16.956  10.023  0.00  0.00    -0.226 N 
HETATM    2  C   UNK N   1      34.637  15.773  10.808  0.00  0.00     0.686 C 
HETATM    3  N   UNK N   1      35.658  15.501  11.765  0.00  0.00    -0.024 N 
HETATM    4  N   UNK N   1      33.657  14.959  10.649  0.00  0.00    -0.234 N 
ATOM      5  HN  UNK N   1      32.931  15.163   9.961  1.00  0.00     0.174 HD
HETATM    6  C   UNK N   1      35.696  14.348  12.609  0.00  0.00     0.683 C 
HETATM    7  N   UNK N   1      36.762  14.191  13.519  0.00  0.00    -0.234 N 
HETATM    8  N   UNK N   1      34.779  13.453  12.555  0.00  0.00    -0.234 N 
ATOM      9  HN  UNK N   1      34.004  13.556  11.901  1.00  0.00     0.174 HD
HETATM   10  H   UNK N   1      35.452  17.587  10.136  0.00  0.00     0.177 HD
HETATM   11  H   UNK N   1      36.390  16.154  11.852  0.00  0.00     0.203 HD
HETATM   12  H   UNK N   1      33.605  14.138  11.190  0.00  0.00     0.174 HD
HETATM   13  H   UNK N   1      37.471  14.872  13.568  0.00  0.00     0.174 HD
HETATM   14  H   UNK N   1      36.798  13.401  14.104  0.00  0.00     0.174 HD
HETATM   15  H   UNK N   1      34.826  12.666  13.146  0.00  0.00     0.174 HD
ENDROOT
BRANCH   1  16
HETATM   16  C   UNK N   1      33.667  17.215   9.061  0.00  0.00     0.142 C 
BRANCH  16  17
HETATM   17  C   UNK N   1      34.199  17.556   7.680  0.00  0.00     0.058 C 
BRANCH  17  18
HETATM   18  C   UNK N   1      33.106  17.445   6.646  0.00  0.00    -0.057 A 
HETATM   19  C   UNK N   1      31.766  17.220   7.018  0.00  0.00     0.007 A 
HETATM   20  C   UNK N   1      30.767  17.120   6.050  0.00  0.00     0.001 A 
HETATM   21  C   UNK N   1      31.095  17.244   4.699  0.00  0.00     0.000 A 
HETATM   22  C   UNK N   1      32.421  17.468   4.318  0.00  0.00     0.001 A 
HETATM   23  C   UNK N   1      33.426  17.568   5.290  0.00  0.00     0.007 A 
ENDBRANCH  17  18
ENDBRANCH  16  17
ENDBRANCH   1  16
TORSDOF 3
ENDMDL
MODEL 5
REMARK VINA RESULT:      -5.7      3.761      8.148
REMARK  3 active torsions:
REMARK  status: ('A' for Active; 'I' for Inactive)
REMARK    1  A    between atoms: C_1  and  C_2 
REMARK    2  A    between atoms: C_2  and  C_5 
REMARK    3  A    between atoms: C_5  and  N_8 
REMARK       I    between atoms: N_8  and  C_10 
REMARK       I    between atoms: C_10  and  N_11 
REMARK       I    between atoms: N_11  and  C_14 
REMARK       I    between atoms: C_14  and  N_15 
ROOT
HETATM    1  N   UNK N   1      33.230  15.989   9.418  0.00  0.00    -0.226 N 
HETATM    2  C   UNK N   1      34.224  15.830  10.422  0.00  0.00     0.686 C 
HETATM    3  N   UNK N   1      34.306  14.604  11.145  0.00  0.00    -0.024 N 
HETATM    4  N   UNK N   1      35.039  16.791  10.668  0.00  0.00    -0.234 N 
ATOM      5  HN  UNK N   1      34.972  17.664  10.145  1.00  0.00     0.174 HD
HETATM    6  C   UNK N   1      35.259  14.328  12.172  0.00  0.00     0.683 C 
HETATM    7  N   UNK N   1      35.240  13.073  12.817  0.00  0.00    -0.234 N 
HETATM    8  N   UNK N   1      36.134  15.199  12.521  0.00  0.00    -0.234 N 
ATOM      9  HN  UNK N   1      36.157  16.110  12.062  1.00  0.00     0.174 HD
HETATM   10  H   UNK N   1      32.599  15.260   9.219  0.00  0.00     0.177 HD
HETATM   11  H   UNK N   1      33.659  13.896  10.920  0.00  0.00     0.203 HD
HETATM   12  H   UNK N   1      35.729  16.685  11.363  0.00  0.00     0.174 HD
HETATM   13  H   UNK N   1      34.573  12.397  12.557  0.00  0.00     0.174 HD
HETATM   14  H   UNK N   1      35.892  12.873  13.526  0.00  0.00     0.174 HD
HETATM   15  H   UNK N   1      36.781  14.988  13.232  0.00  0.00     0.174 HD
ENDROOT
BRANCH   1  16
HETATM   16  C   UNK N   1      33.161  17.233   8.697  0.00  0.00     0.142 C 
BRANCH  16  17
HETATM   17  C   UNK N   1      32.193  17.195   7.526  0.00  0.00     0.058 C 
BRANCH  17  18
HETATM   18  C   UNK N   1      30.793  17.518   7.982  0.00  0.00    -0.057 A 
HETATM   19  C   UNK N   1      29.665  17.026   7.295  0.00  0.00     0.007 A 
HETATM   20  C   UNK N   1      28.376  17.334   7.730  0.00  0.00     0.001 A 
HETATM   21  C   UNK N   1      28.198  18.137   8.857  0.00  0.00     0.000 A 
HETATM   22  C   UNK N   1      29.309  18.631   9.548  0.00  0.00     0.001 A 
HETATM   23  C   UNK N   1      30.604  18.322   9.111  0.00  0.00     0.007 A 
ENDBRANCH  17  18
ENDBRANCH  16  17
ENDBRANCH   1  16
TORSDOF 3
ENDMDL
MODEL 6
REMARK VINA RESULT:      -5.7      3.857      8.733
REMARK  3 active torsions:
REMARK  status: ('A' for Active; 'I' for Inactive)
REMARK    1  A    between atoms: C_1  and  C_2 
REMARK    2  A    between atoms: C_2  and  C_5 
REMARK    3  A    between atoms: C_5  and  N_8 
REMARK       I    between atoms: N_8  and  C_10 
REMARK       I    between atoms: C_10  and  N_11 
REMARK       I    between atoms: N_11  and  C_14 
REMARK       I    between atoms: C_14  and  N_15 
ROOT
HETATM    1  N   UNK N   1      32.571  15.232  10.012  0.00  0.00    -0.226 N 
HETATM    2  C   UNK N   1      33.982  15.278  10.177  0.00  0.00     0.686 C 
HETATM    3  N   UNK N   1      34.543  15.186  11.484  0.00  0.00    -0.024 N 
HETATM    4  N   UNK N   1      34.740  15.403   9.148  0.00  0.00    -0.234 N 
ATOM      5  HN  UNK N   1      34.328  15.469   8.216  1.00  0.00     0.174 HD
HETATM    6  C   UNK N   1      35.942  15.221  11.774  0.00  0.00     0.683 C 
HETATM    7  N   UNK N   1      36.374  15.121  13.113  0.00  0.00    -0.234 N 
HETATM    8  N   UNK N   1      36.812  15.343  10.840  0.00  0.00    -0.234 N 
ATOM      9  HN  UNK N   1      36.511  15.416   9.869  1.00  0.00     0.174 HD
HETATM   10  H   UNK N   1      31.980  15.136  10.792  0.00  0.00     0.177 HD
HETATM   11  H   UNK N   1      33.922  15.091  12.243  0.00  0.00     0.203 HD
HETATM   12  H   UNK N   1      35.718  15.436   9.257  0.00  0.00     0.174 HD
HETATM   13  H   UNK N   1      35.714  15.027  13.837  0.00  0.00     0.174 HD
HETATM   14  H   UNK N   1      37.335  15.144  13.323  0.00  0.00     0.174 HD
HETATM   15  H   UNK N   1      37.771  15.365  11.063  0.00  0.00     0.174 HD
ENDROOT
BRANCH   1  16
HETATM   16  C   UNK N   1      32.021  15.326   8.685  0.00  0.00     0.142 C 
BRANCH  16  17
HETATM   17  C   UNK N   1      31.513  16.716   8.343  0.00  0.00     0.058 C 
BRANCH  17  18
HETATM   18  C   UNK N   1      31.778  17.038   6.894  0.00  0.00    -0.057 A 
HETATM   19  C   UNK N   1      33.086  17.259   6.419  0.00  0.00     0.007 A 
HETATM   20  C   UNK N   1      33.314  17.556   5.075  0.00  0.00     0.001 A 
HETATM   21  C   UNK N   1      32.238  17.635   4.190  0.00  0.00     0.000 A 
HETATM   22  C   UNK N   1      30.936  17.417   4.650  0.00  0.00     0.001 A 
HETATM   23  C   UNK N   1      30.706  17.119   5.999  0.00  0.00     0.007 A 
ENDBRANCH  17  18
ENDBRANCH  16  17
ENDBRANCH   1  16
TORSDOF 3
ENDMDL
MODEL 7
REMARK VINA RESULT:      -5.5      2.093      2.824
REMARK  3 active torsions:
REMARK  status: ('A' for Active; 'I' for Inactive)
REMARK    1  A    between atoms: C_1  and  C_2 
REMARK    2  A    between atoms: C_2  and  C_5 
REMARK    3  A    between atoms: C_5  and  N_8 
REMARK       I    between atoms: N_8  and  C_10 
REMARK       I    between atoms: C_10  and  N_11 
REMARK       I    between atoms: N_11  and  C_14 
REMARK       I    between atoms: C_14  and  N_15 
ROOT
HETATM    1  N   UNK N   1      35.155  12.903  13.733  0.00  0.00    -0.226 N 
HETATM    2  C   UNK N   1      35.726  13.879  12.871  0.00  0.00     0.686 C 
HETATM    3  N   UNK N   1      35.182  14.075  11.568  0.00  0.00    -0.024 N 
HETATM    4  N   UNK N   1      36.727  14.574  13.273  0.00  0.00    -0.234 N 
ATOM      5  HN  UNK N   1      37.109  14.426  14.208  1.00  0.00     0.174 HD
HETATM    6  C   UNK N   1      35.670  15.023  10.617  0.00  0.00     0.683 C 
HETATM    7  N   UNK N   1      35.045  15.123   9.356  0.00  0.00    -0.234 N 
HETATM    8  N   UNK N   1      36.666  15.784  10.887  0.00  0.00    -0.234 N 
ATOM      9  HN  UNK N   1      37.126  15.720  11.795  1.00  0.00     0.174 HD
HETATM   10  H   UNK N   1      34.387  12.363  13.436  0.00  0.00     0.177 HD
HETATM   11  H   UNK N   1      34.414  13.517  11.304  0.00  0.00     0.203 HD
HETATM   12  H   UNK N   1      37.126  15.251  12.680  0.00  0.00     0.174 HD
HETATM   13  H   UNK N   1      34.280  14.543   9.139  0.00  0.00     0.174 HD
HETATM   14  H   UNK N   1      35.374  15.773   8.694  0.00  0.00     0.174 HD
HETATM   15  H   UNK N   1      36.986  16.430  10.216  0.00  0.00     0.174 HD
ENDROOT
BRANCH   1  16
HETATM   16  C   UNK N   1      35.716  12.717  15.045  0.00  0.00     0.142 C 
BRANCH  16  17
HETATM   17  C   UNK N   1      34.694  12.857  16.160  0.00  0.00     0.058 C 
BRANCH  17  18
HETATM   18  C   UNK N   1      35.173  12.162  17.410  0.00  0.00    -0.057 A 
HETATM   19  C   UNK N   1      35.141  12.803  18.665  0.00  0.00     0.007 A 
HETATM   20  C   UNK N   1      35.587  12.145  19.811  0.00  0.00     0.001 A 
HETATM   21  C   UNK N   1      36.070  10.840  19.718  0.00  0.00     0.000 A 
HETATM   22  C   UNK N   1      36.107  10.193  18.479  0.00  0.00     0.001 A 
HETATM   23  C   UNK N   1      35.658  10.853  17.327  0.00  0.00     0.007 A 
ENDBRANCH  17  18
ENDBRANCH  16  17
ENDBRANCH   1  16
TORSDOF 3
ENDMDL
MODEL 8
REMARK VINA RESULT:      -5.4     14.577     16.413
REMARK  3 active torsions:
REMARK  status: ('A' for Active; 'I' for Inactive)
REMARK    1  A    between atoms: C_1  and  C_2 
REMARK    2  A    between atoms: C_2  and  C_5 
REMARK    3  A    between atoms: C_5  and  N_8 
REMARK       I    between atoms: N_8  and  C_10 
REMARK       I    between atoms: C_10  and  N_11 
REMARK       I    between atoms: N_11  and  C_14 
REMARK       I    between atoms: C_14  and  N_15 
ROOT
HETATM    1  N   UNK N   1      44.380  21.778   3.232  0.00  0.00    -0.226 N 
HETATM    2  C   UNK N   1      44.565  23.183   3.111  0.00  0.00     0.686 C 
HETATM    3  N   UNK N   1      45.726  23.687   2.456  0.00  0.00    -0.024 N 
HETATM    4  N   UNK N   1      43.685  23.985   3.591  0.00  0.00    -0.234 N 
ATOM      5  HN  UNK N   1      42.857  23.613   4.058  1.00  0.00     0.174 HD
HETATM    6  C   UNK N   1      46.020  25.074   2.274  0.00  0.00     0.683 C 
HETATM    7  N   UNK N   1      47.205  25.449   1.607  0.00  0.00    -0.234 N 
HETATM    8  N   UNK N   1      45.227  25.985   2.705  0.00  0.00    -0.234 N 
ATOM      9  HN  UNK N   1      44.367  25.725   3.188  1.00  0.00     0.174 HD
HETATM   10  H   UNK N   1      45.047  21.153   2.868  0.00  0.00     0.177 HD
HETATM   11  H   UNK N   1      46.374  23.033   2.103  0.00  0.00     0.203 HD
HETATM   12  H   UNK N   1      43.809  24.958   3.509  0.00  0.00     0.174 HD
HETATM   13  H   UNK N   1      47.821  24.758   1.273  0.00  0.00     0.174 HD
HETATM   14  H   UNK N   1      47.417  26.401   1.477  0.00  0.00     0.174 HD
HETATM   15  H   UNK N   1      45.449  26.934   2.568  0.00  0.00     0.174 HD
ENDROOT
BRANCH   1  16
HETATM   16  C   UNK N   1      43.202  21.286   3.896  0.00  0.00     0.142 C 
BRANCH  16  17
HETATM   17  C   UNK N   1      42.694  19.974   3.323  0.00  0.00     0.058 C 
BRANCH  17  18
HETATM   18  C   UNK N   1      41.670  20.225   2.244  0.00  0.00    -0.057 A 
HETATM   19  C   UNK N   1      40.343  20.580   2.560  0.00  0.00     0.007 A 
HETATM   20  C   UNK N   1      39.408  20.809   1.551  0.00  0.00     0.001 A 
HETATM   21  C   UNK N   1      39.787  20.687   0.214  0.00  0.00     0.000 A 
HETATM   22  C   UNK N   1      41.101  20.336  -0.112  0.00  0.00     0.001 A 
HETATM   23  C   UNK N   1      42.041  20.105   0.901  0.00  0.00     0.007 A 
ENDBRANCH  17  18
ENDBRANCH  16  17
ENDBRANCH   1  16
TORSDOF 3
ENDMDL
MODEL 9
REMARK VINA RESULT:      -5.3      2.980      7.944
REMARK  3 active torsions:
REMARK  status: ('A' for Active; 'I' for Inactive)
REMARK    1  A    between atoms: C_1  and  C_2 
REMARK    2  A    between atoms: C_2  and  C_5 
REMARK    3  A    between atoms: C_5  and  N_8 
REMARK       I    between atoms: N_8  and  C_10 
REMARK       I    between atoms: C_10  and  N_11 
REMARK       I    between atoms: N_11  and  C_14 
REMARK       I    between atoms: C_14  and  N_15 
ROOT
HETATM    1  N   UNK N   1      35.285  16.315  10.934  0.00  0.00    -0.226 N 
HETATM    2  C   UNK N   1      35.804  15.160  11.580  0.00  0.00     0.686 C 
HETATM    3  N   UNK N   1      36.163  15.223  12.959  0.00  0.00    -0.024 N 
HETATM    4  N   UNK N   1      35.946  14.070  10.917  0.00  0.00    -0.234 N 
ATOM      5  HN  UNK N   1      35.686  14.035   9.931  1.00  0.00     0.174 HD
HETATM    6  C   UNK N   1      36.693  14.131  13.712  0.00  0.00     0.683 C 
HETATM    7  N   UNK N   1      37.010  14.319  15.074  0.00  0.00    -0.234 N 
HETATM    8  N   UNK N   1      36.886  12.983  13.175  0.00  0.00    -0.234 N 
ATOM      9  HN  UNK N   1      36.660  12.835  12.191  1.00  0.00     0.174 HD
HETATM   10  H   UNK N   1      35.172  17.157  11.432  0.00  0.00     0.177 HD
HETATM   11  H   UNK N   1      36.037  16.082  13.426  0.00  0.00     0.203 HD
HETATM   12  H   UNK N   1      36.305  13.267  11.360  0.00  0.00     0.174 HD
HETATM   13  H   UNK N   1      36.866  15.197  15.496  0.00  0.00     0.174 HD
HETATM   14  H   UNK N   1      37.376  13.573  15.602  0.00  0.00     0.174 HD
HETATM   15  H   UNK N   1      37.252  12.244  13.713  0.00  0.00     0.174 HD
ENDROOT
BRANCH   1  16
HETATM   16  C   UNK N   1      34.928  16.235   9.543  0.00  0.00     0.142 C 
BRANCH  16  17
HETATM   17  C   UNK N   1      34.600  17.585   8.928  0.00  0.00     0.058 C 
BRANCH  17  18
HETATM   18  C   UNK N   1      33.502  17.450   7.903  0.00  0.00    -0.057 A 
HETATM   19  C   UNK N   1      32.154  17.305   8.288  0.00  0.00     0.007 A 
HETATM   20  C   UNK N   1      31.149  17.181   7.328  0.00  0.00     0.001 A 
HETATM   21  C   UNK N   1      31.479  17.201   5.973  0.00  0.00     0.000 A 
HETATM   22  C   UNK N   1      32.813  17.345   5.578  0.00  0.00     0.001 A 
HETATM   23  C   UNK N   1      33.823  17.469   6.542  0.00  0.00     0.007 A 
ENDBRANCH  17  18
ENDBRANCH  16  17
ENDBRANCH   1  16
TORSDOF 3
ENDMDL
