MODEL 1
REMARK VINA RESULT:      -7.0      0.000      0.000
REMARK  1 active torsions:
REMARK  status: ('A' for Active; 'I' for Inactive)
REMARK    1  A    between atoms: C_3  and  N_16 
ROOT
HETATM    1  N   UNK N   1      20.544  15.269   9.186  0.00  0.00    -0.340 N 
ATOM      2  HN  UNK N   1      19.856  15.365   9.935  1.00  0.00     0.167 HD
HETATM    3  C   UNK N   1      20.455  16.230   8.321  0.00  0.00     0.117 C 
HETATM    4  C   UNK N   1      21.302  16.303   7.090  0.00  0.00     0.043 A 
HETATM    5  C   UNK N   1      22.525  13.777   8.617  0.00  0.00     0.060 A 
HETATM    6  C   UNK N   1      21.357  14.114   9.357  0.00  0.00     0.060 A 
HETATM    7  C   UNK N   1      20.966  13.259  10.400  0.00  0.00     0.032 A 
HETATM    8  C   UNK N   1      21.680  12.103  10.710  0.00  0.00     0.002 A 
HETATM    9  C   UNK N   1      23.237  12.618   8.956  0.00  0.00     0.032 A 
HETATM   10  C   UNK N   1      22.821  11.785   9.990  0.00  0.00     0.002 A 
HETATM   11  N   UNK N   1      23.034  14.503   7.524  0.00  0.00    -0.348 N 
HETATM   12  C   UNK N   1      22.429  15.533   6.791  0.00  0.00     0.089 A 
HETATM   13  C   UNK N   1      20.990  17.211   6.024  0.00  0.00     0.032 A 
HETATM   14  S   UNK N   1      22.988  15.993   5.303  0.00  0.00    -0.076 SA
HETATM   15  C   UNK N   1      21.865  17.137   4.946  0.00  0.00    -0.018 A 
HETATM   16  C   UNK N   1      21.775  17.921   3.688  0.00  0.00     0.056 C 
HETATM   17  H   UNK N   1      23.942  14.253   7.235  0.00  0.00     0.166 HD
ENDROOT
BRANCH   3  18
HETATM   18  N   UNK N   1      19.454  17.238   8.572  0.00  0.00    -0.363 N 
HETATM   19  C   UNK N   1      19.841  18.573   8.964  0.00  0.00     0.154 C 
HETATM   20  C   UNK N   1      19.155  18.888  10.296  0.00  0.00     0.291 C 
HETATM   21  N   UNK N   1      17.703  18.707  10.178  0.00  0.00     0.087 N 
HETATM   22  C   UNK N   1      17.393  17.325   9.810  0.00  0.00     0.291 C 
HETATM   23  C   UNK N   1      17.134  18.926  11.495  0.00  0.00     0.310 C 
HETATM   24  C   UNK N   1      18.034  16.986   8.471  0.00  0.00     0.154 C 
ENDBRANCH   3  18
TORSDOF 1
ENDMDL
MODEL 2
REMARK VINA RESULT:      -6.9     16.428     18.350
REMARK  1 active torsions:
REMARK  status: ('A' for Active; 'I' for Inactive)
REMARK    1  A    between atoms: C_3  and  N_16 
ROOT
HETATM    1  N   UNK N   1      28.107  25.164  -4.089  0.00  0.00    -0.340 N 
ATOM      2  HN  UNK N   1      28.565  25.581  -3.277  1.00  0.00     0.167 HD
HETATM    3  C   UNK N   1      28.682  24.064  -4.460  0.00  0.00     0.117 C 
HETATM    4  C   UNK N   1      28.252  23.279  -5.659  0.00  0.00     0.043 A 
HETATM    5  C   UNK N   1      26.026  25.566  -5.499  0.00  0.00     0.060 A 
HETATM    6  C   UNK N   1      26.997  25.940  -4.527  0.00  0.00     0.060 A 
HETATM    7  C   UNK N   1      26.844  27.179  -3.885  0.00  0.00     0.032 A 
HETATM    8  C   UNK N   1      25.789  28.038  -4.183  0.00  0.00     0.002 A 
HETATM    9  C   UNK N   1      24.963  26.438  -5.772  0.00  0.00     0.032 A 
HETATM   10  C   UNK N   1      24.843  27.664  -5.125  0.00  0.00     0.002 A 
HETATM   11  N   UNK N   1      26.048  24.380  -6.257  0.00  0.00    -0.348 N 
HETATM   12  C   UNK N   1      27.083  23.448  -6.406  0.00  0.00     0.089 A 
HETATM   13  C   UNK N   1      29.074  22.236  -6.200  0.00  0.00     0.032 A 
HETATM   14  S   UNK N   1      27.093  22.341  -7.635  0.00  0.00    -0.076 SA
HETATM   15  C   UNK N   1      28.537  21.622  -7.325  0.00  0.00    -0.018 A 
HETATM   16  C   UNK N   1      29.172  20.541  -8.122  0.00  0.00     0.056 C 
HETATM   17  H   UNK N   1      25.219  24.177  -6.749  0.00  0.00     0.166 HD
ENDROOT
BRANCH   3  18
HETATM   18  N   UNK N   1      29.812  23.628  -3.676  0.00  0.00    -0.363 N 
HETATM   19  C   UNK N   1      31.107  24.243  -3.850  0.00  0.00     0.154 C 
HETATM   20  C   UNK N   1      32.108  23.139  -4.200  0.00  0.00     0.291 C 
HETATM   21  N   UNK N   1      32.089  22.088  -3.175  0.00  0.00     0.087 N 
HETATM   22  C   UNK N   1      30.754  21.495  -3.082  0.00  0.00     0.291 C 
HETATM   23  C   UNK N   1      32.983  21.037  -3.620  0.00  0.00     0.310 C 
HETATM   24  C   UNK N   1      29.734  22.561  -2.703  0.00  0.00     0.154 C 
ENDBRANCH   3  18
TORSDOF 1
ENDMDL
MODEL 3
REMARK VINA RESULT:      -6.7     15.121     17.228
REMARK  1 active torsions:
REMARK  status: ('A' for Active; 'I' for Inactive)
REMARK    1  A    between atoms: C_3  and  N_16 
ROOT
HETATM    1  N   UNK N   1      36.963  14.078  13.575  0.00  0.00    -0.340 N 
ATOM      2  HN  UNK N   1      37.639  14.773  13.254  1.00  0.00     0.167 HD
HETATM    3  C   UNK N   1      36.612  13.269  12.625  0.00  0.00     0.117 C 
HETATM    4  C   UNK N   1      35.589  12.192  12.803  0.00  0.00     0.043 A 
HETATM    5  C   UNK N   1      35.894  13.348  15.766  0.00  0.00     0.060 A 
HETATM    6  C   UNK N   1      36.645  14.243  14.952  0.00  0.00     0.060 A 
HETATM    7  C   UNK N   1      37.176  15.395  15.553  0.00  0.00     0.032 A 
HETATM    8  C   UNK N   1      36.976  15.680  16.902  0.00  0.00     0.002 A 
HETATM    9  C   UNK N   1      35.720  13.646  17.125  0.00  0.00     0.032 A 
HETATM   10  C   UNK N   1      36.251  14.800  17.691  0.00  0.00     0.002 A 
HETATM   11  N   UNK N   1      35.267  12.170  15.318  0.00  0.00    -0.348 N 
HETATM   12  C   UNK N   1      35.039  11.738  14.005  0.00  0.00     0.089 A 
HETATM   13  C   UNK N   1      35.023  11.508  11.676  0.00  0.00     0.032 A 
HETATM   14  S   UNK N   1      33.943  10.550  13.653  0.00  0.00    -0.076 SA
HETATM   15  C   UNK N   1      34.073  10.552  12.016  0.00  0.00    -0.018 A 
HETATM   16  C   UNK N   1      33.293   9.716  11.068  0.00  0.00     0.056 C 
HETATM   17  H   UNK N   1      34.946  11.566  16.026  0.00  0.00     0.166 HD
ENDROOT
BRANCH   3  18
HETATM   18  N   UNK N   1      37.232  13.473  11.338  0.00  0.00    -0.363 N 
HETATM   19  C   UNK N   1      36.762  14.514  10.454  0.00  0.00     0.154 C 
HETATM   20  C   UNK N   1      36.376  13.860   9.124  0.00  0.00     0.291 C 
HETATM   21  N   UNK N   1      37.507  13.095   8.583  0.00  0.00     0.087 N 
HETATM   22  C   UNK N   1      37.901  12.043   9.522  0.00  0.00     0.291 C 
HETATM   23  C   UNK N   1      37.040  12.429   7.382  0.00  0.00     0.310 C 
HETATM   24  C   UNK N   1      38.324  12.660  10.849  0.00  0.00     0.154 C 
ENDBRANCH   3  18
TORSDOF 1
ENDMDL
MODEL 4
REMARK VINA RESULT:      -6.6      8.626     11.978
REMARK  1 active torsions:
REMARK  status: ('A' for Active; 'I' for Inactive)
REMARK    1  A    between atoms: C_3  and  N_16 
ROOT
HETATM    1  N   UNK N   1      29.240  18.220   4.451  0.00  0.00    -0.340 N 
ATOM      2  HN  UNK N   1      29.189  18.256   3.432  1.00  0.00     0.167 HD
HETATM    3  C   UNK N   1      30.195  17.445   4.861  0.00  0.00     0.117 C 
HETATM    4  C   UNK N   1      30.456  17.161   6.307  0.00  0.00     0.043 A 
HETATM    5  C   UNK N   1      28.144  19.364   6.443  0.00  0.00     0.060 A 
HETATM    6  C   UNK N   1      28.245  19.033   5.062  0.00  0.00     0.060 A 
HETATM    7  C   UNK N   1      27.302  19.586   4.180  0.00  0.00     0.032 A 
HETATM    8  C   UNK N   1      26.285  20.427   4.624  0.00  0.00     0.002 A 
HETATM    9  C   UNK N   1      27.123  20.225   6.866  0.00  0.00     0.032 A 
HETATM   10  C   UNK N   1      26.198  20.752   5.970  0.00  0.00     0.002 A 
HETATM   11  N   UNK N   1      28.983  18.872   7.462  0.00  0.00    -0.348 N 
HETATM   12  C   UNK N   1      29.909  17.822   7.411  0.00  0.00     0.089 A 
HETATM   13  C   UNK N   1      31.324  16.094   6.712  0.00  0.00     0.032 A 
HETATM   14  S   UNK N   1      30.506  17.114   8.782  0.00  0.00    -0.076 SA
HETATM   15  C   UNK N   1      31.440  15.954   8.090  0.00  0.00    -0.018 A 
HETATM   16  C   UNK N   1      32.232  14.920   8.803  0.00  0.00     0.056 C 
HETATM   17  H   UNK N   1      28.908  19.331   8.330  0.00  0.00     0.166 HD
ENDROOT
BRANCH   3  18
HETATM   18  N   UNK N   1      30.999  16.814   3.843  0.00  0.00    -0.363 N 
HETATM   19  C   UNK N   1      30.523  15.634   3.159  0.00  0.00     0.154 C 
HETATM   20  C   UNK N   1      31.564  14.528   3.353  0.00  0.00     0.291 C 
HETATM   21  N   UNK N   1      32.883  14.982   2.895  0.00  0.00     0.087 N 
HETATM   22  C   UNK N   1      33.307  16.158   3.656  0.00  0.00     0.291 C 
HETATM   23  C   UNK N   1      33.830  13.925   3.197  0.00  0.00     0.310 C 
HETATM   24  C   UNK N   1      32.309  17.292   3.461  0.00  0.00     0.154 C 
ENDBRANCH   3  18
TORSDOF 1
ENDMDL
MODEL 5
REMARK VINA RESULT:      -6.6      2.905      4.018
REMARK  1 active torsions:
REMARK  status: ('A' for Active; 'I' for Inactive)
REMARK    1  A    between atoms: C_3  and  N_16 
ROOT
HETATM    1  N   UNK N   1      21.944  14.171   8.498  0.00  0.00    -0.340 N 
ATOM      2  HN  UNK N   1      20.970  14.326   8.760  1.00  0.00     0.167 HD
HETATM    3  C   UNK N   1      22.241  14.742   7.373  0.00  0.00     0.117 C 
HETATM    4  C   UNK N   1      23.585  14.626   6.725  0.00  0.00     0.043 A 
HETATM    5  C   UNK N   1      24.034  13.132   9.514  0.00  0.00     0.060 A 
HETATM    6  C   UNK N   1      22.634  13.382   9.461  0.00  0.00     0.060 A 
HETATM    7  C   UNK N   1      21.828  12.841  10.476  0.00  0.00     0.032 A 
HETATM    8  C   UNK N   1      22.361  12.071  11.507  0.00  0.00     0.002 A 
HETATM    9  C   UNK N   1      24.552  12.369  10.569  0.00  0.00     0.032 A 
HETATM   10  C   UNK N   1      23.728  11.839  11.557  0.00  0.00     0.002 A 
HETATM   11  N   UNK N   1      24.976  13.569   8.562  0.00  0.00    -0.348 N 
HETATM   12  C   UNK N   1      24.756  14.115   7.291  0.00  0.00     0.089 A 
HETATM   13  C   UNK N   1      23.792  15.027   5.363  0.00  0.00     0.032 A 
HETATM   14  S   UNK N   1      25.954  14.194   6.153  0.00  0.00    -0.076 SA
HETATM   15  C   UNK N   1      25.092  14.834   4.911  0.00  0.00    -0.018 A 
HETATM   16  C   UNK N   1      25.595  15.117   3.542  0.00  0.00     0.056 C 
HETATM   17  H   UNK N   1      25.919  13.480   8.829  0.00  0.00     0.166 HD
ENDROOT
BRANCH   3  18
HETATM   18  N   UNK N   1      21.187  15.487   6.727  0.00  0.00    -0.363 N 
HETATM   19  C   UNK N   1      20.176  14.805   5.954  0.00  0.00     0.154 C 
HETATM   20  C   UNK N   1      20.189  15.395   4.541  0.00  0.00     0.291 C 
HETATM   21  N   UNK N   1      20.007  16.851   4.594  0.00  0.00     0.087 N 
HETATM   22  C   UNK N   1      21.087  17.468   5.366  0.00  0.00     0.291 C 
HETATM   23  C   UNK N   1      20.128  17.349   3.236  0.00  0.00     0.310 C 
HETATM   24  C   UNK N   1      21.084  16.928   6.790  0.00  0.00     0.154 C 
ENDBRANCH   3  18
TORSDOF 1
ENDMDL
MODEL 6
REMARK VINA RESULT:      -6.4      2.932      5.720
REMARK  1 active torsions:
REMARK  status: ('A' for Active; 'I' for Inactive)
REMARK    1  A    between atoms: C_3  and  N_16 
ROOT
HETATM    1  N   UNK N   1      23.823  13.667   8.159  0.00  0.00    -0.340 N 
ATOM      2  HN  UNK N   1      24.713  13.169   8.213  1.00  0.00     0.167 HD
HETATM    3  C   UNK N   1      23.797  14.507   7.172  0.00  0.00     0.117 C 
HETATM    4  C   UNK N   1      22.636  15.410   6.898  0.00  0.00     0.043 A 
HETATM    5  C   UNK N   1      21.549  13.603   9.298  0.00  0.00     0.060 A 
HETATM    6  C   UNK N   1      22.926  13.262   9.186  0.00  0.00     0.060 A 
HETATM    7  C   UNK N   1      23.474  12.402  10.152  0.00  0.00     0.032 A 
HETATM    8  C   UNK N   1      22.713  11.896  11.203  0.00  0.00     0.002 A 
HETATM    9  C   UNK N   1      20.797  13.070  10.355  0.00  0.00     0.032 A 
HETATM   10  C   UNK N   1      21.369  12.226  11.302  0.00  0.00     0.002 A 
HETATM   11  N   UNK N   1      20.853  14.475   8.439  0.00  0.00    -0.348 N 
HETATM   12  C   UNK N   1      21.362  15.349   7.470  0.00  0.00     0.089 A 
HETATM   13  C   UNK N   1      22.749  16.512   5.986  0.00  0.00     0.032 A 
HETATM   14  S   UNK N   1      20.456  16.583   6.842  0.00  0.00    -0.076 SA
HETATM   15  C   UNK N   1      21.585  17.262   5.862  0.00  0.00    -0.018 A 
HETATM   16  C   UNK N   1      21.411  18.477   5.026  0.00  0.00     0.056 C 
HETATM   17  H   UNK N   1      19.873  14.467   8.531  0.00  0.00     0.166 HD
ENDROOT
BRANCH   3  18
HETATM   18  N   UNK N   1      24.976  14.571   6.343  0.00  0.00    -0.363 N 
HETATM   19  C   UNK N   1      26.122  15.346   6.759  0.00  0.00     0.154 C 
HETATM   20  C   UNK N   1      26.426  16.362   5.654  0.00  0.00     0.291 C 
HETATM   21  N   UNK N   1      26.612  15.679   4.368  0.00  0.00     0.087 N 
HETATM   22  C   UNK N   1      25.398  14.945   4.004  0.00  0.00     0.291 C 
HETATM   23  C   UNK N   1      26.797  16.705   3.360  0.00  0.00     0.310 C 
HETATM   24  C   UNK N   1      25.083  13.901   5.067  0.00  0.00     0.154 C 
ENDBRANCH   3  18
TORSDOF 1
ENDMDL
MODEL 7
REMARK VINA RESULT:      -6.4     13.564     15.876
REMARK  1 active torsions:
REMARK  status: ('A' for Active; 'I' for Inactive)
REMARK    1  A    between atoms: C_3  and  N_16 
ROOT
HETATM    1  N   UNK N   1      35.233  13.899  12.505  0.00  0.00    -0.340 N 
ATOM      2  HN  UNK N   1      34.376  14.333  12.849  1.00  0.00     0.167 HD
HETATM    3  C   UNK N   1      35.545  14.315  11.318  0.00  0.00     0.117 C 
HETATM    4  C   UNK N   1      36.721  13.797  10.552  0.00  0.00     0.043 A 
HETATM    5  C   UNK N   1      37.056  12.356  13.385  0.00  0.00     0.060 A 
HETATM    6  C   UNK N   1      35.783  12.989  13.451  0.00  0.00     0.060 A 
HETATM    7  C   UNK N   1      34.981  12.741  14.577  0.00  0.00     0.032 A 
HETATM    8  C   UNK N   1      35.395  11.897  15.604  0.00  0.00     0.002 A 
HETATM    9  C   UNK N   1      37.460  11.524  14.437  0.00  0.00     0.032 A 
HETATM   10  C   UNK N   1      36.641  11.291  15.537  0.00  0.00     0.002 A 
HETATM   11  N   UNK N   1      37.967  12.469  12.317  0.00  0.00    -0.348 N 
HETATM   12  C   UNK N   1      37.763  13.000  11.037  0.00  0.00     0.089 A 
HETATM   13  C   UNK N   1      36.874  14.064   9.151  0.00  0.00     0.032 A 
HETATM   14  S   UNK N   1      38.798  12.689   9.784  0.00  0.00    -0.076 SA
HETATM   15  C   UNK N   1      38.010  13.492   8.589  0.00  0.00    -0.018 A 
HETATM   16  C   UNK N   1      38.412  13.563   7.161  0.00  0.00     0.056 C 
HETATM   17  H   UNK N   1      38.873  12.128  12.496  0.00  0.00     0.166 HD
ENDROOT
BRANCH   3  18
HETATM   18  N   UNK N   1      34.671  15.298  10.725  0.00  0.00    -0.363 N 
HETATM   19  C   UNK N   1      33.429  14.897  10.107  0.00  0.00     0.154 C 
HETATM   20  C   UNK N   1      33.442  15.398   8.661  0.00  0.00     0.291 C 
HETATM   21  N   UNK N   1      33.677  16.846   8.623  0.00  0.00     0.087 N 
HETATM   22  C   UNK N   1      34.966  17.166   9.238  0.00  0.00     0.291 C 
HETATM   23  C   UNK N   1      33.773  17.231   7.228  0.00  0.00     0.310 C 
HETATM   24  C   UNK N   1      34.978  16.711  10.691  0.00  0.00     0.154 C 
ENDBRANCH   3  18
TORSDOF 1
ENDMDL
MODEL 8
REMARK VINA RESULT:      -6.3      2.856      6.300
REMARK  1 active torsions:
REMARK  status: ('A' for Active; 'I' for Inactive)
REMARK    1  A    between atoms: C_3  and  N_16 
ROOT
HETATM    1  N   UNK N   1      21.206  16.811   5.707  0.00  0.00    -0.340 N 
ATOM      2  HN  UNK N   1      21.722  17.388   6.372  1.00  0.00     0.167 HD
HETATM    3  C   UNK N   1      20.988  15.619   6.167  0.00  0.00     0.117 C 
HETATM    4  C   UNK N   1      20.305  14.549   5.375  0.00  0.00     0.043 A 
HETATM    5  C   UNK N   1      20.049  17.092   3.458  0.00  0.00     0.060 A 
HETATM    6  C   UNK N   1      20.908  17.519   4.509  0.00  0.00     0.060 A 
HETATM    7  C   UNK N   1      21.504  18.786   4.401  0.00  0.00     0.032 A 
HETATM    8  C   UNK N   1      21.284  19.612   3.301  0.00  0.00     0.002 A 
HETATM    9  C   UNK N   1      19.829  17.945   2.368  0.00  0.00     0.032 A 
HETATM   10  C   UNK N   1      20.440  19.192   2.284  0.00  0.00     0.002 A 
HETATM   11  N   UNK N   1      19.401  15.844   3.392  0.00  0.00    -0.348 N 
HETATM   12  C   UNK N   1      19.613  14.699   4.170  0.00  0.00     0.089 A 
HETATM   13  C   UNK N   1      20.332  13.178   5.798  0.00  0.00     0.032 A 
HETATM   14  S   UNK N   1      19.064  13.209   3.703  0.00  0.00    -0.076 SA
HETATM   15  C   UNK N   1      19.667  12.311   4.939  0.00  0.00    -0.018 A 
HETATM   16  C   UNK N   1      19.559  10.838   5.091  0.00  0.00     0.056 C 
HETATM   17  H   UNK N   1      18.701  15.767   2.704  0.00  0.00     0.166 HD
ENDROOT
BRANCH   3  18
HETATM   18  N   UNK N   1      21.475  15.338   7.496  0.00  0.00    -0.363 N 
HETATM   19  C   UNK N   1      22.754  14.694   7.687  0.00  0.00     0.154 C 
HETATM   20  C   UNK N   1      22.521  13.425   8.511  0.00  0.00     0.291 C 
HETATM   21  N   UNK N   1      21.832  13.749   9.766  0.00  0.00     0.087 N 
HETATM   22  C   UNK N   1      20.535  14.367   9.486  0.00  0.00     0.291 C 
HETATM   23  C   UNK N   1      21.560  12.496  10.443  0.00  0.00     0.310 C 
HETATM   24  C   UNK N   1      20.730  15.653   8.694  0.00  0.00     0.154 C 
ENDBRANCH   3  18
TORSDOF 1
ENDMDL
MODEL 9
REMARK VINA RESULT:      -6.3      8.873     11.631
REMARK  1 active torsions:
REMARK  status: ('A' for Active; 'I' for Inactive)
REMARK    1  A    between atoms: C_3  and  N_16 
ROOT
HETATM    1  N   UNK N   1      29.606  18.248   7.023  0.00  0.00    -0.340 N 
ATOM      2  HN  UNK N   1      29.548  18.523   8.005  1.00  0.00     0.167 HD
HETATM    3  C   UNK N   1      30.618  17.471   6.797  0.00  0.00     0.117 C 
HETATM    4  C   UNK N   1      30.974  16.967   5.433  0.00  0.00     0.043 A 
HETATM    5  C   UNK N   1      28.221  18.501   4.903  0.00  0.00     0.060 A 
HETATM    6  C   UNK N   1      28.555  18.817   6.250  0.00  0.00     0.060 A 
HETATM    7  C   UNK N   1      27.756  19.753   6.927  0.00  0.00     0.032 A 
HETATM    8  C   UNK N   1      26.671  20.374   6.313  0.00  0.00     0.002 A 
HETATM    9  C   UNK N   1      27.115  19.125   4.310  0.00  0.00     0.032 A 
HETATM   10  C   UNK N   1      26.346  20.054   5.003  0.00  0.00     0.002 A 
HETATM   11  N   UNK N   1      28.934  17.614   4.074  0.00  0.00    -0.348 N 
HETATM   12  C   UNK N   1      30.198  17.044   4.274  0.00  0.00     0.089 A 
HETATM   13  C   UNK N   1      32.243  16.351   5.175  0.00  0.00     0.032 A 
HETATM   14  S   UNK N   1      31.055  16.358   3.035  0.00  0.00    -0.076 SA
HETATM   15  C   UNK N   1      32.421  15.960   3.853  0.00  0.00    -0.018 A 
HETATM   16  C   UNK N   1      33.640  15.333   3.281  0.00  0.00     0.056 C 
HETATM   17  H   UNK N   1      28.479  17.358   3.239  0.00  0.00     0.166 HD
ENDROOT
BRANCH   3  18
HETATM   18  N   UNK N   1      31.437  17.125   7.933  0.00  0.00    -0.363 N 
HETATM   19  C   UNK N   1      32.459  18.033   8.402  0.00  0.00     0.154 C 
HETATM   20  C   UNK N   1      33.794  17.282   8.390  0.00  0.00     0.291 C 
HETATM   21  N   UNK N   1      33.694  16.049   9.179  0.00  0.00     0.087 N 
HETATM   22  C   UNK N   1      32.662  15.173   8.622  0.00  0.00     0.291 C 
HETATM   23  C   UNK N   1      34.956  15.347   9.042  0.00  0.00     0.310 C 
HETATM   24  C   UNK N   1      31.311  15.876   8.649  0.00  0.00     0.154 C 
ENDBRANCH   3  18
TORSDOF 1
ENDMDL
