MODEL 1
REMARK VINA RESULT:      -6.2      0.000      0.000
REMARK  4 active torsions:
REMARK  status: ('A' for Active; 'I' for Inactive)
REMARK    1  A    between atoms: N_2  and  C_1 
REMARK       I    between atoms: C_9  and  N_2 
REMARK    2  A    between atoms: C_12  and  C_9 
REMARK    3  A    between atoms: C_18  and  N_13 
REMARK    4  A    between atoms: C_19  and  C_18 
ROOT
HETATM    1  N   UNK N   1      35.104  12.613  15.734  0.00  0.00    -0.324 N 
HETATM    2  C   UNK N   1      36.129  13.006  14.927  0.00  0.00     0.255 C 
HETATM    3  O   UNK N   1      37.254  13.159  15.368  0.00  0.00    -0.271 OA
HETATM    4  H   UNK N   1      34.213  12.601  15.314  0.00  0.00     0.169 HD
ENDROOT
BRANCH   2   5
HETATM    5  C   UNK N   1      35.821  13.340  13.479  0.00  0.00     0.314 C 
HETATM    6  N   UNK N   1      36.587  12.516  12.517  0.00  0.00     0.102 N 
HETATM    7  C   UNK N   1      36.252  12.911  11.145  0.00  0.00     0.273 C 
HETATM    8  C   UNK N   1      36.625  14.365  10.889  0.00  0.00     0.030 C 
HETATM    9  C   UNK N   1      35.838  15.248  11.841  0.00  0.00     0.004 C 
HETATM   10  C   UNK N   1      36.128  14.829  13.273  0.00  0.00     0.046 C 
BRANCH   6  11
HETATM   11  C   UNK N   1      36.149  11.131  12.632  0.00  0.00     0.273 C 
BRANCH  11  12
HETATM   12  C   UNK N   1      34.810  10.958  11.944  0.00  0.00     0.026 C 
HETATM   13  C   UNK N   1      33.827  10.333  12.910  0.00  0.00     0.007 C 
ENDBRANCH  11  12
ENDBRANCH   6  11
ENDBRANCH   2   5
BRANCH   1  14
HETATM   14  C   UNK N   1      35.145  12.214  17.110  0.00  0.00     0.046 A 
HETATM   15  C   UNK N   1      35.144  10.829  17.388  0.00  0.00    -0.035 A 
HETATM   16  C   UNK N   1      35.213  10.366  18.704  0.00  0.00     0.009 A 
HETATM   17  C   UNK N   1      35.062   9.828  16.286  0.00  0.00     0.050 C 
HETATM   18  C   UNK N   1      35.295  11.265  19.762  0.00  0.00     0.001 A 
HETATM   19  C   UNK N   1      35.318  12.636  19.510  0.00  0.00     0.009 A 
HETATM   20  C   UNK N   1      35.246  13.125  18.201  0.00  0.00    -0.035 A 
HETATM   21  C   UNK N   1      35.350  14.601  18.029  0.00  0.00     0.050 C 
ENDBRANCH   1  14
TORSDOF 4
ENDMDL
MODEL 2
REMARK VINA RESULT:      -6.0      0.282      1.960
REMARK  4 active torsions:
REMARK  status: ('A' for Active; 'I' for Inactive)
REMARK    1  A    between atoms: N_2  and  C_1 
REMARK       I    between atoms: C_9  and  N_2 
REMARK    2  A    between atoms: C_12  and  C_9 
REMARK    3  A    between atoms: C_18  and  N_13 
REMARK    4  A    between atoms: C_19  and  C_18 
ROOT
HETATM    1  N   UNK N   1      35.178  12.451  15.731  0.00  0.00    -0.324 N 
HETATM    2  C   UNK N   1      36.190  12.667  14.844  0.00  0.00     0.255 C 
HETATM    3  O   UNK N   1      37.355  12.524  15.172  0.00  0.00    -0.271 OA
HETATM    4  H   UNK N   1      34.276  12.675  15.409  0.00  0.00     0.169 HD
ENDROOT
BRANCH   2   5
HETATM    5  C   UNK N   1      35.840  13.178  13.460  0.00  0.00     0.314 C 
HETATM    6  N   UNK N   1      36.521  12.436  12.376  0.00  0.00     0.102 N 
HETATM    7  C   UNK N   1      36.150  13.002  11.074  0.00  0.00     0.273 C 
HETATM    8  C   UNK N   1      36.587  14.457  10.966  0.00  0.00     0.030 C 
HETATM    9  C   UNK N   1      35.886  15.260  12.048  0.00  0.00     0.004 C 
HETATM   10  C   UNK N   1      36.215  14.665  13.408  0.00  0.00     0.046 C 
BRANCH   6  11
HETATM   11  C   UNK N   1      36.018  11.069  12.354  0.00  0.00     0.273 C 
BRANCH  11  12
HETATM   12  C   UNK N   1      34.555  11.068  11.959  0.00  0.00     0.026 C 
HETATM   13  C   UNK N   1      33.783  10.160  12.891  0.00  0.00     0.007 C 
ENDBRANCH  11  12
ENDBRANCH   6  11
ENDBRANCH   2   5
BRANCH   1  14
HETATM   14  C   UNK N   1      35.250  11.941  17.069  0.00  0.00     0.046 A 
HETATM   15  C   UNK N   1      35.288  12.880  18.124  0.00  0.00    -0.035 A 
HETATM   16  C   UNK N   1      35.328  12.457  19.454  0.00  0.00     0.009 A 
HETATM   17  C   UNK N   1      35.294  14.345  17.843  0.00  0.00     0.050 C 
HETATM   18  C   UNK N   1      35.320  11.100  19.761  0.00  0.00     0.001 A 
HETATM   19  C   UNK N   1      35.262  10.156  18.737  0.00  0.00     0.009 A 
HETATM   20  C   UNK N   1      35.225  10.554  17.395  0.00  0.00    -0.035 A 
HETATM   21  C   UNK N   1      35.091   9.475  16.378  0.00  0.00     0.050 C 
ENDBRANCH   1  14
TORSDOF 4
ENDMDL
MODEL 3
REMARK VINA RESULT:      -6.0      1.900      3.731
REMARK  4 active torsions:
REMARK  status: ('A' for Active; 'I' for Inactive)
REMARK    1  A    between atoms: N_2  and  C_1 
REMARK       I    between atoms: C_9  and  N_2 
REMARK    2  A    between atoms: C_12  and  C_9 
REMARK    3  A    between atoms: C_18  and  N_13 
REMARK    4  A    between atoms: C_19  and  C_18 
ROOT
HETATM    1  N   UNK N   1      36.836  13.502  14.405  0.00  0.00    -0.324 N 
HETATM    2  C   UNK N   1      36.168  13.629  13.223  0.00  0.00     0.255 C 
HETATM    3  O   UNK N   1      34.959  13.777  13.197  0.00  0.00    -0.271 OA
HETATM    4  H   UNK N   1      37.796  13.297  14.331  0.00  0.00     0.169 HD
ENDROOT
BRANCH   2   5
HETATM    5  C   UNK N   1      36.953  13.491  11.933  0.00  0.00     0.314 C 
HETATM    6  N   UNK N   1      36.356  14.243  10.806  0.00  0.00     0.102 N 
HETATM    7  C   UNK N   1      37.156  14.043   9.593  0.00  0.00     0.273 C 
HETATM    8  C   UNK N   1      37.181  12.574   9.191  0.00  0.00     0.030 C 
HETATM    9  C   UNK N   1      37.813  11.770  10.313  0.00  0.00     0.004 C 
HETATM   10  C   UNK N   1      37.032  11.996  11.597  0.00  0.00     0.046 C 
BRANCH   6  11
HETATM   11  C   UNK N   1      36.447  15.669  11.092  0.00  0.00     0.273 C 
BRANCH  11  12
HETATM   12  C   UNK N   1      35.123  16.338  10.782  0.00  0.00     0.026 C 
HETATM   13  C   UNK N   1      34.163  15.314  10.217  0.00  0.00     0.007 C 
ENDBRANCH  11  12
ENDBRANCH   6  11
ENDBRANCH   2   5
BRANCH   1  14
HETATM   14  C   UNK N   1      36.331  13.625  15.740  0.00  0.00     0.046 A 
HETATM   15  C   UNK N   1      36.623  14.816  16.442  0.00  0.00    -0.035 A 
HETATM   16  C   UNK N   1      36.139  15.019  17.736  0.00  0.00     0.009 A 
HETATM   17  C   UNK N   1      37.461  15.882  15.821  0.00  0.00     0.050 C 
HETATM   18  C   UNK N   1      35.350  14.052  18.351  0.00  0.00     0.001 A 
HETATM   19  C   UNK N   1      35.032  12.878  17.671  0.00  0.00     0.009 A 
HETATM   20  C   UNK N   1      35.508  12.649  16.374  0.00  0.00    -0.035 A 
HETATM   21  C   UNK N   1      35.055  11.399  15.704  0.00  0.00     0.050 C 
ENDBRANCH   1  14
TORSDOF 4
ENDMDL
MODEL 4
REMARK VINA RESULT:      -5.7     10.063     13.437
REMARK  4 active torsions:
REMARK  status: ('A' for Active; 'I' for Inactive)
REMARK    1  A    between atoms: N_2  and  C_1 
REMARK       I    between atoms: C_9  and  N_2 
REMARK    2  A    between atoms: C_12  and  C_9 
REMARK    3  A    between atoms: C_18  and  N_13 
REMARK    4  A    between atoms: C_19  and  C_18 
ROOT
HETATM    1  N   UNK N   1      29.114  18.071   5.538  0.00  0.00    -0.324 N 
HETATM    2  C   UNK N   1      29.492  16.929   6.177  0.00  0.00     0.255 C 
HETATM    3  O   UNK N   1      28.683  16.055   6.435  0.00  0.00    -0.271 OA
HETATM    4  H   UNK N   1      29.812  18.760   5.450  0.00  0.00     0.169 HD
ENDROOT
BRANCH   2   5
HETATM    5  C   UNK N   1      30.930  16.805   6.645  0.00  0.00     0.314 C 
HETATM    6  N   UNK N   1      31.240  17.666   7.808  0.00  0.00     0.102 N 
HETATM    7  C   UNK N   1      32.648  17.507   8.185  0.00  0.00     0.273 C 
HETATM    8  C   UNK N   1      33.569  17.936   7.051  0.00  0.00     0.030 C 
HETATM    9  C   UNK N   1      33.301  17.055   5.843  0.00  0.00     0.004 C 
HETATM   10  C   UNK N   1      31.834  17.162   5.458  0.00  0.00     0.046 C 
BRANCH   6  11
HETATM   11  C   UNK N   1      30.481  17.193   8.959  0.00  0.00     0.273 C 
BRANCH  11  12
HETATM   12  C   UNK N   1      29.618  18.315   9.499  0.00  0.00     0.026 C 
HETATM   13  C   UNK N   1      28.159  17.934   9.370  0.00  0.00     0.007 C 
ENDBRANCH  11  12
ENDBRANCH   6  11
ENDBRANCH   2   5
BRANCH   1  14
HETATM   14  C   UNK N   1      27.839  18.407   4.976  0.00  0.00     0.046 A 
HETATM   15  C   UNK N   1      27.169  19.532   5.506  0.00  0.00    -0.035 A 
HETATM   16  C   UNK N   1      25.936  19.936   4.988  0.00  0.00     0.009 A 
HETATM   17  C   UNK N   1      27.756  20.311   6.634  0.00  0.00     0.050 C 
HETATM   18  C   UNK N   1      25.355  19.241   3.933  0.00  0.00     0.001 A 
HETATM   19  C   UNK N   1      26.008  18.140   3.381  0.00  0.00     0.009 A 
HETATM   20  C   UNK N   1      27.242  17.712   3.885  0.00  0.00    -0.035 A 
HETATM   21  C   UNK N   1      27.895  16.572   3.184  0.00  0.00     0.050 C 
ENDBRANCH   1  14
TORSDOF 4
ENDMDL
MODEL 5
REMARK VINA RESULT:      -5.7     10.356     13.596
REMARK  4 active torsions:
REMARK  status: ('A' for Active; 'I' for Inactive)
REMARK    1  A    between atoms: N_2  and  C_1 
REMARK       I    between atoms: C_9  and  N_2 
REMARK    2  A    between atoms: C_12  and  C_9 
REMARK    3  A    between atoms: C_18  and  N_13 
REMARK    4  A    between atoms: C_19  and  C_18 
ROOT
HETATM    1  N   UNK N   1      28.936  18.178   5.080  0.00  0.00    -0.324 N 
HETATM    2  C   UNK N   1      29.273  17.172   5.935  0.00  0.00     0.255 C 
HETATM    3  O   UNK N   1      28.430  16.615   6.615  0.00  0.00    -0.271 OA
HETATM    4  H   UNK N   1      29.690  18.631   4.637  0.00  0.00     0.169 HD
ENDROOT
BRANCH   2   5
HETATM    5  C   UNK N   1      30.740  16.817   6.089  0.00  0.00     0.314 C 
HETATM    6  N   UNK N   1      31.427  17.620   7.125  0.00  0.00     0.102 N 
HETATM    7  C   UNK N   1      32.840  17.236   7.199  0.00  0.00     0.273 C 
HETATM    8  C   UNK N   1      33.550  17.505   5.879  0.00  0.00     0.030 C 
HETATM    9  C   UNK N   1      32.890  16.676   4.791  0.00  0.00     0.004 C 
HETATM   10  C   UNK N   1      31.410  17.019   4.724  0.00  0.00     0.046 C 
BRANCH   6  11
HETATM   11  C   UNK N   1      30.871  17.280   8.429  0.00  0.00     0.273 C 
BRANCH  11  12
HETATM   12  C   UNK N   1      30.414  18.541   9.135  0.00  0.00     0.026 C 
HETATM   13  C   UNK N   1      28.962  18.396   9.533  0.00  0.00     0.007 C 
ENDBRANCH  11  12
ENDBRANCH   6  11
ENDBRANCH   2   5
BRANCH   1  14
HETATM   14  C   UNK N   1      27.633  18.669   4.739  0.00  0.00     0.046 A 
HETATM   15  C   UNK N   1      26.862  17.900   3.839  0.00  0.00    -0.035 A 
HETATM   16  C   UNK N   1      25.572  18.300   3.484  0.00  0.00     0.009 A 
HETATM   17  C   UNK N   1      27.407  16.647   3.242  0.00  0.00     0.050 C 
HETATM   18  C   UNK N   1      25.023  19.460   4.021  0.00  0.00     0.001 A 
HETATM   19  C   UNK N   1      25.758  20.224   4.925  0.00  0.00     0.009 A 
HETATM   20  C   UNK N   1      27.055  19.847   5.294  0.00  0.00    -0.035 A 
HETATM   21  C   UNK N   1      27.732  20.686   6.321  0.00  0.00     0.050 C 
ENDBRANCH   1  14
TORSDOF 4
ENDMDL
MODEL 6
REMARK VINA RESULT:      -5.5      2.619      7.384
REMARK  4 active torsions:
REMARK  status: ('A' for Active; 'I' for Inactive)
REMARK    1  A    between atoms: N_2  and  C_1 
REMARK       I    between atoms: C_9  and  N_2 
REMARK    2  A    between atoms: C_12  and  C_9 
REMARK    3  A    between atoms: C_18  and  N_13 
REMARK    4  A    between atoms: C_19  and  C_18 
ROOT
HETATM    1  N   UNK N   1      34.219  13.758  11.390  0.00  0.00    -0.324 N 
HETATM    2  C   UNK N   1      35.094  12.915  12.007  0.00  0.00     0.255 C 
HETATM    3  O   UNK N   1      36.032  12.427  11.400  0.00  0.00    -0.271 OA
HETATM    4  H   UNK N   1      33.443  14.035  11.930  0.00  0.00     0.169 HD
ENDROOT
BRANCH   2   5
HETATM    5  C   UNK N   1      34.824  12.522  13.447  0.00  0.00     0.314 C 
HETATM    6  N   UNK N   1      36.025  12.606  14.308  0.00  0.00     0.102 N 
HETATM    7  C   UNK N   1      35.690  12.191  15.674  0.00  0.00     0.273 C 
HETATM    8  C   UNK N   1      35.217  10.744  15.705  0.00  0.00     0.030 C 
HETATM    9  C   UNK N   1      33.966  10.620  14.852  0.00  0.00     0.004 C 
HETATM   10  C   UNK N   1      34.271  11.090  13.439  0.00  0.00     0.046 C 
BRANCH   6  11
HETATM   11  C   UNK N   1      36.425  14.003  14.421  0.00  0.00     0.273 C 
BRANCH  11  12
HETATM   12  C   UNK N   1      36.970  14.268  15.811  0.00  0.00     0.026 C 
HETATM   13  C   UNK N   1      37.404  15.714  15.912  0.00  0.00     0.007 C 
ENDBRANCH  11  12
ENDBRANCH   6  11
ENDBRANCH   2   5
BRANCH   1  14
HETATM   14  C   UNK N   1      34.275  14.299  10.064  0.00  0.00     0.046 A 
HETATM   15  C   UNK N   1      34.846  15.581   9.905  0.00  0.00    -0.035 A 
HETATM   16  C   UNK N   1      34.961  16.158   8.638  0.00  0.00     0.009 A 
HETATM   17  C   UNK N   1      35.334  16.352  11.085  0.00  0.00     0.050 C 
HETATM   18  C   UNK N   1      34.523  15.471   7.511  0.00  0.00     0.001 A 
HETATM   19  C   UNK N   1      33.975  14.197   7.641  0.00  0.00     0.009 A 
HETATM   20  C   UNK N   1      33.844  13.598   8.900  0.00  0.00    -0.035 A 
HETATM   21  C   UNK N   1      33.314  12.207   8.930  0.00  0.00     0.050 C 
ENDBRANCH   1  14
TORSDOF 4
ENDMDL
MODEL 7
REMARK VINA RESULT:      -5.5     11.182     13.760
REMARK  4 active torsions:
REMARK  status: ('A' for Active; 'I' for Inactive)
REMARK    1  A    between atoms: N_2  and  C_1 
REMARK       I    between atoms: C_9  and  N_2 
REMARK    2  A    between atoms: C_12  and  C_9 
REMARK    3  A    between atoms: C_18  and  N_13 
REMARK    4  A    between atoms: C_19  and  C_18 
ROOT
HETATM    1  N   UNK N   1      28.935  17.080   5.661  0.00  0.00    -0.324 N 
HETATM    2  C   UNK N   1      28.394  17.933   4.747  0.00  0.00     0.255 C 
HETATM    3  O   UNK N   1      28.683  19.117   4.743  0.00  0.00    -0.271 OA
HETATM    4  H   UNK N   1      28.580  16.162   5.648  0.00  0.00     0.169 HD
ENDROOT
BRANCH   2   5
HETATM    5  C   UNK N   1      27.350  17.396   3.786  0.00  0.00     0.314 C 
HETATM    6  N   UNK N   1      26.027  17.196   4.418  0.00  0.00     0.102 N 
HETATM    7  C   UNK N   1      25.081  16.656   3.435  0.00  0.00     0.273 C 
HETATM    8  C   UNK N   1      25.543  15.298   2.922  0.00  0.00     0.030 C 
HETATM    9  C   UNK N   1      26.890  15.465   2.240  0.00  0.00     0.004 C 
HETATM   10  C   UNK N   1      27.880  16.070   3.223  0.00  0.00     0.046 C 
BRANCH   6  11
HETATM   11  C   UNK N   1      25.484  18.496   4.793  0.00  0.00     0.273 C 
BRANCH  11  12
HETATM   12  C   UNK N   1      24.819  19.139   3.593  0.00  0.00     0.026 C 
HETATM   13  C   UNK N   1      25.582  20.387   3.204  0.00  0.00     0.007 C 
ENDBRANCH  11  12
ENDBRANCH   6  11
ENDBRANCH   2   5
BRANCH   1  14
HETATM   14  C   UNK N   1      29.952  17.336   6.638  0.00  0.00     0.046 A 
HETATM   15  C   UNK N   1      31.292  17.082   6.268  0.00  0.00    -0.035 A 
HETATM   16  C   UNK N   1      32.337  17.337   7.158  0.00  0.00     0.009 A 
HETATM   17  C   UNK N   1      31.622  16.531   4.922  0.00  0.00     0.050 C 
HETATM   18  C   UNK N   1      32.074  17.855   8.422  0.00  0.00     0.001 A 
HETATM   19  C   UNK N   1      30.762  18.132   8.801  0.00  0.00     0.009 A 
HETATM   20  C   UNK N   1      29.696  17.882   7.929  0.00  0.00    -0.035 A 
HETATM   21  C   UNK N   1      28.339  18.278   8.397  0.00  0.00     0.050 C 
ENDBRANCH   1  14
TORSDOF 4
ENDMDL
MODEL 8
REMARK VINA RESULT:      -5.5      9.964     12.983
REMARK  4 active torsions:
REMARK  status: ('A' for Active; 'I' for Inactive)
REMARK    1  A    between atoms: N_2  and  C_1 
REMARK       I    between atoms: C_9  and  N_2 
REMARK    2  A    between atoms: C_12  and  C_9 
REMARK    3  A    between atoms: C_18  and  N_13 
REMARK    4  A    between atoms: C_19  and  C_18 
ROOT
HETATM    1  N   UNK N   1      30.482  17.618   5.594  0.00  0.00    -0.324 N 
HETATM    2  C   UNK N   1      29.405  16.787   5.507  0.00  0.00     0.255 C 
HETATM    3  O   UNK N   1      29.441  15.661   5.971  0.00  0.00    -0.271 OA
HETATM    4  H   UNK N   1      30.397  18.475   5.115  0.00  0.00     0.169 HD
ENDROOT
BRANCH   2   5
HETATM    5  C   UNK N   1      28.186  17.263   4.739  0.00  0.00     0.314 C 
HETATM    6  N   UNK N   1      27.094  17.737   5.618  0.00  0.00     0.102 N 
HETATM    7  C   UNK N   1      25.947  18.157   4.806  0.00  0.00     0.273 C 
HETATM    8  C   UNK N   1      25.397  16.992   3.993  0.00  0.00     0.030 C 
HETATM    9  C   UNK N   1      26.482  16.492   3.057  0.00  0.00     0.004 C 
HETATM   10  C   UNK N   1      27.704  16.094   3.869  0.00  0.00     0.046 C 
BRANCH   6  11
HETATM   11  C   UNK N   1      27.535  18.943   6.307  0.00  0.00     0.273 C 
BRANCH  11  12
HETATM   12  C   UNK N   1      27.551  20.109   5.338  0.00  0.00     0.026 C 
HETATM   13  C   UNK N   1      27.272  21.391   6.091  0.00  0.00     0.007 C 
ENDBRANCH  11  12
ENDBRANCH   6  11
ENDBRANCH   2   5
BRANCH   1  14
HETATM   14  C   UNK N   1      31.720  17.415   6.285  0.00  0.00     0.046 A 
HETATM   15  C   UNK N   1      32.875  17.186   5.504  0.00  0.00    -0.035 A 
HETATM   16  C   UNK N   1      34.121  17.009   6.108  0.00  0.00     0.009 A 
HETATM   17  C   UNK N   1      32.790  17.120   4.016  0.00  0.00     0.050 C 
HETATM   18  C   UNK N   1      34.246  17.067   7.492  0.00  0.00     0.001 A 
HETATM   19  C   UNK N   1      33.125  17.312   8.282  0.00  0.00     0.009 A 
HETATM   20  C   UNK N   1      31.863  17.488   7.702  0.00  0.00    -0.035 A 
HETATM   21  C   UNK N   1      30.740  17.817   8.622  0.00  0.00     0.050 C 
ENDBRANCH   1  14
TORSDOF 4
ENDMDL
MODEL 9
REMARK VINA RESULT:      -5.5     14.549     16.161
REMARK  4 active torsions:
REMARK  status: ('A' for Active; 'I' for Inactive)
REMARK    1  A    between atoms: N_2  and  C_1 
REMARK       I    between atoms: C_9  and  N_2 
REMARK    2  A    between atoms: C_12  and  C_9 
REMARK    3  A    between atoms: C_18  and  N_13 
REMARK    4  A    between atoms: C_19  and  C_18 
ROOT
HETATM    1  N   UNK N   1      22.377  14.041   8.181  0.00  0.00    -0.324 N 
HETATM    2  C   UNK N   1      21.613  13.635   7.127  0.00  0.00     0.255 C 
HETATM    3  O   UNK N   1      21.256  12.475   7.020  0.00  0.00    -0.271 OA
HETATM    4  H   UNK N   1      22.694  14.972   8.142  0.00  0.00     0.169 HD
ENDROOT
BRANCH   2   5
HETATM    5  C   UNK N   1      21.291  14.641   6.039  0.00  0.00     0.314 C 
HETATM    6  N   UNK N   1      20.193  15.563   6.406  0.00  0.00     0.102 N 
HETATM    7  C   UNK N   1      19.926  16.487   5.299  0.00  0.00     0.273 C 
HETATM    8  C   UNK N   1      19.482  15.733   4.052  0.00  0.00     0.030 C 
HETATM    9  C   UNK N   1      20.596  14.793   3.626  0.00  0.00     0.004 C 
HETATM   10  C   UNK N   1      20.928  13.853   4.774  0.00  0.00     0.046 C 
BRANCH   6  11
HETATM   11  C   UNK N   1      20.636  16.407   7.508  0.00  0.00     0.273 C 
BRANCH  11  12
HETATM   12  C   UNK N   1      19.562  16.458   8.577  0.00  0.00     0.026 C 
HETATM   13  C   UNK N   1      19.404  17.883   9.062  0.00  0.00     0.007 C 
ENDBRANCH  11  12
ENDBRANCH   6  11
ENDBRANCH   2   5
BRANCH   1  14
HETATM   14  C   UNK N   1      22.781  13.297   9.337  0.00  0.00     0.046 A 
HETATM   15  C   UNK N   1      24.156  13.003   9.476  0.00  0.00    -0.035 A 
HETATM   16  C   UNK N   1      24.627  12.307  10.592  0.00  0.00     0.009 A 
HETATM   17  C   UNK N   1      25.136  13.421   8.433  0.00  0.00     0.050 C 
HETATM   18  C   UNK N   1      23.748  11.903  11.591  0.00  0.00     0.001 A 
HETATM   19  C   UNK N   1      22.390  12.199  11.485  0.00  0.00     0.009 A 
HETATM   20  C   UNK N   1      21.892  12.892  10.374  0.00  0.00    -0.035 A 
HETATM   21  C   UNK N   1      20.441  13.225  10.386  0.00  0.00     0.050 C 
ENDBRANCH   1  14
TORSDOF 4
ENDMDL
