MODEL 1
REMARK VINA RESULT:      -7.3      0.000      0.000
REMARK  11 active torsions:
REMARK  status: ('A' for Active; 'I' for Inactive)
REMARK    1  A    between atoms: C_14  and  C_51 
REMARK    2  A    between atoms: C_17  and  C_18 
REMARK    3  A    between atoms: C_17  and  C_19 
REMARK    4  A    between atoms: C_18  and  O_49 
REMARK    5  A    between atoms: C_20  and  O_46 
REMARK    6  A    between atoms: C_28  and  C_38 
REMARK    7  A    between atoms: C_28  and  O_53 
REMARK    8  A    between atoms: C_29  and  O_41 
REMARK    9  A    between atoms: C_30  and  C_39 
REMARK   10  A    between atoms: C_38  and  O_55 
REMARK   11  A    between atoms: O_41  and  C_42 
ROOT
HETATM    1  C   UNK N   1      25.932  14.799   4.852  0.00  0.00     0.000 A 
HETATM    2  C   UNK N   1      25.591  15.517   6.081  0.00  0.00     0.078 A 
HETATM    3  C   UNK N   1      26.621  16.095   6.871  0.00  0.00     0.067 A 
HETATM    4  C   UNK N   1      27.310  14.654   4.582  0.00  0.00     0.022 A 
HETATM    5  C   UNK N   1      28.279  15.234   5.385  0.00  0.00    -0.018 A 
HETATM    6  C   UNK N   1      27.941  15.967   6.474  0.00  0.00     0.040 A 
HETATM    7  N   UNK N   1      29.071  16.611   7.006  0.00  0.00    -0.375 N 
HETATM    8  C   UNK N   1      29.735  15.481   5.052  0.00  0.00     0.047 C 
HETATM    9  C   UNK N   1      30.247  15.975   6.439  0.00  0.00     0.146 C 
HETATM   10  C   UNK N   1      31.708  16.510   6.406  0.00  0.00     0.194 C 
HETATM   11  C   UNK N   1      32.543  15.242   5.912  0.00  0.00     0.193 C 
HETATM   12  C   UNK N   1      32.125  14.675   4.520  0.00  0.00     0.039 C 
HETATM   13  C   UNK N   1      32.688  13.323   4.149  0.00  0.00    -0.015 C 
HETATM   14  C   UNK N   1      32.158  12.700   3.075  0.00  0.00    -0.000 C 
HETATM   15  C   UNK N   1      31.010  13.355   2.310  0.00  0.00     0.300 C 
HETATM   16  C   UNK N   1      30.573  14.357   4.537  0.00  0.00     0.253 C 
HETATM   17  N   UNK N   1      30.090  14.136   3.172  0.00  0.00     0.098 N 
HETATM   18  C   UNK N   1      29.906  15.499   2.652  0.00  0.00     0.274 C 
HETATM   19  C   UNK N   1      29.747  16.440   3.867  0.00  0.00     0.049 C 
HETATM   20  C   UNK N   1      29.009  17.836   7.760  0.00  0.00     0.150 C 
ENDROOT
BRANCH   1  21
HETATM   21  C   UNK N   1      24.929  14.570   3.628  0.00  0.00     0.121 C 
HETATM   22  C   UNK N   1      25.398  13.219   3.052  0.00  0.00     0.041 C 
HETATM   23  C   UNK N   1      25.042  11.905   3.803  0.00  0.00     0.038 C 
HETATM   24  C   UNK N   1      24.516  10.886   2.821  0.00  0.00     0.281 C 
HETATM   25  C   UNK N   1      24.113  11.937   5.018  0.00  0.00    -0.016 C 
HETATM   26  N   UNK N   1      23.118  11.172   2.534  0.00  0.00     0.097 N 
HETATM   27  C   UNK N   1      22.245  10.973   3.706  0.00  0.00     0.306 C 
HETATM   28  C   UNK N   1      23.003  12.450   1.810  0.00  0.00     0.314 C 
HETATM   29  C   UNK N   1      22.864  11.448   5.000  0.00  0.00    -0.056 C 
HETATM   30  C   UNK N   1      22.655  13.717   2.591  0.00  0.00     0.007 A 
HETATM   31  C   UNK N   1      23.369  14.554   3.521  0.00  0.00     0.042 A 
HETATM   32  C   UNK N   1      21.607  14.471   2.154  0.00  0.00     0.001 A 
HETATM   33  N   UNK N   1      22.656  15.710   3.703  0.00  0.00    -0.357 N 
HETATM   34  C   UNK N   1      21.630  15.649   2.838  0.00  0.00     0.043 A 
HETATM   35  H   UNK N   1      22.855  16.436   4.337  0.00  0.00     0.166 HD
HETATM   36  C   UNK N   1      20.793  16.707   2.461  0.00  0.00     0.030 A 
HETATM   37  C   UNK N   1      19.936  16.516   1.357  0.00  0.00     0.002 A 
HETATM   38  C   UNK N   1      19.919  15.284   0.665  0.00  0.00     0.001 A 
HETATM   39  C   UNK N   1      20.764  14.242   1.071  0.00  0.00     0.014 A 
BRANCH  29  40
HETATM   40  C   UNK N   1      22.092  11.351   6.281  0.00  0.00     0.031 C 
HETATM   41  C   UNK N   1      20.921  12.325   6.266  0.00  0.00     0.010 C 
ENDBRANCH  29  40
BRANCH  21  42
HETATM   42  C   UNK N   1      25.207  15.644   2.572  0.00  0.00     0.278 C 
HETATM   43  O   UNK N   1      25.637  15.313   1.466  0.00  0.00    -0.264 OA
BRANCH  42  44
HETATM   44  O   UNK N   1      25.046  16.956   2.853  0.00  0.00    -0.325 OA
HETATM   45  C   UNK N   1      26.120  17.766   3.146  0.00  0.00     0.213 C 
ENDBRANCH  42  44
ENDBRANCH  21  42
ENDBRANCH   1  21
BRANCH   2  46
HETATM   46  O   UNK N   1      24.307  15.731   6.451  0.00  0.00    -0.355 OA
HETATM   47  C   UNK N   1      23.550  14.838   7.179  0.00  0.00     0.210 C 
ENDBRANCH   2  46
BRANCH  12  48
HETATM   48  C   UNK N   1      32.569  15.697   3.428  0.00  0.00     0.014 C 
HETATM   49  C   UNK N   1      33.924  15.424   2.779  0.00  0.00     0.006 C 
ENDBRANCH  12  48
BRANCH  10  50
HETATM   50  C   UNK N   1      32.178  17.032   7.751  0.00  0.00     0.298 C 
HETATM   51  O   UNK N   1      31.909  16.405   8.767  0.00  0.00    -0.262 OA
BRANCH  50  52
HETATM   52  O   UNK N   1      32.819  18.223   7.846  0.00  0.00    -0.324 OA
HETATM   53  C   UNK N   1      34.187  18.312   7.946  0.00  0.00     0.213 C 
ENDBRANCH  50  52
ENDBRANCH  10  50
BRANCH  10  54
HETATM   54  O   UNK N   1      31.804  17.562   5.490  0.00  0.00    -0.375 OA
HETATM   55  H   UNK N   1      31.677  18.362   4.956  0.00  0.00     0.211 HD
ENDBRANCH  10  54
BRANCH  11  56
HETATM   56  O   UNK N   1      33.912  15.212   6.149  0.00  0.00    -0.311 OA
BRANCH  56  57
HETATM   57  C   UNK N   1      34.620  14.514   7.075  0.00  0.00     0.255 C 
HETATM   58  O   UNK N   1      35.831  14.642   7.106  0.00  0.00    -0.266 OA
HETATM   59  C   UNK N   1      33.978  13.580   8.048  0.00  0.00     0.126 C 
ENDBRANCH  56  57
ENDBRANCH  11  56
TORSDOF 11
ENDMDL
MODEL 2
REMARK VINA RESULT:      -7.1      1.593      2.326
REMARK  11 active torsions:
REMARK  status: ('A' for Active; 'I' for Inactive)
REMARK    1  A    between atoms: C_14  and  C_51 
REMARK    2  A    between atoms: C_17  and  C_18 
REMARK    3  A    between atoms: C_17  and  C_19 
REMARK    4  A    between atoms: C_18  and  O_49 
REMARK    5  A    between atoms: C_20  and  O_46 
REMARK    6  A    between atoms: C_28  and  C_38 
REMARK    7  A    between atoms: C_28  and  O_53 
REMARK    8  A    between atoms: C_29  and  O_41 
REMARK    9  A    between atoms: C_30  and  C_39 
REMARK   10  A    between atoms: C_38  and  O_55 
REMARK   11  A    between atoms: O_41  and  C_42 
ROOT
HETATM    1  C   UNK N   1      25.064  14.895   4.365  0.00  0.00     0.000 A 
HETATM    2  C   UNK N   1      24.994  16.230   4.958  0.00  0.00     0.078 A 
HETATM    3  C   UNK N   1      26.191  16.936   5.257  0.00  0.00     0.067 A 
HETATM    4  C   UNK N   1      26.357  14.352   4.212  0.00  0.00     0.022 A 
HETATM    5  C   UNK N   1      27.498  15.077   4.521  0.00  0.00    -0.018 A 
HETATM    6  C   UNK N   1      27.415  16.347   4.991  0.00  0.00     0.040 A 
HETATM    7  N   UNK N   1      28.689  16.938   5.041  0.00  0.00    -0.375 N 
HETATM    8  C   UNK N   1      28.921  14.798   4.090  0.00  0.00     0.047 C 
HETATM    9  C   UNK N   1      29.672  15.874   4.931  0.00  0.00     0.146 C 
HETATM   10  C   UNK N   1      31.183  15.994   4.578  0.00  0.00     0.194 C 
HETATM   11  C   UNK N   1      31.743  14.534   4.897  0.00  0.00     0.193 C 
HETATM   12  C   UNK N   1      31.072  13.377   4.092  0.00  0.00     0.039 C 
HETATM   13  C   UNK N   1      31.367  11.972   4.563  0.00  0.00    -0.015 C 
HETATM   14  C   UNK N   1      30.617  10.972   4.052  0.00  0.00    -0.000 C 
HETATM   15  C   UNK N   1      29.499  11.294   3.063  0.00  0.00     0.300 C 
HETATM   16  C   UNK N   1      29.504  13.441   4.308  0.00  0.00     0.253 C 
HETATM   17  N   UNK N   1      28.827  12.589   3.328  0.00  0.00     0.098 N 
HETATM   18  C   UNK N   1      28.793  13.425   2.118  0.00  0.00     0.274 C 
HETATM   19  C   UNK N   1      28.935  14.896   2.568  0.00  0.00     0.049 C 
HETATM   20  C   UNK N   1      28.913  18.357   4.949  0.00  0.00     0.150 C 
ENDROOT
BRANCH   1  21
HETATM   21  C   UNK N   1      23.893  14.220   3.510  0.00  0.00     0.121 C 
HETATM   22  C   UNK N   1      23.934  12.750   3.975  0.00  0.00     0.041 C 
HETATM   23  C   UNK N   1      23.355  12.376   5.368  0.00  0.00     0.038 C 
HETATM   24  C   UNK N   1      22.475  11.156   5.240  0.00  0.00     0.281 C 
HETATM   25  C   UNK N   1      22.620  13.423   6.207  0.00  0.00    -0.016 C 
HETATM   26  N   UNK N   1      21.169  11.557   4.738  0.00  0.00     0.097 N 
HETATM   27  C   UNK N   1      20.424  12.395   5.696  0.00  0.00     0.306 C 
HETATM   28  C   UNK N   1      21.290  12.050   3.355  0.00  0.00     0.314 C 
HETATM   29  C   UNK N   1      21.296  13.395   6.419  0.00  0.00    -0.056 C 
HETATM   30  C   UNK N   1      21.369  13.556   3.109  0.00  0.00     0.007 A 
HETATM   31  C   UNK N   1      22.378  14.561   3.328  0.00  0.00     0.042 A 
HETATM   32  C   UNK N   1      20.497  14.105   2.215  0.00  0.00     0.001 A 
HETATM   33  N   UNK N   1      22.004  15.704   2.670  0.00  0.00    -0.357 N 
HETATM   34  C   UNK N   1      20.898  15.386   1.978  0.00  0.00     0.043 A 
HETATM   35  H   UNK N   1      22.455  16.579   2.699  0.00  0.00     0.166 HD
HETATM   36  C   UNK N   1      20.313  16.136   0.950  0.00  0.00     0.030 A 
HETATM   37  C   UNK N   1      19.307  15.525   0.172  0.00  0.00     0.002 A 
HETATM   38  C   UNK N   1      18.897  14.200   0.438  0.00  0.00     0.001 A 
HETATM   39  C   UNK N   1      19.498  13.477   1.478  0.00  0.00     0.014 A 
BRANCH  29  40
HETATM   40  C   UNK N   1      20.687  14.349   7.402  0.00  0.00     0.031 C 
HETATM   41  C   UNK N   1      21.437  15.675   7.383  0.00  0.00     0.010 C 
ENDBRANCH  29  40
BRANCH  21  42
HETATM   42  C   UNK N   1      24.299  14.249   2.033  0.00  0.00     0.278 C 
HETATM   43  O   UNK N   1      24.649  15.312   1.519  0.00  0.00    -0.264 OA
BRANCH  42  44
HETATM   44  O   UNK N   1      24.222  13.138   1.266  0.00  0.00    -0.325 OA
HETATM   45  C   UNK N   1      23.554  13.140   0.063  0.00  0.00     0.213 C 
ENDBRANCH  42  44
ENDBRANCH  21  42
ENDBRANCH   1  21
BRANCH   2  46
HETATM   46  O   UNK N   1      23.814  16.866   5.151  0.00  0.00    -0.355 OA
HETATM   47  C   UNK N   1      23.600  18.201   4.883  0.00  0.00     0.210 C 
ENDBRANCH   2  46
BRANCH  12  48
HETATM   48  C   UNK N   1      31.530  13.492   2.606  0.00  0.00     0.014 C 
HETATM   49  C   UNK N   1      32.925  12.952   2.301  0.00  0.00     0.006 C 
ENDBRANCH  12  48
BRANCH  10  50
HETATM   50  C   UNK N   1      31.892  17.078   5.369  0.00  0.00     0.298 C 
HETATM   51  O   UNK N   1      32.689  17.813   4.802  0.00  0.00    -0.262 OA
BRANCH  50  52
HETATM   52  O   UNK N   1      31.714  17.186   6.709  0.00  0.00    -0.324 OA
HETATM   53  C   UNK N   1      32.731  17.562   7.554  0.00  0.00     0.213 C 
ENDBRANCH  50  52
ENDBRANCH  10  50
BRANCH  10  54
HETATM   54  O   UNK N   1      31.327  16.302   3.222  0.00  0.00    -0.375 OA
HETATM   55  H   UNK N   1      31.484  16.722   2.362  0.00  0.00     0.211 HD
ENDBRANCH  10  54
BRANCH  11  56
HETATM   56  O   UNK N   1      33.109  14.371   5.092  0.00  0.00    -0.311 OA
BRANCH  56  57
HETATM   57  C   UNK N   1      33.818  14.280   6.247  0.00  0.00     0.255 C 
HETATM   58  O   UNK N   1      34.896  14.845   6.319  0.00  0.00    -0.266 OA
HETATM   59  C   UNK N   1      33.343  13.501   7.429  0.00  0.00     0.126 C 
ENDBRANCH  56  57
ENDBRANCH  11  56
TORSDOF 11
ENDMDL
MODEL 3
REMARK VINA RESULT:      -7.0      3.182     11.038
REMARK  11 active torsions:
REMARK  status: ('A' for Active; 'I' for Inactive)
REMARK    1  A    between atoms: C_14  and  C_51 
REMARK    2  A    between atoms: C_17  and  C_18 
REMARK    3  A    between atoms: C_17  and  C_19 
REMARK    4  A    between atoms: C_18  and  O_49 
REMARK    5  A    between atoms: C_20  and  O_46 
REMARK    6  A    between atoms: C_28  and  C_38 
REMARK    7  A    between atoms: C_28  and  O_53 
REMARK    8  A    between atoms: C_29  and  O_41 
REMARK    9  A    between atoms: C_30  and  C_39 
REMARK   10  A    between atoms: C_38  and  O_55 
REMARK   11  A    between atoms: O_41  and  C_42 
ROOT
HETATM    1  C   UNK N   1      33.231  13.194   6.200  0.00  0.00     0.000 A 
HETATM    2  C   UNK N   1      32.954  12.117   5.248  0.00  0.00     0.078 A 
HETATM    3  C   UNK N   1      31.782  12.166   4.447  0.00  0.00     0.067 A 
HETATM    4  C   UNK N   1      32.236  14.187   6.318  0.00  0.00     0.022 A 
HETATM    5  C   UNK N   1      31.105  14.191   5.516  0.00  0.00    -0.018 A 
HETATM    6  C   UNK N   1      30.906  13.230   4.580  0.00  0.00     0.040 A 
HETATM    7  N   UNK N   1      29.807  13.554   3.766  0.00  0.00    -0.375 N 
HETATM    8  C   UNK N   1      30.150  15.337   5.262  0.00  0.00     0.047 C 
HETATM    9  C   UNK N   1      29.053  14.596   4.440  0.00  0.00     0.146 C 
HETATM   10  C   UNK N   1      27.978  15.548   3.839  0.00  0.00     0.194 C 
HETATM   11  C   UNK N   1      27.348  16.240   5.132  0.00  0.00     0.193 C 
HETATM   12  C   UNK N   1      28.360  17.030   6.020  0.00  0.00     0.039 C 
HETATM   13  C   UNK N   1      27.868  17.454   7.384  0.00  0.00    -0.015 C 
HETATM   14  C   UNK N   1      28.784  17.915   8.262  0.00  0.00    -0.000 C 
HETATM   15  C   UNK N   1      30.257  17.960   7.864  0.00  0.00     0.300 C 
HETATM   16  C   UNK N   1      29.555  16.070   6.419  0.00  0.00     0.253 C 
HETATM   17  N   UNK N   1      30.665  16.852   6.968  0.00  0.00     0.098 N 
HETATM   18  C   UNK N   1      31.347  17.363   5.769  0.00  0.00     0.274 C 
HETATM   19  C   UNK N   1      30.969  16.436   4.592  0.00  0.00     0.049 C 
HETATM   20  C   UNK N   1      29.657  13.095   2.410  0.00  0.00     0.150 C 
ENDROOT
BRANCH   1  21
HETATM   21  C   UNK N   1      34.685  13.560   6.757  0.00  0.00     0.121 C 
HETATM   22  C   UNK N   1      34.371  14.501   7.937  0.00  0.00     0.041 C 
HETATM   23  C   UNK N   1      33.832  13.903   9.267  0.00  0.00     0.038 C 
HETATM   24  C   UNK N   1      34.587  14.496  10.432  0.00  0.00     0.281 C 
HETATM   25  C   UNK N   1      33.754  12.386   9.456  0.00  0.00    -0.016 C 
HETATM   26  N   UNK N   1      35.866  13.815  10.573  0.00  0.00     0.097 N 
HETATM   27  C   UNK N   1      35.717  12.402  10.968  0.00  0.00     0.306 C 
HETATM   28  C   UNK N   1      36.724  14.108   9.412  0.00  0.00     0.314 C 
HETATM   29  C   UNK N   1      34.562  11.708  10.285  0.00  0.00    -0.056 C 
HETATM   30  C   UNK N   1      36.799  13.096   8.270  0.00  0.00     0.007 A 
HETATM   31  C   UNK N   1      35.894  12.687   7.226  0.00  0.00     0.042 A 
HETATM   32  C   UNK N   1      38.032  12.675   7.868  0.00  0.00     0.001 A 
HETATM   33  N   UNK N   1      36.589  11.930   6.319  0.00  0.00    -0.357 N 
HETATM   34  C   UNK N   1      37.874  11.978   6.706  0.00  0.00     0.043 A 
HETATM   35  H   UNK N   1      36.221  11.451   5.541  0.00  0.00     0.166 HD
HETATM   36  C   UNK N   1      38.988  11.594   5.951  0.00  0.00     0.030 A 
HETATM   37  C   UNK N   1      40.268  11.951   6.424  0.00  0.00     0.002 A 
HETATM   38  C   UNK N   1      40.414  12.665   7.635  0.00  0.00     0.001 A 
HETATM   39  C   UNK N   1      39.279  13.030   8.372  0.00  0.00     0.014 A 
BRANCH  29  40
HETATM   40  C   UNK N   1      34.295  10.258  10.549  0.00  0.00     0.031 C 
HETATM   41  C   UNK N   1      33.813  10.062  11.981  0.00  0.00     0.010 C 
ENDBRANCH  29  40
BRANCH  21  42
HETATM   42  C   UNK N   1      35.414  14.383   5.690  0.00  0.00     0.278 C 
HETATM   43  O   UNK N   1      35.685  15.564   5.914  0.00  0.00    -0.264 OA
BRANCH  42  44
HETATM   44  O   UNK N   1      35.711  13.853   4.483  0.00  0.00    -0.325 OA
HETATM   45  C   UNK N   1      34.996  14.188   3.355  0.00  0.00     0.213 C 
ENDBRANCH  42  44
ENDBRANCH  21  42
ENDBRANCH   1  21
BRANCH   2  46
HETATM   46  O   UNK N   1      33.831  11.108   5.035  0.00  0.00    -0.355 OA
HETATM   47  C   UNK N   1      34.074  10.539   3.803  0.00  0.00     0.210 C 
ENDBRANCH   2  46
BRANCH  12  48
HETATM   48  C   UNK N   1      28.787  18.313   5.242  0.00  0.00     0.014 C 
HETATM   49  C   UNK N   1      27.813  19.487   5.319  0.00  0.00     0.006 C 
ENDBRANCH  12  48
BRANCH  10  50
HETATM   50  C   UNK N   1      26.943  14.819   3.002  0.00  0.00     0.298 C 
HETATM   51  O   UNK N   1      26.619  15.276   1.914  0.00  0.00    -0.262 OA
BRANCH  50  52
HETATM   52  O   UNK N   1      26.317  13.716   3.481  0.00  0.00    -0.324 OA
HETATM   53  C   UNK N   1      25.887  12.703   2.657  0.00  0.00     0.213 C 
ENDBRANCH  50  52
ENDBRANCH  10  50
BRANCH  10  54
HETATM   54  O   UNK N   1      28.596  16.492   3.014  0.00  0.00    -0.375 OA
HETATM   55  H   UNK N   1      28.920  17.297   2.580  0.00  0.00     0.211 HD
ENDBRANCH  10  54
BRANCH  11  56
HETATM   56  O   UNK N   1      26.099  16.839   5.025  0.00  0.00    -0.311 OA
BRANCH  56  57
HETATM   57  C   UNK N   1      24.879  16.380   5.410  0.00  0.00     0.255 C 
HETATM   58  O   UNK N   1      23.884  16.872   4.908  0.00  0.00    -0.266 OA
HETATM   59  C   UNK N   1      24.704  15.311   6.437  0.00  0.00     0.126 C 
ENDBRANCH  56  57
ENDBRANCH  11  56
TORSDOF 11
ENDMDL
MODEL 4
REMARK VINA RESULT:      -6.9      3.839      6.469
REMARK  11 active torsions:
REMARK  status: ('A' for Active; 'I' for Inactive)
REMARK    1  A    between atoms: C_14  and  C_51 
REMARK    2  A    between atoms: C_17  and  C_18 
REMARK    3  A    between atoms: C_17  and  C_19 
REMARK    4  A    between atoms: C_18  and  O_49 
REMARK    5  A    between atoms: C_20  and  O_46 
REMARK    6  A    between atoms: C_28  and  C_38 
REMARK    7  A    between atoms: C_28  and  O_53 
REMARK    8  A    between atoms: C_29  and  O_41 
REMARK    9  A    between atoms: C_30  and  C_39 
REMARK   10  A    between atoms: C_38  and  O_55 
REMARK   11  A    between atoms: O_41  and  C_42 
ROOT
HETATM    1  C   UNK N   1      30.575  12.761   3.024  0.00  0.00     0.000 A 
HETATM    2  C   UNK N   1      30.009  14.088   2.780  0.00  0.00     0.078 A 
HETATM    3  C   UNK N   1      30.493  15.209   3.507  0.00  0.00     0.067 A 
HETATM    4  C   UNK N   1      31.527  12.675   4.062  0.00  0.00     0.022 A 
HETATM    5  C   UNK N   1      31.967  13.797   4.748  0.00  0.00    -0.018 A 
HETATM    6  C   UNK N   1      31.493  15.032   4.449  0.00  0.00     0.040 A 
HETATM    7  N   UNK N   1      32.225  16.020   5.130  0.00  0.00    -0.375 N 
HETATM    8  C   UNK N   1      33.206  13.935   5.606  0.00  0.00     0.047 C 
HETATM    9  C   UNK N   1      32.973  15.362   6.187  0.00  0.00     0.146 C 
HETATM   10  C   UNK N   1      34.188  15.911   6.991  0.00  0.00     0.194 C 
HETATM   11  C   UNK N   1      34.354  14.842   8.164  0.00  0.00     0.193 C 
HETATM   12  C   UNK N   1      34.613  13.376   7.693  0.00  0.00     0.039 C 
HETATM   13  C   UNK N   1      34.494  12.301   8.747  0.00  0.00    -0.015 C 
HETATM   14  C   UNK N   1      34.468  11.017   8.328  0.00  0.00    -0.000 C 
HETATM   15  C   UNK N   1      34.525  10.707   6.835  0.00  0.00     0.300 C 
HETATM   16  C   UNK N   1      33.461  12.945   6.694  0.00  0.00     0.253 C 
HETATM   17  N   UNK N   1      33.840  11.717   5.991  0.00  0.00     0.098 N 
HETATM   18  C   UNK N   1      34.724  12.198   4.919  0.00  0.00     0.274 C 
HETATM   19  C   UNK N   1      34.396  13.689   4.684  0.00  0.00     0.049 C 
HETATM   20  C   UNK N   1      32.372  17.371   4.656  0.00  0.00     0.150 C 
ENDROOT
BRANCH   1  21
HETATM   21  C   UNK N   1      30.539  11.552   1.978  0.00  0.00     0.121 C 
HETATM   22  C   UNK N   1      30.119  10.355   2.853  0.00  0.00     0.041 C 
HETATM   23  C   UNK N   1      28.638  10.223   3.305  0.00  0.00     0.038 C 
HETATM   24  C   UNK N   1      28.162   8.808   3.079  0.00  0.00     0.281 C 
HETATM   25  C   UNK N   1      27.577  11.187   2.768  0.00  0.00    -0.016 C 
HETATM   26  N   UNK N   1      27.813   8.637   1.677  0.00  0.00     0.097 N 
HETATM   27  C   UNK N   1      26.641   9.440   1.281  0.00  0.00     0.306 C 
HETATM   28  C   UNK N   1      29.021   8.740   0.840  0.00  0.00     0.314 C 
HETATM   29  C   UNK N   1      26.622  10.817   1.902  0.00  0.00    -0.056 C 
HETATM   30  C   UNK N   1      29.337  10.069   0.154  0.00  0.00     0.007 A 
HETATM   31  C   UNK N   1      29.805  11.352   0.612  0.00  0.00     0.042 A 
HETATM   32  C   UNK N   1      29.567  10.056  -1.191  0.00  0.00     0.001 A 
HETATM   33  N   UNK N   1      30.168  12.098  -0.480  0.00  0.00    -0.357 N 
HETATM   34  C   UNK N   1      30.055  11.280  -1.539  0.00  0.00     0.043 A 
HETATM   35  H   UNK N   1      30.453  13.040  -0.486  0.00  0.00     0.166 HD
HETATM   36  C   UNK N   1      30.573  11.500  -2.822  0.00  0.00     0.030 A 
HETATM   37  C   UNK N   1      30.575  10.422  -3.732  0.00  0.00     0.002 A 
HETATM   38  C   UNK N   1      30.056   9.163  -3.356  0.00  0.00     0.001 A 
HETATM   39  C   UNK N   1      29.539   8.975  -2.067  0.00  0.00     0.014 A 
BRANCH  29  40
HETATM   40  C   UNK N   1      25.516  11.773   1.574  0.00  0.00     0.031 C 
HETATM   41  C   UNK N   1      24.575  11.158   0.545  0.00  0.00     0.010 C 
ENDBRANCH  29  40
BRANCH  21  42
HETATM   42  C   UNK N   1      31.970  11.293   1.494  0.00  0.00     0.278 C 
HETATM   43  O   UNK N   1      32.524  10.230   1.778  0.00  0.00    -0.264 OA
BRANCH  42  44
HETATM   44  O   UNK N   1      32.657  12.237   0.814  0.00  0.00    -0.325 OA
HETATM   45  C   UNK N   1      33.957  12.553   1.137  0.00  0.00     0.213 C 
ENDBRANCH  42  44
ENDBRANCH  21  42
ENDBRANCH   1  21
BRANCH   2  46
HETATM   46  O   UNK N   1      29.093  14.306   1.808  0.00  0.00    -0.355 OA
HETATM   47  C   UNK N   1      27.855  14.875   2.023  0.00  0.00     0.210 C 
ENDBRANCH   2  46
BRANCH  12  48
HETATM   48  C   UNK N   1      36.053  13.307   7.095  0.00  0.00     0.014 C 
HETATM   49  C   UNK N   1      37.188  13.250   8.115  0.00  0.00     0.006 C 
ENDBRANCH  12  48
BRANCH  10  50
HETATM   50  C   UNK N   1      33.966  17.320   7.510  0.00  0.00     0.298 C 
HETATM   51  O   UNK N   1      34.623  18.242   7.046  0.00  0.00    -0.262 OA
BRANCH  50  52
HETATM   52  O   UNK N   1      33.110  17.553   8.535  0.00  0.00    -0.324 OA
HETATM   53  C   UNK N   1      31.803  17.924   8.327  0.00  0.00     0.213 C 
ENDBRANCH  50  52
ENDBRANCH  10  50
BRANCH  10  54
HETATM   54  O   UNK N   1      35.320  15.939   6.171  0.00  0.00    -0.375 OA
HETATM   55  H   UNK N   1      36.216  15.920   5.799  0.00  0.00     0.211 HD
ENDBRANCH  10  54
BRANCH  11  56
HETATM   56  O   UNK N   1      35.065  15.205   9.301  0.00  0.00    -0.311 OA
BRANCH  56  57
HETATM   57  C   UNK N   1      34.676  15.217  10.603  0.00  0.00     0.255 C 
HETATM   58  O   UNK N   1      33.515  14.959  10.870  0.00  0.00    -0.266 OA
HETATM   59  C   UNK N   1      35.606  15.550  11.722  0.00  0.00     0.126 C 
ENDBRANCH  56  57
ENDBRANCH  11  56
TORSDOF 11
ENDMDL
MODEL 5
REMARK VINA RESULT:      -6.9      2.572      5.322
REMARK  11 active torsions:
REMARK  status: ('A' for Active; 'I' for Inactive)
REMARK    1  A    between atoms: C_14  and  C_51 
REMARK    2  A    between atoms: C_17  and  C_18 
REMARK    3  A    between atoms: C_17  and  C_19 
REMARK    4  A    between atoms: C_18  and  O_49 
REMARK    5  A    between atoms: C_20  and  O_46 
REMARK    6  A    between atoms: C_28  and  C_38 
REMARK    7  A    between atoms: C_28  and  O_53 
REMARK    8  A    between atoms: C_29  and  O_41 
REMARK    9  A    between atoms: C_30  and  C_39 
REMARK   10  A    between atoms: C_38  and  O_55 
REMARK   11  A    between atoms: O_41  and  C_42 
ROOT
HETATM    1  C   UNK N   1      22.076  14.509   5.250  0.00  0.00     0.000 A 
HETATM    2  C   UNK N   1      21.558  15.815   5.660  0.00  0.00     0.078 A 
HETATM    3  C   UNK N   1      22.425  16.941   5.696  0.00  0.00     0.067 A 
HETATM    4  C   UNK N   1      23.463  14.445   5.000  0.00  0.00     0.022 A 
HETATM    5  C   UNK N   1      24.271  15.570   5.051  0.00  0.00    -0.018 A 
HETATM    6  C   UNK N   1      23.757  16.789   5.351  0.00  0.00     0.040 A 
HETATM    7  N   UNK N   1      24.719  17.793   5.147  0.00  0.00    -0.375 N 
HETATM    8  C   UNK N   1      25.659  15.745   4.474  0.00  0.00     0.047 C 
HETATM    9  C   UNK N   1      26.015  17.148   5.051  0.00  0.00     0.146 C 
HETATM   10  C   UNK N   1      27.342  17.733   4.486  0.00  0.00     0.194 C 
HETATM   11  C   UNK N   1      28.428  16.648   4.922  0.00  0.00     0.193 C 
HETATM   12  C   UNK N   1      28.178  15.205   4.380  0.00  0.00     0.039 C 
HETATM   13  C   UNK N   1      29.010  14.104   4.994  0.00  0.00    -0.015 C 
HETATM   14  C   UNK N   1      28.651  12.830   4.730  0.00  0.00    -0.000 C 
HETATM   15  C   UNK N   1      27.423  12.553   3.866  0.00  0.00     0.300 C 
HETATM   16  C   UNK N   1      26.721  14.744   4.795  0.00  0.00     0.253 C 
HETATM   17  N   UNK N   1      26.338  13.549   4.039  0.00  0.00     0.098 N 
HETATM   18  C   UNK N   1      25.905  14.091   2.743  0.00  0.00     0.274 C 
HETATM   19  C   UNK N   1      25.521  15.571   2.965  0.00  0.00     0.049 C 
HETATM   20  C   UNK N   1      24.389  19.159   4.834  0.00  0.00     0.150 C 
ENDROOT
BRANCH   1  21
HETATM   21  C   UNK N   1      21.181  13.323   4.660  0.00  0.00     0.121 C 
HETATM   22  C   UNK N   1      20.153  14.072   3.789  0.00  0.00     0.041 C 
HETATM   23  C   UNK N   1      20.593  14.643   2.412  0.00  0.00     0.038 C 
HETATM   24  C   UNK N   1      19.570  14.282   1.362  0.00  0.00     0.281 C 
HETATM   25  C   UNK N   1      21.988  14.340   1.860  0.00  0.00    -0.016 C 
HETATM   26  N   UNK N   1      19.788  12.910   0.931  0.00  0.00     0.097 N 
HETATM   27  C   UNK N   1      21.065  12.735   0.213  0.00  0.00     0.306 C 
HETATM   28  C   UNK N   1      19.500  11.981   2.038  0.00  0.00     0.314 C 
HETATM   29  C   UNK N   1      22.201  13.529   0.813  0.00  0.00    -0.056 C 
HETATM   30  C   UNK N   1      20.658  11.446   2.878  0.00  0.00     0.007 A 
HETATM   31  C   UNK N   1      21.530  12.019   3.871  0.00  0.00     0.042 A 
HETATM   32  C   UNK N   1      20.762  10.095   3.039  0.00  0.00     0.001 A 
HETATM   33  N   UNK N   1      22.214  11.004   4.488  0.00  0.00    -0.357 N 
HETATM   34  C   UNK N   1      21.701   9.863   4.000  0.00  0.00     0.043 A 
HETATM   35  H   UNK N   1      22.934  11.093   5.154  0.00  0.00     0.166 HD
HETATM   36  C   UNK N   1      21.881   8.577   4.522  0.00  0.00     0.030 A 
HETATM   37  C   UNK N   1      21.063   7.538   4.028  0.00  0.00     0.002 A 
HETATM   38  C   UNK N   1      20.102   7.795   3.025  0.00  0.00     0.001 A 
HETATM   39  C   UNK N   1      19.950   9.093   2.518  0.00  0.00     0.014 A 
BRANCH  29  40
HETATM   40  C   UNK N   1      23.576  13.435   0.223  0.00  0.00     0.031 C 
HETATM   41  C   UNK N   1      23.998  11.976   0.099  0.00  0.00     0.010 C 
ENDBRANCH  29  40
BRANCH  21  42
HETATM   42  C   UNK N   1      20.418  12.675   5.821  0.00  0.00     0.278 C 
HETATM   43  O   UNK N   1      19.187  12.695   5.826  0.00  0.00    -0.264 OA
BRANCH  42  44
HETATM   44  O   UNK N   1      21.075  12.136   6.872  0.00  0.00    -0.325 OA
HETATM   45  C   UNK N   1      21.236  12.827   8.051  0.00  0.00     0.213 C 
ENDBRANCH  42  44
ENDBRANCH  21  42
ENDBRANCH   1  21
BRANCH   2  46
HETATM   46  O   UNK N   1      20.245  16.013   5.922  0.00  0.00    -0.355 OA
HETATM   47  C   UNK N   1      19.728  16.215   7.184  0.00  0.00     0.210 C 
ENDBRANCH   2  46
BRANCH  12  48
HETATM   48  C   UNK N   1      28.448  15.213   2.844  0.00  0.00     0.014 C 
HETATM   49  C   UNK N   1      29.911  15.080   2.429  0.00  0.00     0.006 C 
ENDBRANCH  12  48
BRANCH  10  50
HETATM   50  C   UNK N   1      27.653  19.119   5.019  0.00  0.00     0.298 C 
HETATM   51  O   UNK N   1      27.993  20.000   4.241  0.00  0.00    -0.262 OA
BRANCH  50  52
HETATM   52  O   UNK N   1      27.636  19.368   6.351  0.00  0.00    -0.324 OA
HETATM   53  C   UNK N   1      27.181  20.558   6.868  0.00  0.00     0.213 C 
ENDBRANCH  50  52
ENDBRANCH  10  50
BRANCH  10  54
HETATM   54  O   UNK N   1      27.258  17.828   3.093  0.00  0.00    -0.375 OA
HETATM   55  H   UNK N   1      27.427  17.913   2.142  0.00  0.00     0.211 HD
ENDBRANCH  10  54
BRANCH  11  56
HETATM   56  O   UNK N   1      29.767  17.019   4.951  0.00  0.00    -0.311 OA
BRANCH  56  57
HETATM   57  C   UNK N   1      30.616  17.130   6.006  0.00  0.00     0.255 C 
HETATM   58  O   UNK N   1      30.148  17.254   7.124  0.00  0.00    -0.266 OA
HETATM   59  C   UNK N   1      32.101  17.125   5.853  0.00  0.00     0.126 C 
ENDBRANCH  56  57
ENDBRANCH  11  56
TORSDOF 11
ENDMDL
MODEL 6
REMARK VINA RESULT:      -6.7     11.999     14.632
REMARK  11 active torsions:
REMARK  status: ('A' for Active; 'I' for Inactive)
REMARK    1  A    between atoms: C_14  and  C_51 
REMARK    2  A    between atoms: C_17  and  C_18 
REMARK    3  A    between atoms: C_17  and  C_19 
REMARK    4  A    between atoms: C_18  and  O_49 
REMARK    5  A    between atoms: C_20  and  O_46 
REMARK    6  A    between atoms: C_28  and  C_38 
REMARK    7  A    between atoms: C_28  and  O_53 
REMARK    8  A    between atoms: C_29  and  O_41 
REMARK    9  A    between atoms: C_30  and  C_39 
REMARK   10  A    between atoms: C_38  and  O_55 
REMARK   11  A    between atoms: O_41  and  C_42 
ROOT
HETATM    1  C   UNK N   1      29.986  22.663  -5.441  0.00  0.00     0.000 A 
HETATM    2  C   UNK N   1      30.102  22.096  -4.097  0.00  0.00     0.078 A 
HETATM    3  C   UNK N   1      31.166  21.205  -3.793  0.00  0.00     0.067 A 
HETATM    4  C   UNK N   1      30.918  22.195  -6.392  0.00  0.00     0.022 A 
HETATM    5  C   UNK N   1      31.939  21.321  -6.050  0.00  0.00    -0.018 A 
HETATM    6  C   UNK N   1      32.081  20.873  -4.778  0.00  0.00     0.040 A 
HETATM    7  N   UNK N   1      33.289  20.168  -4.636  0.00  0.00    -0.375 N 
HETATM    8  C   UNK N   1      33.200  21.015  -6.829  0.00  0.00     0.047 C 
HETATM    9  C   UNK N   1      33.771  19.849  -5.968  0.00  0.00     0.146 C 
HETATM   10  C   UNK N   1      35.202  19.406  -6.392  0.00  0.00     0.194 C 
HETATM   11  C   UNK N   1      35.000  18.947  -7.908  0.00  0.00     0.193 C 
HETATM   12  C   UNK N   1      34.449  20.049  -8.866  0.00  0.00     0.039 C 
HETATM   13  C   UNK N   1      33.980  19.583 -10.225  0.00  0.00    -0.015 C 
HETATM   14  C   UNK N   1      33.278  20.458 -10.976  0.00  0.00    -0.000 C 
HETATM   15  C   UNK N   1      32.961  21.845 -10.423  0.00  0.00     0.300 C 
HETATM   16  C   UNK N   1      33.101  20.626  -8.267  0.00  0.00     0.253 C 
HETATM   17  N   UNK N   1      32.734  21.864  -8.958  0.00  0.00     0.098 N 
HETATM   18  C   UNK N   1      33.574  22.879  -8.305  0.00  0.00     0.274 C 
HETATM   19  C   UNK N   1      33.976  22.325  -6.920  0.00  0.00     0.049 C 
HETATM   20  C   UNK N   1      33.999  20.048  -3.390  0.00  0.00     0.150 C 
ENDROOT
BRANCH   1  21
HETATM   21  C   UNK N   1      29.221  24.022  -5.790  0.00  0.00     0.121 C 
HETATM   22  C   UNK N   1      29.292  24.069  -7.330  0.00  0.00     0.041 C 
HETATM   23  C   UNK N   1      28.365  23.141  -8.164  0.00  0.00     0.038 C 
HETATM   24  C   UNK N   1      27.717  23.936  -9.272  0.00  0.00     0.281 C 
HETATM   25  C   UNK N   1      27.290  22.299  -7.474  0.00  0.00    -0.016 C 
HETATM   26  N   UNK N   1      26.588  24.679  -8.733  0.00  0.00     0.097 N 
HETATM   27  C   UNK N   1      25.493  23.802  -8.280  0.00  0.00     0.306 C 
HETATM   28  C   UNK N   1      27.065  25.710  -7.794  0.00  0.00     0.314 C 
HETATM   29  C   UNK N   1      25.978  22.552  -7.582  0.00  0.00    -0.056 C 
HETATM   30  C   UNK N   1      27.036  25.417  -6.294  0.00  0.00     0.007 A 
HETATM   31  C   UNK N   1      27.804  24.569  -5.419  0.00  0.00     0.042 A 
HETATM   32  C   UNK N   1      26.419  26.320  -5.478  0.00  0.00     0.001 A 
HETATM   33  N   UNK N   1      27.516  24.907  -4.122  0.00  0.00    -0.357 N 
HETATM   34  C   UNK N   1      26.719  25.986  -4.191  0.00  0.00     0.043 A 
HETATM   35  H   UNK N   1      27.829  24.453  -3.307  0.00  0.00     0.166 HD
HETATM   36  C   UNK N   1      26.391  26.849  -3.138  0.00  0.00     0.030 A 
HETATM   37  C   UNK N   1      25.750  28.067  -3.451  0.00  0.00     0.002 A 
HETATM   38  C   UNK N   1      25.438  28.392  -4.790  0.00  0.00     0.001 A 
HETATM   39  C   UNK N   1      25.774  27.504  -5.822  0.00  0.00     0.014 A 
BRANCH  29  40
HETATM   40  C   UNK N   1      24.990  21.571  -7.028  0.00  0.00     0.031 C 
HETATM   41  C   UNK N   1      25.225  20.190  -7.628  0.00  0.00     0.010 C 
ENDBRANCH  29  40
BRANCH  21  42
HETATM   42  C   UNK N   1      30.052  25.192  -5.253  0.00  0.00     0.278 C 
HETATM   43  O   UNK N   1      30.570  25.983  -6.043  0.00  0.00    -0.264 OA
BRANCH  42  44
HETATM   44  O   UNK N   1      30.277  25.337  -3.928  0.00  0.00    -0.325 OA
HETATM   45  C   UNK N   1      30.757  26.516  -3.405  0.00  0.00     0.213 C 
ENDBRANCH  42  44
ENDBRANCH  21  42
ENDBRANCH   1  21
BRANCH   2  46
HETATM   46  O   UNK N   1      29.275  22.467  -3.092  0.00  0.00    -0.355 OA
HETATM   47  C   UNK N   1      29.702  22.882  -1.849  0.00  0.00     0.210 C 
ENDBRANCH   2  46
BRANCH  12  48
HETATM   48  C   UNK N   1      35.573  21.109  -9.082  0.00  0.00     0.014 C 
HETATM   49  C   UNK N   1      36.629  20.748 -10.124  0.00  0.00     0.006 C 
ENDBRANCH  12  48
BRANCH  10  50
HETATM   50  C   UNK N   1      35.765  18.303  -5.516  0.00  0.00     0.298 C 
HETATM   51  O   UNK N   1      36.898  18.411  -5.066  0.00  0.00    -0.262 OA
BRANCH  50  52
HETATM   52  O   UNK N   1      35.060  17.167  -5.295  0.00  0.00    -0.324 OA
HETATM   53  C   UNK N   1      35.090  16.510  -4.087  0.00  0.00     0.213 C 
ENDBRANCH  50  52
ENDBRANCH  10  50
BRANCH  10  54
HETATM   54  O   UNK N   1      36.075  20.496  -6.309  0.00  0.00    -0.375 OA
HETATM   55  H   UNK N   1      36.693  21.189  -6.031  0.00  0.00     0.211 HD
ENDBRANCH  10  54
BRANCH  11  56
HETATM   56  O   UNK N   1      35.954  18.118  -8.485  0.00  0.00    -0.311 OA
BRANCH  56  57
HETATM   57  C   UNK N   1      35.817  16.881  -9.029  0.00  0.00     0.255 C 
HETATM   58  O   UNK N   1      35.296  16.003  -8.364  0.00  0.00    -0.266 OA
HETATM   59  C   UNK N   1      36.294  16.544 -10.403  0.00  0.00     0.126 C 
ENDBRANCH  56  57
ENDBRANCH  11  56
TORSDOF 11
ENDMDL
MODEL 7
REMARK VINA RESULT:      -6.6      2.516      4.873
REMARK  11 active torsions:
REMARK  status: ('A' for Active; 'I' for Inactive)
REMARK    1  A    between atoms: C_14  and  C_51 
REMARK    2  A    between atoms: C_17  and  C_18 
REMARK    3  A    between atoms: C_17  and  C_19 
REMARK    4  A    between atoms: C_18  and  O_49 
REMARK    5  A    between atoms: C_20  and  O_46 
REMARK    6  A    between atoms: C_28  and  C_38 
REMARK    7  A    between atoms: C_28  and  O_53 
REMARK    8  A    between atoms: C_29  and  O_41 
REMARK    9  A    between atoms: C_30  and  C_39 
REMARK   10  A    between atoms: C_38  and  O_55 
REMARK   11  A    between atoms: O_41  and  C_42 
ROOT
HETATM    1  C   UNK N   1      22.968  14.917   5.195  0.00  0.00     0.000 A 
HETATM    2  C   UNK N   1      23.180  16.342   5.455  0.00  0.00     0.078 A 
HETATM    3  C   UNK N   1      24.473  16.907   5.287  0.00  0.00     0.067 A 
HETATM    4  C   UNK N   1      24.120  14.169   4.873  0.00  0.00     0.022 A 
HETATM    5  C   UNK N   1      25.363  14.764   4.724  0.00  0.00    -0.018 A 
HETATM    6  C   UNK N   1      25.524  16.101   4.886  0.00  0.00     0.040 A 
HETATM    7  N   UNK N   1      26.815  16.493   4.491  0.00  0.00    -0.375 N 
HETATM    8  C   UNK N   1      26.590  14.193   4.046  0.00  0.00     0.047 C 
HETATM    9  C   UNK N   1      27.632  15.296   4.407  0.00  0.00     0.146 C 
HETATM   10  C   UNK N   1      29.001  15.114   3.688  0.00  0.00     0.194 C 
HETATM   11  C   UNK N   1      29.488  13.683   4.202  0.00  0.00     0.193 C 
HETATM   12  C   UNK N   1      28.525  12.499   3.876  0.00  0.00     0.039 C 
HETATM   13  C   UNK N   1      28.804  11.193   4.582  0.00  0.00    -0.015 C 
HETATM   14  C   UNK N   1      27.857  10.233   4.514  0.00  0.00    -0.000 C 
HETATM   15  C   UNK N   1      26.553  10.507   3.770  0.00  0.00     0.300 C 
HETATM   16  C   UNK N   1      27.083  12.838   4.435  0.00  0.00     0.253 C 
HETATM   17  N   UNK N   1      26.096  11.914   3.872  0.00  0.00     0.098 N 
HETATM   18  C   UNK N   1      25.821  12.479   2.542  0.00  0.00     0.274 C 
HETATM   19  C   UNK N   1      26.211  13.974   2.586  0.00  0.00     0.049 C 
HETATM   20  C   UNK N   1      27.136  17.814   4.017  0.00  0.00     0.150 C 
ENDROOT
BRANCH   1  21
HETATM   21  C   UNK N   1      21.556  14.264   4.825  0.00  0.00     0.121 C 
HETATM   22  C   UNK N   1      20.892  15.352   3.959  0.00  0.00     0.041 C 
HETATM   23  C   UNK N   1      21.367  15.554   2.492  0.00  0.00     0.038 C 
HETATM   24  C   UNK N   1      20.168  15.654   1.580  0.00  0.00     0.281 C 
HETATM   25  C   UNK N   1      22.376  14.589   1.867  0.00  0.00    -0.016 C 
HETATM   26  N   UNK N   1      19.665  14.318   1.298  0.00  0.00     0.097 N 
HETATM   27  C   UNK N   1      20.610  13.512   0.503  0.00  0.00     0.306 C 
HETATM   28  C   UNK N   1      19.123  13.713   2.527  0.00  0.00     0.314 C 
HETATM   29  C   UNK N   1      22.052  13.707   0.910  0.00  0.00    -0.056 C 
HETATM   30  C   UNK N   1      19.997  12.748   3.327  0.00  0.00     0.007 A 
HETATM   31  C   UNK N   1      21.154  12.902   4.170  0.00  0.00     0.042 A 
HETATM   32  C   UNK N   1      19.480  11.525   3.637  0.00  0.00     0.001 A 
HETATM   33  N   UNK N   1      21.361  11.727   4.845  0.00  0.00    -0.357 N 
HETATM   34  C   UNK N   1      20.318  10.938   4.539  0.00  0.00     0.043 A 
HETATM   35  H   UNK N   1      22.118  11.506   5.435  0.00  0.00     0.166 HD
HETATM   36  C   UNK N   1      19.944   9.758   5.193  0.00  0.00     0.030 A 
HETATM   37  C   UNK N   1      18.681   9.203   4.895  0.00  0.00     0.002 A 
HETATM   38  C   UNK N   1      17.830   9.820   3.951  0.00  0.00     0.001 A 
HETATM   39  C   UNK N   1      18.236  10.997   3.307  0.00  0.00     0.014 A 
BRANCH  29  40
HETATM   40  C   UNK N   1      23.136  12.932   0.224  0.00  0.00     0.031 C 
HETATM   41  C   UNK N   1      22.870  11.437   0.339  0.00  0.00     0.010 C 
ENDBRANCH  29  40
BRANCH  21  42
HETATM   42  C   UNK N   1      20.736  14.134   6.113  0.00  0.00     0.278 C 
HETATM   43  O   UNK N   1      19.605  14.619   6.165  0.00  0.00    -0.264 OA
BRANCH  42  44
HETATM   44  O   UNK N   1      21.256  13.550   7.215  0.00  0.00    -0.325 OA
HETATM   45  C   UNK N   1      21.195  14.158   8.448  0.00  0.00     0.213 C 
ENDBRANCH  42  44
ENDBRANCH  21  42
ENDBRANCH   1  21
BRANCH   2  46
HETATM   46  O   UNK N   1      22.157  17.172   5.766  0.00  0.00    -0.355 OA
HETATM   47  C   UNK N   1      22.002  18.439   5.246  0.00  0.00     0.210 C 
ENDBRANCH   2  46
BRANCH  12  48
HETATM   48  C   UNK N   1      28.584  12.237   2.339  0.00  0.00     0.014 C 
HETATM   49  C   UNK N   1      29.763  11.396   1.857  0.00  0.00     0.006 C 
ENDBRANCH  12  48
BRANCH  10  50
HETATM   50  C   UNK N   1      29.990  16.219   4.010  0.00  0.00     0.298 C 
HETATM   51  O   UNK N   1      30.109  16.601   5.167  0.00  0.00    -0.262 OA
BRANCH  50  52
HETATM   52  O   UNK N   1      30.679  16.841   3.023  0.00  0.00    -0.324 OA
HETATM   53  C   UNK N   1      32.049  16.768   2.928  0.00  0.00     0.213 C 
ENDBRANCH  50  52
ENDBRANCH  10  50
BRANCH  10  54
HETATM   54  O   UNK N   1      28.809  15.112   2.304  0.00  0.00    -0.375 OA
HETATM   55  H   UNK N   1      28.897  15.169   1.339  0.00  0.00     0.211 HD
ENDBRANCH  10  54
BRANCH  11  56
HETATM   56  O   UNK N   1      30.836  13.362   4.101  0.00  0.00    -0.311 OA
BRANCH  56  57
HETATM   57  C   UNK N   1      31.779  13.248   5.073  0.00  0.00     0.255 C 
HETATM   58  O   UNK N   1      31.535  13.693   6.180  0.00  0.00    -0.266 OA
HETATM   59  C   UNK N   1      33.111  12.615   4.837  0.00  0.00     0.126 C 
ENDBRANCH  56  57
ENDBRANCH  11  56
TORSDOF 11
ENDMDL
MODEL 8
REMARK VINA RESULT:      -6.5      4.138      8.692
REMARK  11 active torsions:
REMARK  status: ('A' for Active; 'I' for Inactive)
REMARK    1  A    between atoms: C_14  and  C_51 
REMARK    2  A    between atoms: C_17  and  C_18 
REMARK    3  A    between atoms: C_17  and  C_19 
REMARK    4  A    between atoms: C_18  and  O_49 
REMARK    5  A    between atoms: C_20  and  O_46 
REMARK    6  A    between atoms: C_28  and  C_38 
REMARK    7  A    between atoms: C_28  and  O_53 
REMARK    8  A    between atoms: C_29  and  O_41 
REMARK    9  A    between atoms: C_30  and  C_39 
REMARK   10  A    between atoms: C_38  and  O_55 
REMARK   11  A    between atoms: O_41  and  C_42 
ROOT
HETATM    1  C   UNK N   1      32.562  15.355   7.669  0.00  0.00     0.000 A 
HETATM    2  C   UNK N   1      33.291  16.450   8.312  0.00  0.00     0.078 A 
HETATM    3  C   UNK N   1      34.238  16.166   9.333  0.00  0.00     0.067 A 
HETATM    4  C   UNK N   1      32.796  14.065   8.191  0.00  0.00     0.022 A 
HETATM    5  C   UNK N   1      33.728  13.837   9.192  0.00  0.00    -0.018 A 
HETATM    6  C   UNK N   1      34.456  14.854   9.717  0.00  0.00     0.040 A 
HETATM    7  N   UNK N   1      35.463  14.355  10.561  0.00  0.00    -0.375 N 
HETATM    8  C   UNK N   1      34.350  12.519   9.599  0.00  0.00     0.047 C 
HETATM    9  C   UNK N   1      35.137  12.973  10.865  0.00  0.00     0.146 C 
HETATM   10  C   UNK N   1      36.070  11.870  11.445  0.00  0.00     0.194 C 
HETATM   11  C   UNK N   1      35.054  10.692  11.801  0.00  0.00     0.193 C 
HETATM   12  C   UNK N   1      34.224  10.145  10.597  0.00  0.00     0.039 C 
HETATM   13  C   UNK N   1      33.063   9.241  10.937  0.00  0.00    -0.015 C 
HETATM   14  C   UNK N   1      32.186   8.954   9.951  0.00  0.00    -0.000 C 
HETATM   15  C   UNK N   1      32.378   9.568   8.566  0.00  0.00     0.300 C 
HETATM   16  C   UNK N   1      33.469  11.352   9.901  0.00  0.00     0.253 C 
HETATM   17  N   UNK N   1      32.952  10.935   8.596  0.00  0.00     0.098 N 
HETATM   18  C   UNK N   1      34.127  11.035   7.717  0.00  0.00     0.274 C 
HETATM   19  C   UNK N   1      35.120  12.014   8.382  0.00  0.00     0.049 C 
HETATM   20  C   UNK N   1      36.698  15.047  10.823  0.00  0.00     0.150 C 
ENDROOT
BRANCH   1  21
HETATM   21  C   UNK N   1      31.901  15.436   6.216  0.00  0.00     0.121 C 
HETATM   22  C   UNK N   1      33.046  16.002   5.352  0.00  0.00     0.041 C 
HETATM   23  C   UNK N   1      34.224  15.073   4.944  0.00  0.00     0.038 C 
HETATM   24  C   UNK N   1      34.512  15.237   3.471  0.00  0.00     0.281 C 
HETATM   25  C   UNK N   1      34.178  13.579   5.269  0.00  0.00    -0.016 C 
HETATM   26  N   UNK N   1      33.553  14.459   2.703  0.00  0.00     0.097 N 
HETATM   27  C   UNK N   1      33.709  13.006   2.904  0.00  0.00     0.306 C 
HETATM   28  C   UNK N   1      32.201  15.025   2.862  0.00  0.00     0.314 C 
HETATM   29  C   UNK N   1      34.016  12.630   4.334  0.00  0.00    -0.056 C 
HETATM   30  C   UNK N   1      31.249  14.397   3.878  0.00  0.00     0.007 A 
HETATM   31  C   UNK N   1      31.178  14.381   5.317  0.00  0.00     0.042 A 
HETATM   32  C   UNK N   1      30.007  14.030   3.449  0.00  0.00     0.001 A 
HETATM   33  N   UNK N   1      29.956  13.884   5.687  0.00  0.00    -0.357 N 
HETATM   34  C   UNK N   1      29.262  13.725   4.549  0.00  0.00     0.043 A 
HETATM   35  H   UNK N   1      29.649  13.685   6.602  0.00  0.00     0.166 HD
HETATM   36  C   UNK N   1      27.883  13.507   4.436  0.00  0.00     0.030 A 
HETATM   37  C   UNK N   1      27.295  13.617   3.158  0.00  0.00     0.002 A 
HETATM   38  C   UNK N   1      28.085  13.925   2.027  0.00  0.00     0.001 A 
HETATM   39  C   UNK N   1      29.464  14.131   2.172  0.00  0.00     0.014 A 
BRANCH  29  40
HETATM   40  C   UNK N   1      34.169  11.188   4.715  0.00  0.00     0.031 C 
HETATM   41  C   UNK N   1      35.449  10.617   4.117  0.00  0.00     0.010 C 
ENDBRANCH  29  40
BRANCH  21  42
HETATM   42  C   UNK N   1      30.787  16.488   6.253  0.00  0.00     0.278 C 
HETATM   43  O   UNK N   1      30.810  17.426   5.455  0.00  0.00    -0.264 OA
BRANCH  42  44
HETATM   44  O   UNK N   1      29.813  16.438   7.188  0.00  0.00    -0.325 OA
HETATM   45  C   UNK N   1      28.588  17.032   6.983  0.00  0.00     0.213 C 
ENDBRANCH  42  44
ENDBRANCH  21  42
ENDBRANCH   1  21
BRANCH   2  46
HETATM   46  O   UNK N   1      33.161  17.733   7.902  0.00  0.00    -0.355 OA
HETATM   47  C   UNK N   1      34.176  18.665   7.938  0.00  0.00     0.210 C 
ENDBRANCH   2  46
BRANCH  12  48
HETATM   48  C   UNK N   1      35.192   9.356   9.662  0.00  0.00     0.014 C 
HETATM   49  C   UNK N   1      35.497   7.921  10.087  0.00  0.00     0.006 C 
ENDBRANCH  12  48
BRANCH  10  50
HETATM   50  C   UNK N   1      36.866  12.340  12.648  0.00  0.00     0.298 C 
HETATM   51  O   UNK N   1      38.011  11.937  12.806  0.00  0.00    -0.262 OA
BRANCH  50  52
HETATM   52  O   UNK N   1      36.297  13.132  13.588  0.00  0.00    -0.324 OA
HETATM   53  C   UNK N   1      36.756  13.177  14.884  0.00  0.00     0.213 C 
ENDBRANCH  50  52
ENDBRANCH  10  50
BRANCH  10  54
HETATM   54  O   UNK N   1      36.985  11.466  10.467  0.00  0.00    -0.375 OA
HETATM   55  H   UNK N   1      37.703  11.057   9.959  0.00  0.00     0.211 HD
ENDBRANCH  10  54
BRANCH  11  56
HETATM   56  O   UNK N   1      35.456   9.714  12.702  0.00  0.00    -0.311 OA
BRANCH  56  57
HETATM   57  C   UNK N   1      35.146   9.562  14.016  0.00  0.00     0.255 C 
HETATM   58  O   UNK N   1      35.678   8.663  14.644  0.00  0.00    -0.266 OA
HETATM   59  C   UNK N   1      34.164  10.437  14.723  0.00  0.00     0.126 C 
ENDBRANCH  56  57
ENDBRANCH  11  56
TORSDOF 11
ENDMDL
MODEL 9
REMARK VINA RESULT:      -6.5      7.551     11.824
REMARK  11 active torsions:
REMARK  status: ('A' for Active; 'I' for Inactive)
REMARK    1  A    between atoms: C_14  and  C_51 
REMARK    2  A    between atoms: C_17  and  C_18 
REMARK    3  A    between atoms: C_17  and  C_19 
REMARK    4  A    between atoms: C_18  and  O_49 
REMARK    5  A    between atoms: C_20  and  O_46 
REMARK    6  A    between atoms: C_28  and  C_38 
REMARK    7  A    between atoms: C_28  and  O_53 
REMARK    8  A    between atoms: C_29  and  O_41 
REMARK    9  A    between atoms: C_30  and  C_39 
REMARK   10  A    between atoms: C_38  and  O_55 
REMARK   11  A    between atoms: O_41  and  C_42 
ROOT
HETATM    1  C   UNK N   1      34.400  13.456   8.233  0.00  0.00     0.000 A 
HETATM    2  C   UNK N   1      34.211  14.810   8.757  0.00  0.00     0.078 A 
HETATM    3  C   UNK N   1      34.518  15.093  10.114  0.00  0.00     0.067 A 
HETATM    4  C   UNK N   1      34.801  12.481   9.170  0.00  0.00     0.022 A 
HETATM    5  C   UNK N   1      35.087  12.803  10.488  0.00  0.00    -0.018 A 
HETATM    6  C   UNK N   1      34.987  14.080  10.934  0.00  0.00     0.040 A 
HETATM    7  N   UNK N   1      35.513  14.191  12.233  0.00  0.00    -0.375 N 
HETATM    8  C   UNK N   1      35.855  11.981  11.500  0.00  0.00     0.047 C 
HETATM    9  C   UNK N   1      35.632  12.850  12.775  0.00  0.00     0.146 C 
HETATM   10  C   UNK N   1      36.468  12.378  14.001  0.00  0.00     0.194 C 
HETATM   11  C   UNK N   1      35.953  10.885  14.233  0.00  0.00     0.193 C 
HETATM   12  C   UNK N   1      36.146   9.921  13.021  0.00  0.00     0.039 C 
HETATM   13  C   UNK N   1      35.424   8.596  13.095  0.00  0.00    -0.015 C 
HETATM   14  C   UNK N   1      35.370   7.852  11.970  0.00  0.00    -0.000 C 
HETATM   15  C   UNK N   1      35.998   8.379  10.682  0.00  0.00     0.300 C 
HETATM   16  C   UNK N   1      35.467  10.560  11.741  0.00  0.00     0.253 C 
HETATM   17  N   UNK N   1      35.903   9.852  10.535  0.00  0.00     0.098 N 
HETATM   18  C   UNK N   1      37.220  10.442  10.252  0.00  0.00     0.274 C 
HETATM   19  C   UNK N   1      37.266  11.824  10.942  0.00  0.00     0.049 C 
HETATM   20  C   UNK N   1      36.061  15.410  12.769  0.00  0.00     0.150 C 
ENDROOT
BRANCH   1  21
HETATM   21  C   UNK N   1      34.613  13.103   6.688  0.00  0.00     0.121 C 
HETATM   22  C   UNK N   1      35.512  14.255   6.196  0.00  0.00     0.041 C 
HETATM   23  C   UNK N   1      37.021  14.259   6.571  0.00  0.00     0.038 C 
HETATM   24  C   UNK N   1      37.848  14.561   5.345  0.00  0.00     0.281 C 
HETATM   25  C   UNK N   1      37.640  13.061   7.295  0.00  0.00    -0.016 C 
HETATM   26  N   UNK N   1      37.988  13.352   4.549  0.00  0.00     0.097 N 
HETATM   27  C   UNK N   1      38.783  12.312   5.228  0.00  0.00     0.306 C 
HETATM   28  C   UNK N   1      36.678  12.955   4.001  0.00  0.00     0.314 C 
HETATM   29  C   UNK N   1      38.499  12.214   6.709  0.00  0.00    -0.056 C 
HETATM   30  C   UNK N   1      35.870  11.874   4.718  0.00  0.00     0.007 A 
HETATM   31  C   UNK N   1      35.129  11.824   5.952  0.00  0.00     0.042 A 
HETATM   32  C   UNK N   1      35.429  10.813   3.984  0.00  0.00     0.001 A 
HETATM   33  N   UNK N   1      34.380  10.676   5.963  0.00  0.00    -0.357 N 
HETATM   34  C   UNK N   1      34.547  10.115   4.754  0.00  0.00     0.043 A 
HETATM   35  H   UNK N   1      33.832  10.332   6.706  0.00  0.00     0.166 HD
HETATM   36  C   UNK N   1      33.777   9.086   4.198  0.00  0.00     0.030 A 
HETATM   37  C   UNK N   1      33.938   8.802   2.826  0.00  0.00     0.002 A 
HETATM   38  C   UNK N   1      34.863   9.529   2.045  0.00  0.00     0.001 A 
HETATM   39  C   UNK N   1      35.625  10.550   2.632  0.00  0.00     0.014 A 
BRANCH  29  40
HETATM   40  C   UNK N   1      39.199  11.182   7.541  0.00  0.00     0.031 C 
HETATM   41  C   UNK N   1      40.233  11.844   8.442  0.00  0.00     0.010 C 
ENDBRANCH  29  40
BRANCH  21  42
HETATM   42  C   UNK N   1      33.263  13.234   5.975  0.00  0.00     0.278 C 
HETATM   43  O   UNK N   1      32.303  12.567   6.365  0.00  0.00    -0.264 OA
BRANCH  42  44
HETATM   44  O   UNK N   1      33.123  14.021   4.886  0.00  0.00    -0.325 OA
HETATM   45  C   UNK N   1      32.653  13.522   3.693  0.00  0.00     0.213 C 
ENDBRANCH  42  44
ENDBRANCH  21  42
ENDBRANCH   1  21
BRANCH   2  46
HETATM   46  O   UNK N   1      33.835  15.838   7.960  0.00  0.00    -0.355 OA
HETATM   47  C   UNK N   1      33.294  17.019   8.422  0.00  0.00     0.210 C 
ENDBRANCH   2  46
BRANCH  12  48
HETATM   48  C   UNK N   1      37.672   9.630  12.873  0.00  0.00     0.014 C 
HETATM   49  C   UNK N   1      38.243   8.594  13.838  0.00  0.00     0.006 C 
ENDBRANCH  12  48
BRANCH  10  50
HETATM   50  C   UNK N   1      36.278  13.259  15.221  0.00  0.00     0.298 C 
HETATM   51  O   UNK N   1      37.220  13.921  15.638  0.00  0.00    -0.262 OA
BRANCH  50  52
HETATM   52  O   UNK N   1      35.105  13.259  15.900  0.00  0.00    -0.324 OA
HETATM   53  C   UNK N   1      35.047  13.448  17.261  0.00  0.00     0.213 C 
ENDBRANCH  50  52
ENDBRANCH  10  50
BRANCH  10  54
HETATM   54  O   UNK N   1      37.828  12.395  13.677  0.00  0.00    -0.375 OA
HETATM   55  H   UNK N   1      38.755  12.182  13.485  0.00  0.00     0.211 HD
ENDBRANCH  10  54
BRANCH  11  56
HETATM   56  O   UNK N   1      36.168  10.291  15.471  0.00  0.00    -0.311 OA
BRANCH  56  57
HETATM   57  C   UNK N   1      35.311   9.593  16.261  0.00  0.00     0.255 C 
HETATM   58  O   UNK N   1      34.209  10.061  16.488  0.00  0.00    -0.266 OA
HETATM   59  C   UNK N   1      35.669   8.283  16.883  0.00  0.00     0.126 C 
ENDBRANCH  56  57
ENDBRANCH  11  56
TORSDOF 11
ENDMDL
