MODEL 1
REMARK VINA RESULT:      -5.9      0.000      0.000
REMARK  5 active torsions:
REMARK  status: ('A' for Active; 'I' for Inactive)
REMARK    1  A    between atoms: C_1  and  C_2 
REMARK    2  A    between atoms: C_2  and  C_5 
REMARK    3  A    between atoms: C_5  and  N_8 
REMARK    4  A    between atoms: N_8  and  C_11 
REMARK    5  A    between atoms: C_11  and  C_13 
ROOT
HETATM    1  C   UNK N   1      28.525  24.255  -3.485  0.00  0.00     0.223 C 
HETATM    2  C   UNK N   1      29.079  23.201  -2.534  0.00  0.00     0.043 C 
ENDROOT
BRANCH   1   3
HETATM    3  C   UNK N   1      27.007  24.098  -3.463  0.00  0.00     0.074 C 
BRANCH   3   4
HETATM    4  C   UNK N   1      26.351  25.310  -4.033  0.00  0.00    -0.056 A 
HETATM    5  C   UNK N   1      25.692  25.224  -5.263  0.00  0.00     0.007 A 
HETATM    6  C   UNK N   1      25.064  26.353  -5.800  0.00  0.00     0.001 A 
HETATM    7  C   UNK N   1      25.103  27.568  -5.110  0.00  0.00     0.000 A 
HETATM    8  C   UNK N   1      25.770  27.657  -3.885  0.00  0.00     0.001 A 
HETATM    9  C   UNK N   1      26.392  26.528  -3.345  0.00  0.00     0.007 A 
ENDBRANCH   3   4
ENDBRANCH   1   3
BRANCH   1  10
HETATM   10  N   UNK N   1      29.053  24.080  -4.846  0.00  0.00     0.092 N 
HETATM   11  C   UNK N   1      30.024  25.131  -5.117  0.00  0.00     0.310 C 
BRANCH  10  12
HETATM   12  C   UNK N   1      29.806  22.834  -4.941  0.00  0.00     0.311 C 
BRANCH  12  13
HETATM   13  C   UNK N   1      29.272  22.013  -6.065  0.00  0.00    -0.030 A 
HETATM   14  C   UNK N   1      29.893  20.811  -6.416  0.00  0.00     0.009 A 
HETATM   15  C   UNK N   1      29.376  20.033  -7.456  0.00  0.00     0.001 A 
HETATM   16  C   UNK N   1      28.233  20.455  -8.141  0.00  0.00     0.000 A 
HETATM   17  C   UNK N   1      27.611  21.657  -7.790  0.00  0.00     0.001 A 
HETATM   18  C   UNK N   1      28.132  22.438  -6.753  0.00  0.00     0.009 A 
ENDBRANCH  12  13
ENDBRANCH  10  12
ENDBRANCH   1  10
TORSDOF 5
ENDMDL
MODEL 2
REMARK VINA RESULT:      -5.8     12.582     15.235
REMARK  5 active torsions:
REMARK  status: ('A' for Active; 'I' for Inactive)
REMARK    1  A    between atoms: C_1  and  C_2 
REMARK    2  A    between atoms: C_2  and  C_5 
REMARK    3  A    between atoms: C_5  and  N_8 
REMARK    4  A    between atoms: N_8  and  C_11 
REMARK    5  A    between atoms: C_11  and  C_13 
ROOT
HETATM    1  C   UNK N   1      33.806  16.560   7.872  0.00  0.00     0.223 C 
HETATM    2  C   UNK N   1      34.538  17.126   9.083  0.00  0.00     0.043 C 
ENDROOT
BRANCH   1   3
HETATM    3  C   UNK N   1      33.959  17.590   6.756  0.00  0.00     0.074 C 
BRANCH   3   4
HETATM    4  C   UNK N   1      33.646  16.975   5.435  0.00  0.00    -0.056 A 
HETATM    5  C   UNK N   1      34.149  15.708   5.127  0.00  0.00     0.007 A 
HETATM    6  C   UNK N   1      33.851  15.118   3.894  0.00  0.00     0.001 A 
HETATM    7  C   UNK N   1      33.058  15.800   2.967  0.00  0.00     0.000 A 
HETATM    8  C   UNK N   1      32.563  17.071   3.269  0.00  0.00     0.001 A 
HETATM    9  C   UNK N   1      32.856  17.659   4.503  0.00  0.00     0.007 A 
ENDBRANCH   3   4
ENDBRANCH   1   3
BRANCH   1  10
HETATM   10  N   UNK N   1      32.387  16.315   8.170  0.00  0.00     0.092 N 
HETATM   11  C   UNK N   1      32.289  15.290   9.201  0.00  0.00     0.310 C 
BRANCH  10  12
HETATM   12  C   UNK N   1      31.780  17.504   8.758  0.00  0.00     0.311 C 
BRANCH  12  13
HETATM   13  C   UNK N   1      30.462  17.762   8.111  0.00  0.00    -0.030 A 
HETATM   14  C   UNK N   1      30.179  17.227   6.850  0.00  0.00     0.009 A 
HETATM   15  C   UNK N   1      28.934  17.455   6.256  0.00  0.00     0.001 A 
HETATM   16  C   UNK N   1      27.969  18.213   6.927  0.00  0.00     0.000 A 
HETATM   17  C   UNK N   1      28.252  18.748   8.187  0.00  0.00     0.001 A 
HETATM   18  C   UNK N   1      29.500  18.525   8.778  0.00  0.00     0.009 A 
ENDBRANCH  12  13
ENDBRANCH  10  12
ENDBRANCH   1  10
TORSDOF 5
ENDMDL
MODEL 3
REMARK VINA RESULT:      -5.8      1.525      5.989
REMARK  5 active torsions:
REMARK  status: ('A' for Active; 'I' for Inactive)
REMARK    1  A    between atoms: C_1  and  C_2 
REMARK    2  A    between atoms: C_2  and  C_5 
REMARK    3  A    between atoms: C_5  and  N_8 
REMARK    4  A    between atoms: N_8  and  C_11 
REMARK    5  A    between atoms: C_11  and  C_13 
ROOT
HETATM    1  C   UNK N   1      28.204  23.838  -6.546  0.00  0.00     0.223 C 
HETATM    2  C   UNK N   1      28.929  24.395  -7.765  0.00  0.00     0.043 C 
ENDROOT
BRANCH   1   3
HETATM    3  C   UNK N   1      28.788  22.450  -6.294  0.00  0.00     0.074 C 
BRANCH   3   4
HETATM    4  C   UNK N   1      29.574  22.440  -5.027  0.00  0.00    -0.056 A 
HETATM    5  C   UNK N   1      29.561  23.565  -4.198  0.00  0.00     0.007 A 
HETATM    6  C   UNK N   1      30.285  23.560  -3.001  0.00  0.00     0.001 A 
HETATM    7  C   UNK N   1      31.029  22.433  -2.639  0.00  0.00     0.000 A 
HETATM    8  C   UNK N   1      31.050  21.311  -3.473  0.00  0.00     0.001 A 
HETATM    9  C   UNK N   1      30.322  21.313  -4.665  0.00  0.00     0.007 A 
ENDBRANCH   3   4
ENDBRANCH   1   3
BRANCH   1  10
HETATM   10  N   UNK N   1      26.753  23.765  -6.773  0.00  0.00     0.092 N 
HETATM   11  C   UNK N   1      26.434  22.487  -7.396  0.00  0.00     0.310 C 
BRANCH  10  12
HETATM   12  C   UNK N   1      26.041  23.753  -5.499  0.00  0.00     0.311 C 
BRANCH  12  13
HETATM   13  C   UNK N   1      25.879  25.151  -5.006  0.00  0.00    -0.030 A 
HETATM   14  C   UNK N   1      26.431  25.534  -3.780  0.00  0.00     0.009 A 
HETATM   15  C   UNK N   1      26.294  26.851  -3.331  0.00  0.00     0.001 A 
HETATM   16  C   UNK N   1      25.611  27.787  -4.113  0.00  0.00     0.000 A 
HETATM   17  C   UNK N   1      25.059  27.405  -5.339  0.00  0.00     0.001 A 
HETATM   18  C   UNK N   1      25.191  26.085  -5.785  0.00  0.00     0.009 A 
ENDBRANCH  12  13
ENDBRANCH  10  12
ENDBRANCH   1  10
TORSDOF 5
ENDMDL
MODEL 4
REMARK VINA RESULT:      -5.8     11.040     13.040
REMARK  5 active torsions:
REMARK  status: ('A' for Active; 'I' for Inactive)
REMARK    1  A    between atoms: C_1  and  C_2 
REMARK    2  A    between atoms: C_2  and  C_5 
REMARK    3  A    between atoms: C_5  and  N_8 
REMARK    4  A    between atoms: N_8  and  C_11 
REMARK    5  A    between atoms: C_11  and  C_13 
ROOT
HETATM    1  C   UNK N   1      29.816  18.225   8.155  0.00  0.00     0.223 C 
HETATM    2  C   UNK N   1      29.562  18.234   9.658  0.00  0.00     0.043 C 
ENDROOT
BRANCH   1   3
HETATM    3  C   UNK N   1      28.501  17.814   7.499  0.00  0.00     0.074 C 
BRANCH   3   4
HETATM    4  C   UNK N   1      28.001  18.902   6.609  0.00  0.00    -0.056 A 
HETATM    5  C   UNK N   1      28.113  18.765   5.223  0.00  0.00     0.007 A 
HETATM    6  C   UNK N   1      27.637  19.775   4.381  0.00  0.00     0.001 A 
HETATM    7  C   UNK N   1      27.058  20.925   4.926  0.00  0.00     0.000 A 
HETATM    8  C   UNK N   1      26.955  21.067   6.312  0.00  0.00     0.001 A 
HETATM    9  C   UNK N   1      27.425  20.055   7.154  0.00  0.00     0.007 A 
ENDBRANCH   3   4
ENDBRANCH   1   3
BRANCH   1  10
HETATM   10  N   UNK N   1      30.895  17.292   7.800  0.00  0.00     0.092 N 
HETATM   11  C   UNK N   1      31.247  16.505   8.974  0.00  0.00     0.310 C 
BRANCH  10  12
HETATM   12  C   UNK N   1      30.423  16.321   6.820  0.00  0.00     0.311 C 
BRANCH  12  13
HETATM   13  C   UNK N   1      31.087  16.573   5.508  0.00  0.00    -0.030 A 
HETATM   14  C   UNK N   1      30.510  16.103   4.325  0.00  0.00     0.009 A 
HETATM   15  C   UNK N   1      31.124  16.360   3.096  0.00  0.00     0.001 A 
HETATM   16  C   UNK N   1      32.314  17.093   3.051  0.00  0.00     0.000 A 
HETATM   17  C   UNK N   1      32.892  17.562   4.233  0.00  0.00     0.001 A 
HETATM   18  C   UNK N   1      32.280  17.300   5.464  0.00  0.00     0.009 A 
ENDBRANCH  12  13
ENDBRANCH  10  12
ENDBRANCH   1  10
TORSDOF 5
ENDMDL
MODEL 5
REMARK VINA RESULT:      -5.8      1.926      6.385
REMARK  5 active torsions:
REMARK  status: ('A' for Active; 'I' for Inactive)
REMARK    1  A    between atoms: C_1  and  C_2 
REMARK    2  A    between atoms: C_2  and  C_5 
REMARK    3  A    between atoms: C_5  and  N_8 
REMARK    4  A    between atoms: N_8  and  C_11 
REMARK    5  A    between atoms: C_11  and  C_13 
ROOT
HETATM    1  C   UNK N   1      27.161  24.285  -5.161  0.00  0.00     0.223 C 
HETATM    2  C   UNK N   1      26.333  24.298  -3.882  0.00  0.00     0.043 C 
ENDROOT
BRANCH   1   3
HETATM    3  C   UNK N   1      28.566  24.734  -4.768  0.00  0.00     0.074 C 
BRANCH   3   4
HETATM    4  C   UNK N   1      29.377  23.567  -4.316  0.00  0.00    -0.056 A 
HETATM    5  C   UNK N   1      29.526  22.462  -5.159  0.00  0.00     0.007 A 
HETATM    6  C   UNK N   1      30.294  21.368  -4.748  0.00  0.00     0.001 A 
HETATM    7  C   UNK N   1      30.905  21.376  -3.490  0.00  0.00     0.000 A 
HETATM    8  C   UNK N   1      30.748  22.476  -2.643  0.00  0.00     0.001 A 
HETATM    9  C   UNK N   1      29.986  23.572  -3.055  0.00  0.00     0.007 A 
ENDBRANCH   3   4
ENDBRANCH   1   3
BRANCH   1  10
HETATM   10  N   UNK N   1      26.589  25.178  -6.179  0.00  0.00     0.092 N 
HETATM   11  C   UNK N   1      25.897  24.375  -7.179  0.00  0.00     0.310 C 
BRANCH  10  12
HETATM   12  C   UNK N   1      25.556  26.022  -5.590  0.00  0.00     0.311 C 
BRANCH  12  13
HETATM   13  C   UNK N   1      26.115  27.377  -5.316  0.00  0.00    -0.030 A 
HETATM   14  C   UNK N   1      25.714  28.089  -4.182  0.00  0.00     0.009 A 
HETATM   15  C   UNK N   1      26.257  29.350  -3.917  0.00  0.00     0.001 A 
HETATM   16  C   UNK N   1      27.207  29.896  -4.785  0.00  0.00     0.000 A 
HETATM   17  C   UNK N   1      27.609  29.185  -5.920  0.00  0.00     0.001 A 
HETATM   18  C   UNK N   1      27.060  27.925  -6.187  0.00  0.00     0.009 A 
ENDBRANCH  12  13
ENDBRANCH  10  12
ENDBRANCH   1  10
TORSDOF 5
ENDMDL
MODEL 6
REMARK VINA RESULT:      -5.7     10.732     13.178
REMARK  5 active torsions:
REMARK  status: ('A' for Active; 'I' for Inactive)
REMARK    1  A    between atoms: C_1  and  C_2 
REMARK    2  A    between atoms: C_2  and  C_5 
REMARK    3  A    between atoms: C_5  and  N_8 
REMARK    4  A    between atoms: N_8  and  C_11 
REMARK    5  A    between atoms: C_11  and  C_13 
ROOT
HETATM    1  C   UNK N   1      28.274  18.140   8.139  0.00  0.00     0.223 C 
HETATM    2  C   UNK N   1      27.869  17.206   9.272  0.00  0.00     0.043 C 
ENDROOT
BRANCH   1   3
HETATM    3  C   UNK N   1      27.735  17.517   6.854  0.00  0.00     0.074 C 
BRANCH   3   4
HETATM    4  C   UNK N   1      27.356  18.581   5.880  0.00  0.00    -0.056 A 
HETATM    5  C   UNK N   1      26.990  18.227   4.579  0.00  0.00     0.007 A 
HETATM    6  C   UNK N   1      26.623  19.217   3.662  0.00  0.00     0.001 A 
HETATM    7  C   UNK N   1      26.630  20.561   4.045  0.00  0.00     0.000 A 
HETATM    8  C   UNK N   1      27.004  20.917   5.343  0.00  0.00     0.001 A 
HETATM    9  C   UNK N   1      27.366  19.928   6.262  0.00  0.00     0.007 A 
ENDBRANCH   3   4
ENDBRANCH   1   3
BRANCH   1  10
HETATM   10  N   UNK N   1      29.734  18.300   8.073  0.00  0.00     0.092 N 
HETATM   11  C   UNK N   1      30.233  18.652   9.396  0.00  0.00     0.310 C 
BRANCH  10  12
HETATM   12  C   UNK N   1      30.370  17.026   7.755  0.00  0.00     0.311 C 
BRANCH  12  13
HETATM   13  C   UNK N   1      31.329  17.215   6.628  0.00  0.00    -0.030 A 
HETATM   14  C   UNK N   1      32.700  17.321   6.881  0.00  0.00     0.009 A 
HETATM   15  C   UNK N   1      33.597  17.477   5.820  0.00  0.00     0.001 A 
HETATM   16  C   UNK N   1      33.123  17.521   4.506  0.00  0.00     0.000 A 
HETATM   17  C   UNK N   1      31.752  17.415   4.253  0.00  0.00     0.001 A 
HETATM   18  C   UNK N   1      30.854  17.265   5.315  0.00  0.00     0.009 A 
ENDBRANCH  12  13
ENDBRANCH  10  12
ENDBRANCH   1  10
TORSDOF 5
ENDMDL
MODEL 7
REMARK VINA RESULT:      -5.7     10.724     13.780
REMARK  5 active torsions:
REMARK  status: ('A' for Active; 'I' for Inactive)
REMARK    1  A    between atoms: C_1  and  C_2 
REMARK    2  A    between atoms: C_2  and  C_5 
REMARK    3  A    between atoms: C_5  and  N_8 
REMARK    4  A    between atoms: N_8  and  C_11 
REMARK    5  A    between atoms: C_11  and  C_13 
ROOT
HETATM    1  C   UNK N   1      30.976  17.121   4.072  0.00  0.00     0.223 C 
HETATM    2  C   UNK N   1      31.941  17.021   2.897  0.00  0.00     0.043 C 
ENDROOT
BRANCH   1   3
HETATM    3  C   UNK N   1      31.466  16.122   5.117  0.00  0.00     0.074 C 
BRANCH   3   4
HETATM    4  C   UNK N   1      32.154  16.833   6.232  0.00  0.00    -0.056 A 
HETATM    5  C   UNK N   1      31.425  17.212   7.363  0.00  0.00     0.007 A 
HETATM    6  C   UNK N   1      32.065  17.869   8.419  0.00  0.00     0.001 A 
HETATM    7  C   UNK N   1      33.431  18.154   8.340  0.00  0.00     0.000 A 
HETATM    8  C   UNK N   1      34.159  17.784   7.206  0.00  0.00     0.001 A 
HETATM    9  C   UNK N   1      33.522  17.122   6.153  0.00  0.00     0.007 A 
ENDBRANCH   3   4
ENDBRANCH   1   3
BRANCH   1  10
HETATM   10  N   UNK N   1      29.597  16.818   3.661  0.00  0.00     0.092 N 
HETATM   11  C   UNK N   1      29.554  15.475   3.098  0.00  0.00     0.310 C 
BRANCH  10  12
HETATM   12  C   UNK N   1      28.720  16.769   4.825  0.00  0.00     0.311 C 
BRANCH  12  13
HETATM   13  C   UNK N   1      28.218  18.140   5.129  0.00  0.00    -0.030 A 
HETATM   14  C   UNK N   1      27.732  18.955   4.102  0.00  0.00     0.009 A 
HETATM   15  C   UNK N   1      27.242  20.232   4.395  0.00  0.00     0.001 A 
HETATM   16  C   UNK N   1      27.232  20.689   5.716  0.00  0.00     0.000 A 
HETATM   17  C   UNK N   1      27.718  19.875   6.742  0.00  0.00     0.001 A 
HETATM   18  C   UNK N   1      28.213  18.599   6.449  0.00  0.00     0.009 A 
ENDBRANCH  12  13
ENDBRANCH  10  12
ENDBRANCH   1  10
TORSDOF 5
ENDMDL
MODEL 8
REMARK VINA RESULT:      -5.6     10.860     13.433
REMARK  5 active torsions:
REMARK  status: ('A' for Active; 'I' for Inactive)
REMARK    1  A    between atoms: C_1  and  C_2 
REMARK    2  A    between atoms: C_2  and  C_5 
REMARK    3  A    between atoms: C_5  and  N_8 
REMARK    4  A    between atoms: N_8  and  C_11 
REMARK    5  A    between atoms: C_11  and  C_13 
ROOT
HETATM    1  C   UNK N   1      28.499  16.294   5.359  0.00  0.00     0.223 C 
HETATM    2  C   UNK N   1      27.618  15.288   4.628  0.00  0.00     0.043 C 
ENDROOT
BRANCH   1   3
HETATM    3  C   UNK N   1      28.704  17.463   4.399  0.00  0.00     0.074 C 
BRANCH   3   4
HETATM    4  C   UNK N   1      28.034  18.688   4.923  0.00  0.00    -0.056 A 
HETATM    5  C   UNK N   1      28.093  18.977   6.289  0.00  0.00     0.007 A 
HETATM    6  C   UNK N   1      27.477  20.129   6.787  0.00  0.00     0.001 A 
HETATM    7  C   UNK N   1      26.795  20.988   5.920  0.00  0.00     0.000 A 
HETATM    8  C   UNK N   1      26.727  20.695   4.555  0.00  0.00     0.001 A 
HETATM    9  C   UNK N   1      27.347  19.547   4.056  0.00  0.00     0.007 A 
ENDBRANCH   3   4
ENDBRANCH   1   3
BRANCH   1  10
HETATM   10  N   UNK N   1      29.787  15.698   5.744  0.00  0.00     0.092 N 
HETATM   11  C   UNK N   1      29.863  14.345   5.209  0.00  0.00     0.310 C 
BRANCH  10  12
HETATM   12  C   UNK N   1      30.887  16.418   5.113  0.00  0.00     0.311 C 
BRANCH  12  13
HETATM   13  C   UNK N   1      31.767  17.006   6.164  0.00  0.00    -0.030 A 
HETATM   14  C   UNK N   1      31.244  17.327   7.420  0.00  0.00     0.009 A 
HETATM   15  C   UNK N   1      32.077  17.859   8.410  0.00  0.00     0.001 A 
HETATM   16  C   UNK N   1      33.434  18.062   8.144  0.00  0.00     0.000 A 
HETATM   17  C   UNK N   1      33.957  17.741   6.888  0.00  0.00     0.001 A 
HETATM   18  C   UNK N   1      33.122  17.215   5.896  0.00  0.00     0.009 A 
ENDBRANCH  12  13
ENDBRANCH  10  12
ENDBRANCH   1  10
TORSDOF 5
ENDMDL
MODEL 9
REMARK VINA RESULT:      -5.6      2.209      4.970
REMARK  5 active torsions:
REMARK  status: ('A' for Active; 'I' for Inactive)
REMARK    1  A    between atoms: C_1  and  C_2 
REMARK    2  A    between atoms: C_2  and  C_5 
REMARK    3  A    between atoms: C_5  and  N_8 
REMARK    4  A    between atoms: N_8  and  C_11 
REMARK    5  A    between atoms: C_11  and  C_13 
ROOT
HETATM    1  C   UNK N   1      26.966  23.990  -6.779  0.00  0.00     0.223 C 
HETATM    2  C   UNK N   1      26.466  24.745  -8.004  0.00  0.00     0.043 C 
ENDROOT
BRANCH   1   3
HETATM    3  C   UNK N   1      25.826  24.015  -5.764  0.00  0.00     0.074 C 
BRANCH   3   4
HETATM    4  C   UNK N   1      25.761  25.343  -5.089  0.00  0.00    -0.056 A 
HETATM    5  C   UNK N   1      26.405  25.525  -3.862  0.00  0.00     0.007 A 
HETATM    6  C   UNK N   1      26.360  26.770  -3.227  0.00  0.00     0.001 A 
HETATM    7  C   UNK N   1      25.662  27.830  -3.814  0.00  0.00     0.000 A 
HETATM    8  C   UNK N   1      25.009  27.645  -5.036  0.00  0.00     0.001 A 
HETATM    9  C   UNK N   1      25.059  26.403  -5.674  0.00  0.00     0.007 A 
ENDBRANCH   3   4
ENDBRANCH   1   3
BRANCH   1  10
HETATM   10  N   UNK N   1      28.178  24.609  -6.224  0.00  0.00     0.092 N 
HETATM   11  C   UNK N   1      29.216  23.595  -6.101  0.00  0.00     0.310 C 
BRANCH  10  12
HETATM   12  C   UNK N   1      28.717  25.592  -7.158  0.00  0.00     0.311 C 
BRANCH  12  13
HETATM   13  C   UNK N   1      28.721  26.939  -6.518  0.00  0.00    -0.030 A 
HETATM   14  C   UNK N   1      28.039  28.003  -7.115  0.00  0.00     0.009 A 
HETATM   15  C   UNK N   1      28.027  29.260  -6.501  0.00  0.00     0.001 A 
HETATM   16  C   UNK N   1      28.693  29.448  -5.286  0.00  0.00     0.000 A 
HETATM   17  C   UNK N   1      29.375  28.384  -4.689  0.00  0.00     0.001 A 
HETATM   18  C   UNK N   1      29.392  27.129  -5.307  0.00  0.00     0.009 A 
ENDBRANCH  12  13
ENDBRANCH  10  12
ENDBRANCH   1  10
TORSDOF 5
ENDMDL
