REMARK  2 active torsions:
REMARK  status: ('A' for Active; 'I' for Inactive)
REMARK    1  A    between atoms: Pt_3  and  N_4 
REMARK    2  A    between atoms: Pt_3  and  N_5 
ROOT
HETATM    1 Cl   UNK N   1       2.121   1.663   0.000  0.00  0.00     0.000 Cl
HETATM    2 Cl   UNK N   1       2.121  -1.663   0.000  0.00  0.00     0.000 Cl
HETATM    3 Pt   UNK N   1       0.451   0.000   0.000  0.00  0.00     0.000 Pt
ENDROOT
BRANCH   3   4
HETATM    4  N   UNK N   1      -0.997  -1.448   0.000  0.00  0.00    -0.352 N 
HETATM    5  H   UNK N   1      -1.982  -1.185   0.000  0.00  0.00     0.176 HD
HETATM    6  H   UNK N   1      -0.732  -2.434   0.000  0.00  0.00     0.176 HD
ENDBRANCH   3   4
BRANCH   3   7
HETATM    7  N   UNK N   1      -0.997   1.448   0.000  0.00  0.00    -0.352 N 
HETATM    8  H   UNK N   1      -0.732   2.434   0.000  0.00  0.00     0.176 HD
HETATM    9  H   UNK N   1      -1.982   1.185   0.000  0.00  0.00     0.176 HD
ENDBRANCH   3   7
TORSDOF 2
