MODEL 1
REMARK VINA RESULT:      -6.7      0.000      0.000
REMARK  7 active torsions:
REMARK  status: ('A' for Active; 'I' for Inactive)
REMARK    1  A    between atoms: C_4  and  S_5 
REMARK    2  A    between atoms: C_6  and  S_5 
REMARK    3  A    between atoms: C_9  and  C_11 
REMARK       I    between atoms: C_11  and  N_13 
REMARK    4  A    between atoms: C_16  and  C_24 
REMARK    5  A    between atoms: C_20  and  C_21 
REMARK    6  A    between atoms: C_21  and  O_23 
REMARK    7  A    between atoms: C_24  and  O_25 
ROOT
HETATM    1  C   UNK N   1      34.131  14.757   9.645  0.00  0.00     0.095 A 
HETATM    2  C   UNK N   1      34.350  14.478   8.132  0.00  0.00     0.043 A 
HETATM    3  C   UNK N   1      35.665  13.779   7.830  0.00  0.00     0.017 C 
HETATM    4  C   UNK N   1      34.285  15.849   7.484  0.00  0.00     0.013 A 
HETATM    5  C   UNK N   1      34.186  16.790   8.417  0.00  0.00     0.105 A 
HETATM    6  N   UNK N   1      34.146  16.183   9.682  0.00  0.00    -0.206 NA
HETATM    7  C   UNK N   1      35.124  16.275  10.554  0.00  0.00     0.213 A 
HETATM    8  O   UNK N   1      35.971  17.156  10.551  0.00  0.00    -0.279 OA
HETATM    9  C   UNK N   1      35.358  14.805  10.687  0.00  0.00     0.120 A 
ENDROOT
BRANCH   4  10
HETATM   10  S   UNK N   1      34.353  16.079   5.687  0.00  0.00    -0.125 SA
BRANCH  10  11
HETATM   11  C   UNK N   1      32.722  16.892   5.696  0.00  0.00     0.072 C 
HETATM   12  C   UNK N   1      32.273  17.544   4.407  0.00  0.00     0.130 C 
HETATM   13  N   UNK N   1      30.804  17.579   4.465  0.00  0.00    -0.408 N 
HETATM   14  C   UNK N   1      30.470  16.883   5.709  0.00  0.00     0.170 C 
HETATM   15  H   UNK N   1      30.162  17.995   3.790  0.00  0.00     0.154 HD
HETATM   16  C   UNK N   1      31.603  15.945   5.963  0.00  0.00     0.051 C 
BRANCH  14  17
HETATM   17  C   UNK N   1      29.117  16.200   5.835  0.00  0.00     0.241 C 
HETATM   18  O   UNK N   1      29.001  15.105   5.299  0.00  0.00    -0.271 OA
HETATM   19  N   UNK N   1      28.051  16.718   6.521  0.00  0.00    -0.359 N 
HETATM   20  C   UNK N   1      26.818  15.972   6.597  0.00  0.00     0.152 C 
HETATM   21  C   UNK N   1      28.108  17.978   7.213  0.00  0.00     0.152 C 
ENDBRANCH  14  17
ENDBRANCH  10  11
ENDBRANCH   4  10
BRANCH   5  22
HETATM   22  C   UNK N   1      34.149  18.259   8.217  0.00  0.00     0.189 C 
HETATM   23  O   UNK N   1      33.087  18.860   8.185  0.00  0.00    -0.645 OA
BRANCH  22  24
HETATM   24  O   UNK N   1      35.299  18.943   8.065  0.00  0.00    -0.772 OA
HETATM   25  H   UNK N   1      35.829  18.934   7.292  0.00  0.00     0.167 HD
ENDBRANCH  22  24
ENDBRANCH   5  22
BRANCH   9  26
HETATM   26  C   UNK N   1      34.987  14.218  12.043  0.00  0.00     0.128 C 
HETATM   27  C   UNK N   1      36.181  14.255  12.976  0.00  0.00     0.040 C 
BRANCH  26  28
HETATM   28  O   UNK N   1      34.584  12.893  11.873  0.00  0.00    -0.395 OA
HETATM   29  H   UNK N   1      34.674  12.260  12.603  0.00  0.00     0.210 HD
ENDBRANCH  26  28
ENDBRANCH   9  26
TORSDOF 7
ENDMDL
MODEL 2
REMARK VINA RESULT:      -6.6     12.834     15.426
REMARK  7 active torsions:
REMARK  status: ('A' for Active; 'I' for Inactive)
REMARK    1  A    between atoms: C_4  and  S_5 
REMARK    2  A    between atoms: C_6  and  S_5 
REMARK    3  A    between atoms: C_9  and  C_11 
REMARK       I    between atoms: C_11  and  N_13 
REMARK    4  A    between atoms: C_16  and  C_24 
REMARK    5  A    between atoms: C_20  and  C_21 
REMARK    6  A    between atoms: C_21  and  O_23 
REMARK    7  A    between atoms: C_24  and  O_25 
ROOT
HETATM    1  C   UNK N   1      31.026  21.284  -5.084  0.00  0.00     0.095 A 
HETATM    2  C   UNK N   1      30.571  22.651  -5.668  0.00  0.00     0.043 A 
HETATM    3  C   UNK N   1      31.724  23.512  -6.158  0.00  0.00     0.017 C 
HETATM    4  C   UNK N   1      29.822  23.317  -4.530  0.00  0.00     0.013 A 
HETATM    5  C   UNK N   1      29.915  22.578  -3.428  0.00  0.00     0.105 A 
HETATM    6  N   UNK N   1      30.652  21.417  -3.713  0.00  0.00    -0.206 NA
HETATM    7  C   UNK N   1      31.854  21.195  -3.233  0.00  0.00     0.213 A 
HETATM    8  O   UNK N   1      32.310  21.734  -2.235  0.00  0.00    -0.279 OA
HETATM    9  C   UNK N   1      32.529  21.043  -4.558  0.00  0.00     0.120 A 
ENDROOT
BRANCH   4  10
HETATM   10  S   UNK N   1      28.963  24.901  -4.726  0.00  0.00    -0.125 SA
BRANCH  10  11
HETATM   11  C   UNK N   1      27.423  24.046  -5.192  0.00  0.00     0.072 C 
HETATM   12  C   UNK N   1      26.137  24.835  -5.074  0.00  0.00     0.130 C 
HETATM   13  N   UNK N   1      25.195  24.209  -6.014  0.00  0.00    -0.408 N 
HETATM   14  C   UNK N   1      25.980  23.171  -6.684  0.00  0.00     0.170 C 
HETATM   15  H   UNK N   1      24.214  24.445  -6.166  0.00  0.00     0.154 HD
HETATM   16  C   UNK N   1      27.397  23.636  -6.625  0.00  0.00     0.051 C 
BRANCH  14  17
HETATM   17  C   UNK N   1      25.578  22.724  -8.082  0.00  0.00     0.241 C 
HETATM   18  O   UNK N   1      24.694  23.369  -8.632  0.00  0.00    -0.271 OA
HETATM   19  N   UNK N   1      26.155  21.681  -8.755  0.00  0.00    -0.359 N 
HETATM   20  C   UNK N   1      25.712  21.359 -10.090  0.00  0.00     0.152 C 
HETATM   21  C   UNK N   1      27.225  20.895  -8.203  0.00  0.00     0.152 C 
ENDBRANCH  14  17
ENDBRANCH  10  11
ENDBRANCH   4  10
BRANCH   5  22
HETATM   22  C   UNK N   1      29.372  22.889  -2.084  0.00  0.00     0.189 C 
HETATM   23  O   UNK N   1      28.169  22.971  -1.898  0.00  0.00    -0.645 OA
BRANCH  22  24
HETATM   24  O   UNK N   1      30.215  23.087  -1.052  0.00  0.00    -0.772 OA
HETATM   25  H   UNK N   1      30.651  23.895  -0.864  0.00  0.00     0.167 HD
ENDBRANCH  22  24
ENDBRANCH   5  22
BRANCH   9  26
HETATM   26  C   UNK N   1      33.028  19.637  -4.864  0.00  0.00     0.128 C 
HETATM   27  C   UNK N   1      34.300  19.350  -4.091  0.00  0.00     0.040 C 
BRANCH  26  28
HETATM   28  O   UNK N   1      33.293  19.532  -6.230  0.00  0.00    -0.395 OA
HETATM   29  H   UNK N   1      33.980  20.084  -6.636  0.00  0.00     0.210 HD
ENDBRANCH  26  28
ENDBRANCH   9  26
TORSDOF 7
ENDMDL
MODEL 3
REMARK VINA RESULT:      -6.5      8.729     11.982
REMARK  7 active torsions:
REMARK  status: ('A' for Active; 'I' for Inactive)
REMARK    1  A    between atoms: C_4  and  S_5 
REMARK    2  A    between atoms: C_6  and  S_5 
REMARK    3  A    between atoms: C_9  and  C_11 
REMARK       I    between atoms: C_11  and  N_13 
REMARK    4  A    between atoms: C_16  and  C_24 
REMARK    5  A    between atoms: C_20  and  C_21 
REMARK    6  A    between atoms: C_21  and  O_23 
REMARK    7  A    between atoms: C_24  and  O_25 
ROOT
HETATM    1  C   UNK N   1      24.489  18.934   4.752  0.00  0.00     0.095 A 
HETATM    2  C   UNK N   1      23.907  17.550   4.352  0.00  0.00     0.043 A 
HETATM    3  C   UNK N   1      24.843  16.730   3.479  0.00  0.00     0.017 C 
HETATM    4  C   UNK N   1      22.615  17.880   3.627  0.00  0.00     0.013 A 
HETATM    5  C   UNK N   1      22.495  19.197   3.487  0.00  0.00     0.105 A 
HETATM    6  N   UNK N   1      23.596  19.827   4.088  0.00  0.00    -0.206 NA
HETATM    7  C   UNK N   1      24.528  20.450   3.404  0.00  0.00     0.213 A 
HETATM    8  O   UNK N   1      24.381  20.880   2.269  0.00  0.00    -0.279 OA
HETATM    9  C   UNK N   1      25.672  19.634   3.913  0.00  0.00     0.120 A 
ENDROOT
BRANCH   4  10
HETATM   10  S   UNK N   1      21.465  16.601   3.056  0.00  0.00    -0.125 SA
BRANCH  10  11
HETATM   11  C   UNK N   1      20.955  16.248   4.770  0.00  0.00     0.072 C 
HETATM   12  C   UNK N   1      21.988  15.613   5.676  0.00  0.00     0.130 C 
HETATM   13  N   UNK N   1      21.592  15.970   7.047  0.00  0.00    -0.408 N 
HETATM   14  C   UNK N   1      20.433  16.847   6.877  0.00  0.00     0.170 C 
HETATM   15  H   UNK N   1      22.028  15.674   7.920  0.00  0.00     0.154 HD
HETATM   16  C   UNK N   1      20.596  17.476   5.534  0.00  0.00     0.051 C 
BRANCH  14  17
HETATM   17  C   UNK N   1      20.113  17.869   7.957  0.00  0.00     0.241 C 
HETATM   18  O   UNK N   1      20.654  18.963   7.857  0.00  0.00    -0.271 OA
HETATM   19  N   UNK N   1      19.252  17.649   8.999  0.00  0.00    -0.359 N 
HETATM   20  C   UNK N   1      19.002  18.700   9.955  0.00  0.00     0.152 C 
HETATM   21  C   UNK N   1      18.542  16.410   9.174  0.00  0.00     0.152 C 
ENDBRANCH  14  17
ENDBRANCH  10  11
ENDBRANCH   4  10
BRANCH   5  22
HETATM   22  C   UNK N   1      21.412  19.935   2.794  0.00  0.00     0.189 C 
HETATM   23  O   UNK N   1      20.362  20.186   3.364  0.00  0.00    -0.645 OA
BRANCH  22  24
HETATM   24  O   UNK N   1      21.583  20.335   1.519  0.00  0.00    -0.772 OA
HETATM   25  H   UNK N   1      21.561  21.226   1.231  0.00  0.00     0.167 HD
ENDBRANCH  22  24
ENDBRANCH   5  22
BRANCH   9  26
HETATM   26  C   UNK N   1      26.647  20.387   4.808  0.00  0.00     0.128 C 
HETATM   27  C   UNK N   1      28.051  19.845   4.629  0.00  0.00     0.040 C 
BRANCH  26  28
HETATM   28  O   UNK N   1      26.264  20.226   6.141  0.00  0.00    -0.395 OA
HETATM   29  H   UNK N   1      25.326  20.131   6.368  0.00  0.00     0.210 HD
ENDBRANCH  26  28
ENDBRANCH   9  26
TORSDOF 7
ENDMDL
MODEL 4
REMARK VINA RESULT:      -6.5      8.554     11.664
REMARK  7 active torsions:
REMARK  status: ('A' for Active; 'I' for Inactive)
REMARK    1  A    between atoms: C_4  and  S_5 
REMARK    2  A    between atoms: C_6  and  S_5 
REMARK    3  A    between atoms: C_9  and  C_11 
REMARK       I    between atoms: C_11  and  N_13 
REMARK    4  A    between atoms: C_16  and  C_24 
REMARK    5  A    between atoms: C_20  and  C_21 
REMARK    6  A    between atoms: C_21  and  O_23 
REMARK    7  A    between atoms: C_24  and  O_25 
ROOT
HETATM    1  C   UNK N   1      24.766  19.142   4.623  0.00  0.00     0.095 A 
HETATM    2  C   UNK N   1      23.989  17.806   4.462  0.00  0.00     0.043 A 
HETATM    3  C   UNK N   1      24.727  16.773   3.626  0.00  0.00     0.017 C 
HETATM    4  C   UNK N   1      22.676  18.209   3.818  0.00  0.00     0.013 A 
HETATM    5  C   UNK N   1      22.695  19.504   3.515  0.00  0.00     0.105 A 
HETATM    6  N   UNK N   1      23.919  20.055   3.928  0.00  0.00    -0.206 NA
HETATM    7  C   UNK N   1      24.840  20.467   3.087  0.00  0.00     0.213 A 
HETATM    8  O   UNK N   1      24.626  20.772   1.924  0.00  0.00    -0.279 OA
HETATM    9  C   UNK N   1      25.928  19.578   3.597  0.00  0.00     0.120 A 
ENDROOT
BRANCH   4  10
HETATM   10  S   UNK N   1      21.332  17.028   3.526  0.00  0.00    -0.125 SA
BRANCH  10  11
HETATM   11  C   UNK N   1      21.435  16.436   5.246  0.00  0.00     0.072 C 
HETATM   12  C   UNK N   1      20.176  16.532   6.081  0.00  0.00     0.130 C 
HETATM   13  N   UNK N   1      20.313  15.511   7.131  0.00  0.00    -0.408 N 
HETATM   14  C   UNK N   1      21.567  14.825   6.815  0.00  0.00     0.170 C 
HETATM   15  H   UNK N   1      19.676  15.322   7.905  0.00  0.00     0.154 HD
HETATM   16  C   UNK N   1      21.753  14.983   5.342  0.00  0.00     0.051 C 
BRANCH  14  17
HETATM   17  C   UNK N   1      21.759  13.386   7.269  0.00  0.00     0.241 C 
HETATM   18  O   UNK N   1      20.785  12.648   7.185  0.00  0.00    -0.271 OA
HETATM   19  N   UNK N   1      22.941  12.874   7.731  0.00  0.00    -0.359 N 
HETATM   20  C   UNK N   1      23.019  11.484   8.113  0.00  0.00     0.152 C 
HETATM   21  C   UNK N   1      24.145  13.656   7.826  0.00  0.00     0.152 C 
ENDBRANCH  14  17
ENDBRANCH  10  11
ENDBRANCH   4  10
BRANCH   5  22
HETATM   22  C   UNK N   1      21.638  20.286   2.830  0.00  0.00     0.189 C 
HETATM   23  O   UNK N   1      20.675  20.712   3.447  0.00  0.00    -0.645 OA
BRANCH  22  24
HETATM   24  O   UNK N   1      21.737  20.531   1.509  0.00  0.00    -0.772 OA
HETATM   25  H   UNK N   1      21.409  21.298   1.081  0.00  0.00     0.167 HD
ENDBRANCH  22  24
ENDBRANCH   5  22
BRANCH   9  26
HETATM   26  C   UNK N   1      27.072  20.302   4.295  0.00  0.00     0.128 C 
HETATM   27  C   UNK N   1      28.173  19.323   4.651  0.00  0.00     0.040 C 
BRANCH  26  28
HETATM   28  O   UNK N   1      26.594  20.895   5.464  0.00  0.00    -0.395 OA
HETATM   29  H   UNK N   1      27.125  21.566   5.921  0.00  0.00     0.210 HD
ENDBRANCH  26  28
ENDBRANCH   9  26
TORSDOF 7
ENDMDL
MODEL 5
REMARK VINA RESULT:      -6.3      2.290      2.811
REMARK  7 active torsions:
REMARK  status: ('A' for Active; 'I' for Inactive)
REMARK    1  A    between atoms: C_4  and  S_5 
REMARK    2  A    between atoms: C_6  and  S_5 
REMARK    3  A    between atoms: C_9  and  C_11 
REMARK       I    between atoms: C_11  and  N_13 
REMARK    4  A    between atoms: C_16  and  C_24 
REMARK    5  A    between atoms: C_20  and  C_21 
REMARK    6  A    between atoms: C_21  and  O_23 
REMARK    7  A    between atoms: C_24  and  O_25 
ROOT
HETATM    1  C   UNK N   1      34.497  14.726   9.778  0.00  0.00     0.095 A 
HETATM    2  C   UNK N   1      34.719  14.436   8.268  0.00  0.00     0.043 A 
HETATM    3  C   UNK N   1      36.119  13.937   7.948  0.00  0.00     0.017 C 
HETATM    4  C   UNK N   1      34.429  15.759   7.584  0.00  0.00     0.013 A 
HETATM    5  C   UNK N   1      34.210  16.704   8.493  0.00  0.00     0.105 A 
HETATM    6  N   UNK N   1      34.294  16.138   9.775  0.00  0.00    -0.206 NA
HETATM    7  C   UNK N   1      35.267  16.406  10.616  0.00  0.00     0.213 A 
HETATM    8  O   UNK N   1      35.969  17.405  10.564  0.00  0.00    -0.279 OA
HETATM    9  C   UNK N   1      35.727  14.994  10.783  0.00  0.00     0.120 A 
ENDROOT
BRANCH   4  10
HETATM   10  S   UNK N   1      34.418  15.940   5.780  0.00  0.00    -0.125 SA
BRANCH  10  11
HETATM   11  C   UNK N   1      32.898  14.942   5.657  0.00  0.00     0.072 C 
HETATM   12  C   UNK N   1      31.658  15.495   6.325  0.00  0.00     0.130 C 
HETATM   13  N   UNK N   1      30.518  14.887   5.622  0.00  0.00    -0.408 N 
HETATM   14  C   UNK N   1      31.127  14.101   4.548  0.00  0.00     0.170 C 
HETATM   15  H   UNK N   1      29.526  14.991   5.834  0.00  0.00     0.154 HD
HETATM   16  C   UNK N   1      32.432  14.763   4.253  0.00  0.00     0.051 C 
BRANCH  14  17
HETATM   17  C   UNK N   1      30.324  13.823   3.286  0.00  0.00     0.241 C 
HETATM   18  O   UNK N   1      29.842  14.794   2.716  0.00  0.00    -0.271 OA
HETATM   19  N   UNK N   1      30.136  12.578   2.749  0.00  0.00    -0.359 N 
HETATM   20  C   UNK N   1      29.376  12.431   1.532  0.00  0.00     0.152 C 
HETATM   21  C   UNK N   1      30.698  11.387   3.328  0.00  0.00     0.152 C 
ENDBRANCH  14  17
ENDBRANCH  10  11
ENDBRANCH   4  10
BRANCH   5  22
HETATM   22  C   UNK N   1      33.943  18.143   8.253  0.00  0.00     0.189 C 
HETATM   23  O   UNK N   1      32.810  18.541   8.036  0.00  0.00    -0.645 OA
BRANCH  22  24
HETATM   24  O   UNK N   1      34.961  19.025   8.272  0.00  0.00    -0.772 OA
HETATM   25  H   UNK N   1      34.887  19.931   8.046  0.00  0.00     0.167 HD
ENDBRANCH  22  24
ENDBRANCH   5  22
BRANCH   9  26
HETATM   26  C   UNK N   1      35.484  14.401  12.164  0.00  0.00     0.128 C 
HETATM   27  C   UNK N   1      36.622  13.476  12.546  0.00  0.00     0.040 C 
BRANCH  26  28
HETATM   28  O   UNK N   1      34.293  13.673  12.147  0.00  0.00    -0.395 OA
HETATM   29  H   UNK N   1      33.665  13.786  11.417  0.00  0.00     0.210 HD
ENDBRANCH  26  28
ENDBRANCH   9  26
TORSDOF 7
ENDMDL
MODEL 6
REMARK VINA RESULT:      -6.3      2.398      7.459
REMARK  7 active torsions:
REMARK  status: ('A' for Active; 'I' for Inactive)
REMARK    1  A    between atoms: C_4  and  S_5 
REMARK    2  A    between atoms: C_6  and  S_5 
REMARK    3  A    between atoms: C_9  and  C_11 
REMARK       I    between atoms: C_11  and  N_13 
REMARK    4  A    between atoms: C_16  and  C_24 
REMARK    5  A    between atoms: C_20  and  C_21 
REMARK    6  A    between atoms: C_21  and  O_23 
REMARK    7  A    between atoms: C_24  and  O_25 
ROOT
HETATM    1  C   UNK N   1      30.172  16.508   7.406  0.00  0.00     0.095 A 
HETATM    2  C   UNK N   1      31.163  17.119   8.436  0.00  0.00     0.043 A 
HETATM    3  C   UNK N   1      30.726  18.475   8.964  0.00  0.00     0.017 C 
HETATM    4  C   UNK N   1      32.478  17.212   7.684  0.00  0.00     0.013 A 
HETATM    5  C   UNK N   1      32.302  16.862   6.413  0.00  0.00     0.105 A 
HETATM    6  N   UNK N   1      30.961  16.498   6.217  0.00  0.00    -0.206 NA
HETATM    7  C   UNK N   1      30.120  17.211   5.503  0.00  0.00     0.213 A 
HETATM    8  O   UNK N   1      30.452  18.020   4.650  0.00  0.00    -0.279 OA
HETATM    9  C   UNK N   1      29.120  17.418   6.595  0.00  0.00     0.120 A 
ENDROOT
BRANCH   4  10
HETATM   10  S   UNK N   1      34.017  17.747   8.477  0.00  0.00    -0.125 SA
BRANCH  10  11
HETATM   11  C   UNK N   1      34.233  16.106   9.240  0.00  0.00     0.072 C 
HETATM   12  C   UNK N   1      35.214  15.164   8.575  0.00  0.00     0.130 C 
HETATM   13  N   UNK N   1      35.649  14.231   9.626  0.00  0.00    -0.408 N 
HETATM   14  C   UNK N   1      34.990  14.715  10.841  0.00  0.00     0.170 C 
HETATM   15  H   UNK N   1      36.270  13.428   9.530  0.00  0.00     0.154 HD
HETATM   16  C   UNK N   1      34.772  16.176  10.628  0.00  0.00     0.051 C 
BRANCH  14  17
HETATM   17  C   UNK N   1      35.621  14.418  12.193  0.00  0.00     0.241 C 
HETATM   18  O   UNK N   1      36.180  15.351  12.756  0.00  0.00    -0.271 OA
HETATM   19  N   UNK N   1      35.577  13.199  12.815  0.00  0.00    -0.359 N 
HETATM   20  C   UNK N   1      36.188  13.035  14.112  0.00  0.00     0.152 C 
HETATM   21  C   UNK N   1      34.909  12.058  12.247  0.00  0.00     0.152 C 
ENDBRANCH  14  17
ENDBRANCH  10  11
ENDBRANCH   4  10
BRANCH   5  22
HETATM   22  C   UNK N   1      33.313  16.863   5.329  0.00  0.00     0.189 C 
HETATM   23  O   UNK N   1      33.990  15.872   5.103  0.00  0.00    -0.645 OA
BRANCH  22  24
HETATM   24  O   UNK N   1      33.492  17.968   4.581  0.00  0.00    -0.772 OA
HETATM   25  H   UNK N   1      33.843  18.778   4.898  0.00  0.00     0.167 HD
ENDBRANCH  22  24
ENDBRANCH   5  22
BRANCH   9  26
HETATM   26  C   UNK N   1      27.788  16.712   6.385  0.00  0.00     0.128 C 
HETATM   27  C   UNK N   1      26.963  17.443   5.345  0.00  0.00     0.040 C 
BRANCH  26  28
HETATM   28  O   UNK N   1      27.085  16.690   7.590  0.00  0.00    -0.395 OA
HETATM   29  H   UNK N   1      26.741  17.515   7.967  0.00  0.00     0.210 HD
ENDBRANCH  26  28
ENDBRANCH   9  26
TORSDOF 7
ENDMDL
MODEL 7
REMARK VINA RESULT:      -6.2      2.763      4.662
REMARK  7 active torsions:
REMARK  status: ('A' for Active; 'I' for Inactive)
REMARK    1  A    between atoms: C_4  and  S_5 
REMARK    2  A    between atoms: C_6  and  S_5 
REMARK    3  A    between atoms: C_9  and  C_11 
REMARK       I    between atoms: C_11  and  N_13 
REMARK    4  A    between atoms: C_16  and  C_24 
REMARK    5  A    between atoms: C_20  and  C_21 
REMARK    6  A    between atoms: C_21  and  O_23 
REMARK    7  A    between atoms: C_24  and  O_25 
ROOT
HETATM    1  C   UNK N   1      34.823  12.421  13.016  0.00  0.00     0.095 A 
HETATM    2  C   UNK N   1      35.469  11.836  11.729  0.00  0.00     0.043 A 
HETATM    3  C   UNK N   1      36.666  10.941  12.007  0.00  0.00     0.017 C 
HETATM    4  C   UNK N   1      35.861  13.056  10.917  0.00  0.00     0.013 A 
HETATM    5  C   UNK N   1      35.633  14.163  11.617  0.00  0.00     0.105 A 
HETATM    6  N   UNK N   1      35.077  13.816  12.859  0.00  0.00    -0.206 NA
HETATM    7  C   UNK N   1      35.718  13.956  13.996  0.00  0.00     0.213 A 
HETATM    8  O   UNK N   1      36.662  14.713  14.169  0.00  0.00    -0.279 OA
HETATM    9  C   UNK N   1      35.633  12.521  14.405  0.00  0.00     0.120 A 
ENDROOT
BRANCH   4  10
HETATM   10  S   UNK N   1      36.549  12.931   9.245  0.00  0.00    -0.125 SA
BRANCH  10  11
HETATM   11  C   UNK N   1      34.878  12.963   8.519  0.00  0.00     0.072 C 
HETATM   12  C   UNK N   1      33.776  12.284   9.304  0.00  0.00     0.130 C 
HETATM   13  N   UNK N   1      32.524  12.924   8.874  0.00  0.00    -0.408 N 
HETATM   14  C   UNK N   1      32.949  13.980   7.953  0.00  0.00     0.170 C 
HETATM   15  H   UNK N   1      31.573  12.688   9.155  0.00  0.00     0.154 HD
HETATM   16  C   UNK N   1      34.336  14.344   8.369  0.00  0.00     0.051 C 
BRANCH  14  17
HETATM   17  C   UNK N   1      32.064  15.203   7.768  0.00  0.00     0.241 C 
HETATM   18  O   UNK N   1      32.154  16.081   8.617  0.00  0.00    -0.271 OA
HETATM   19  N   UNK N   1      31.209  15.386   6.715  0.00  0.00    -0.359 N 
HETATM   20  C   UNK N   1      30.433  16.598   6.625  0.00  0.00     0.152 C 
HETATM   21  C   UNK N   1      31.067  14.427   5.652  0.00  0.00     0.152 C 
ENDBRANCH  14  17
ENDBRANCH  10  11
ENDBRANCH   4  10
BRANCH   5  22
HETATM   22  C   UNK N   1      35.922  15.560  11.215  0.00  0.00     0.189 C 
HETATM   23  O   UNK N   1      35.045  16.409  11.226  0.00  0.00    -0.645 OA
BRANCH  22  24
HETATM   24  O   UNK N   1      37.167  15.902  10.832  0.00  0.00    -0.772 OA
HETATM   25  H   UNK N   1      37.545  15.698   9.999  0.00  0.00     0.167 HD
ENDBRANCH  22  24
ENDBRANCH   5  22
BRANCH   9  26
HETATM   26  C   UNK N   1      34.744  12.250  15.611  0.00  0.00     0.128 C 
HETATM   27  C   UNK N   1      35.318  12.916  16.846  0.00  0.00     0.040 C 
BRANCH  26  28
HETATM   28  O   UNK N   1      34.673  10.873  15.829  0.00  0.00    -0.395 OA
HETATM   29  H   UNK N   1      33.811  10.429  15.850  0.00  0.00     0.210 HD
ENDBRANCH  26  28
ENDBRANCH   9  26
TORSDOF 7
ENDMDL
MODEL 8
REMARK VINA RESULT:      -6.0      2.046      7.095
REMARK  7 active torsions:
REMARK  status: ('A' for Active; 'I' for Inactive)
REMARK    1  A    between atoms: C_4  and  S_5 
REMARK    2  A    between atoms: C_6  and  S_5 
REMARK    3  A    between atoms: C_9  and  C_11 
REMARK       I    between atoms: C_11  and  N_13 
REMARK    4  A    between atoms: C_16  and  C_24 
REMARK    5  A    between atoms: C_20  and  C_21 
REMARK    6  A    between atoms: C_21  and  O_23 
REMARK    7  A    between atoms: C_24  and  O_25 
ROOT
HETATM    1  C   UNK N   1      32.151  16.702   5.856  0.00  0.00     0.095 A 
HETATM    2  C   UNK N   1      33.115  15.488   5.969  0.00  0.00     0.043 A 
HETATM    3  C   UNK N   1      32.426  14.209   6.413  0.00  0.00     0.017 C 
HETATM    4  C   UNK N   1      34.164  15.933   6.970  0.00  0.00     0.013 A 
HETATM    5  C   UNK N   1      33.839  17.119   7.476  0.00  0.00     0.105 A 
HETATM    6  N   UNK N   1      32.647  17.562   6.880  0.00  0.00    -0.206 NA
HETATM    7  C   UNK N   1      31.510  17.652   7.531  0.00  0.00     0.213 A 
HETATM    8  O   UNK N   1      31.414  17.734   8.746  0.00  0.00    -0.279 OA
HETATM    9  C   UNK N   1      30.739  16.742   6.630  0.00  0.00     0.120 A 
ENDROOT
BRANCH   4  10
HETATM   10  S   UNK N   1      35.615  14.924   7.373  0.00  0.00    -0.125 SA
BRANCH  10  11
HETATM   11  C   UNK N   1      34.803  14.298   8.879  0.00  0.00     0.072 C 
HETATM   12  C   UNK N   1      34.305  12.869   8.848  0.00  0.00     0.130 C 
HETATM   13  N   UNK N   1      34.259  12.429  10.251  0.00  0.00    -0.408 N 
HETATM   14  C   UNK N   1      34.804  13.558  11.007  0.00  0.00     0.170 C 
HETATM   15  H   UNK N   1      33.925  11.537  10.615  0.00  0.00     0.154 HD
HETATM   16  C   UNK N   1      35.709  14.278  10.063  0.00  0.00     0.051 C 
BRANCH  14  17
HETATM   17  C   UNK N   1      35.464  13.299  12.352  0.00  0.00     0.241 C 
HETATM   18  O   UNK N   1      34.937  13.813  13.331  0.00  0.00    -0.271 OA
HETATM   19  N   UNK N   1      36.575  12.518  12.531  0.00  0.00    -0.359 N 
HETATM   20  C   UNK N   1      37.104  12.319  13.858  0.00  0.00     0.152 C 
HETATM   21  C   UNK N   1      37.236  11.845  11.445  0.00  0.00     0.152 C 
ENDBRANCH  14  17
ENDBRANCH  10  11
ENDBRANCH   4  10
BRANCH   5  22
HETATM   22  C   UNK N   1      34.563  17.885   8.519  0.00  0.00     0.189 C 
HETATM   23  O   UNK N   1      35.265  18.838   8.222  0.00  0.00    -0.645 OA
BRANCH  22  24
HETATM   24  O   UNK N   1      34.447  17.528   9.812  0.00  0.00    -0.772 OA
HETATM   25  H   UNK N   1      34.410  16.644  10.122  0.00  0.00     0.167 HD
ENDBRANCH  22  24
ENDBRANCH   5  22
BRANCH   9  26
HETATM   26  C   UNK N   1      29.651  17.423   5.811  0.00  0.00     0.128 C 
HETATM   27  C   UNK N   1      28.336  17.401   6.563  0.00  0.00     0.040 C 
BRANCH  26  28
HETATM   28  O   UNK N   1      29.495  16.744   4.601  0.00  0.00    -0.395 OA
HETATM   29  H   UNK N   1      29.544  17.229   3.762  0.00  0.00     0.210 HD
ENDBRANCH  26  28
ENDBRANCH   9  26
TORSDOF 7
ENDMDL
MODEL 9
REMARK VINA RESULT:      -6.0      8.045     11.998
REMARK  7 active torsions:
REMARK  status: ('A' for Active; 'I' for Inactive)
REMARK    1  A    between atoms: C_4  and  S_5 
REMARK    2  A    between atoms: C_6  and  S_5 
REMARK    3  A    between atoms: C_9  and  C_11 
REMARK       I    between atoms: C_11  and  N_13 
REMARK    4  A    between atoms: C_16  and  C_24 
REMARK    5  A    between atoms: C_20  and  C_21 
REMARK    6  A    between atoms: C_21  and  O_23 
REMARK    7  A    between atoms: C_24  and  O_25 
ROOT
HETATM    1  C   UNK N   1      20.713  16.363   8.242  0.00  0.00     0.095 A 
HETATM    2  C   UNK N   1      21.349  15.880   6.909  0.00  0.00     0.043 A 
HETATM    3  C   UNK N   1      20.325  15.543   5.838  0.00  0.00     0.017 C 
HETATM    4  C   UNK N   1      22.168  14.664   7.300  0.00  0.00     0.013 A 
HETATM    5  C   UNK N   1      21.968  14.373   8.582  0.00  0.00     0.105 A 
HETATM    6  N   UNK N   1      21.088  15.316   9.137  0.00  0.00    -0.206 NA
HETATM    7  C   UNK N   1      19.862  15.023   9.507  0.00  0.00     0.213 A 
HETATM    8  O   UNK N   1      19.471  13.896   9.769  0.00  0.00    -0.279 OA
HETATM    9  C   UNK N   1      19.186  16.025   8.627  0.00  0.00     0.120 A 
ENDROOT
BRANCH   4  10
HETATM   10  S   UNK N   1      23.229  13.785   6.122  0.00  0.00    -0.125 SA
BRANCH  10  11
HETATM   11  C   UNK N   1      24.543  15.031   6.326  0.00  0.00     0.072 C 
HETATM   12  C   UNK N   1      25.968  14.524   6.377  0.00  0.00     0.130 C 
HETATM   13  N   UNK N   1      26.811  15.652   5.950  0.00  0.00    -0.408 N 
HETATM   14  C   UNK N   1      25.860  16.705   5.592  0.00  0.00     0.170 C 
HETATM   15  H   UNK N   1      27.829  15.690   5.911  0.00  0.00     0.154 HD
HETATM   16  C   UNK N   1      24.606  16.000   5.194  0.00  0.00     0.051 C 
BRANCH  14  17
HETATM   17  C   UNK N   1      26.272  17.763   4.580  0.00  0.00     0.241 C 
HETATM   18  O   UNK N   1      25.907  17.589   3.424  0.00  0.00    -0.271 OA
HETATM   19  N   UNK N   1      26.991  18.887   4.886  0.00  0.00    -0.359 N 
HETATM   20  C   UNK N   1      27.307  19.839   3.849  0.00  0.00     0.152 C 
HETATM   21  C   UNK N   1      27.428  19.192   6.222  0.00  0.00     0.152 C 
ENDBRANCH  14  17
ENDBRANCH  10  11
ENDBRANCH   4  10
BRANCH   5  22
HETATM   22  C   UNK N   1      22.532  13.236   9.348  0.00  0.00     0.189 C 
HETATM   23  O   UNK N   1      23.655  13.298   9.825  0.00  0.00    -0.645 OA
BRANCH  22  24
HETATM   24  O   UNK N   1      21.802  12.118   9.522  0.00  0.00    -0.772 OA
HETATM   25  H   UNK N   1      22.151  11.248   9.541  0.00  0.00     0.167 HD
ENDBRANCH  22  24
ENDBRANCH   5  22
BRANCH   9  26
HETATM   26  C   UNK N   1      18.511  17.173   9.366  0.00  0.00     0.128 C 
HETATM   27  C   UNK N   1      17.038  17.231   9.012  0.00  0.00     0.040 C 
BRANCH  26  28
HETATM   28  O   UNK N   1      19.115  18.375   8.996  0.00  0.00    -0.395 OA
HETATM   29  H   UNK N   1      19.349  18.536   8.068  0.00  0.00     0.210 HD
ENDBRANCH  26  28
ENDBRANCH   9  26
TORSDOF 7
ENDMDL
