MODEL 1
REMARK VINA RESULT:      -8.2      0.000      0.000
REMARK  3 active torsions:
REMARK  status: ('A' for Active; 'I' for Inactive)
REMARK    1  A    between atoms: C_16  and  C_7 
REMARK    2  A    between atoms: C_8  and  O_25 
REMARK    3  A    between atoms: C_27  and  C_16 
ROOT
HETATM    1  C   UNK N   1      32.143  21.999  -4.360  0.00  0.00     0.039 A 
HETATM    2  C   UNK N   1      28.549  24.525  -4.366  0.00  0.00     0.001 C 
HETATM    3  C   UNK N   1      30.628  22.377  -4.162  0.00  0.00     0.147 C 
HETATM    4  C   UNK N   1      32.239  20.974  -5.499  0.00  0.00    -0.027 A 
HETATM    5  C   UNK N   1      28.601  23.362  -5.367  0.00  0.00     0.005 C 
HETATM    6  C   UNK N   1      30.041  22.847  -5.546  0.00  0.00     0.037 C 
HETATM    7  C   UNK N   1      27.073  24.955  -4.500  0.00  0.00     0.130 C 
HETATM    8  C   UNK N   1      30.434  23.488  -3.079  0.00  0.00     0.160 C 
HETATM    9  C   UNK N   1      32.780  21.518  -3.064  0.00  0.00    -0.006 A 
HETATM   10  C   UNK N   1      28.990  24.015  -2.997  0.00  0.00     0.048 C 
HETATM   11  C   UNK N   1      26.958  25.021  -6.039  0.00  0.00     0.025 C 
HETATM   12  C   UNK N   1      27.882  23.919  -6.600  0.00  0.00     0.013 C 
HETATM   13  C   UNK N   1      30.104  21.695  -6.557  0.00  0.00     0.050 C 
HETATM   14  C   UNK N   1      31.558  21.302  -6.806  0.00  0.00     0.201 C 
HETATM   15  C   UNK N   1      32.904  19.812  -5.363  0.00  0.00     0.061 A 
HETATM   16  C   UNK N   1      33.444  20.363  -2.950  0.00  0.00     0.052 A 
HETATM   17  C   UNK N   1      33.583  19.475  -4.108  0.00  0.00     0.172 A 
HETATM   18  F   UNK N   1      29.925  21.251  -3.745  0.00  0.00    -0.238 F 
HETATM   19  O   UNK N   1      34.265  18.466  -4.030  0.00  0.00    -0.289 OA
HETATM   20  O   UNK N   1      26.240  23.937  -4.010  0.00  0.00    -0.381 OA
HETATM   21  C   UNK N   1      32.933  23.238  -4.776  0.00  0.00     0.028 C 
HETATM   22  C   UNK N   1      29.481  25.686  -4.790  0.00  0.00     0.019 C 
HETATM   23  F   UNK N   1      31.613  20.247  -7.703  0.00  0.00    -0.245 F 
HETATM   24  C   UNK N   1      25.543  24.943  -6.587  0.00  0.00     0.013 C 
HETATM   25  H   UNK N   1      25.736  23.225  -3.585  0.00  0.00     0.211 HD
ENDROOT
BRANCH   7  26
HETATM   26  C   UNK N   1      26.690  26.249  -3.801  0.00  0.00     0.175 C 
HETATM   27  O   UNK N   1      26.313  26.235  -2.637  0.00  0.00    -0.293 OA
BRANCH  26  28
HETATM   28  C   UNK N   1      26.732  27.546  -4.559  0.00  0.00     0.196 C 
HETATM   29 Cl   UNK N   1      25.938  28.888  -3.688  0.00  0.00    -0.122 Cl
ENDBRANCH  26  28
ENDBRANCH   7  26
BRANCH   8  30
HETATM   30  O   UNK N   1      30.813  23.040  -1.812  0.00  0.00    -0.392 OA
HETATM   31  H   UNK N   1      30.225  22.763  -1.092  0.00  0.00     0.210 HD
ENDBRANCH   8  30
TORSDOF 3
ENDMDL
MODEL 2
REMARK VINA RESULT:      -8.0     14.779     18.411
REMARK  3 active torsions:
REMARK  status: ('A' for Active; 'I' for Inactive)
REMARK    1  A    between atoms: C_16  and  C_7 
REMARK    2  A    between atoms: C_8  and  O_25 
REMARK    3  A    between atoms: C_27  and  C_16 
ROOT
HETATM    1  C   UNK N   1      33.827  15.347   7.000  0.00  0.00     0.039 A 
HETATM    2  C   UNK N   1      35.339  13.345  10.607  0.00  0.00     0.001 C 
HETATM    3  C   UNK N   1      33.790  14.732   8.449  0.00  0.00     0.147 C 
HETATM    4  C   UNK N   1      33.625  16.864   7.116  0.00  0.00    -0.027 A 
HETATM    5  C   UNK N   1      34.941  14.822  10.729  0.00  0.00     0.005 C 
HETATM    6  C   UNK N   1      34.843  15.488   9.344  0.00  0.00     0.037 C 
HETATM    7  C   UNK N   1      35.534  12.975  12.092  0.00  0.00     0.130 C 
HETATM    8  C   UNK N   1      34.078  13.195   8.445  0.00  0.00     0.160 C 
HETATM    9  C   UNK N   1      32.821  14.676   6.076  0.00  0.00    -0.006 A 
HETATM   10  C   UNK N   1      34.238  12.600   9.856  0.00  0.00     0.048 C 
HETATM   11  C   UNK N   1      36.414  14.161  12.544  0.00  0.00     0.025 C 
HETATM   12  C   UNK N   1      35.962  15.387  11.723  0.00  0.00     0.013 C 
HETATM   13  C   UNK N   1      34.462  16.970   9.459  0.00  0.00     0.050 C 
HETATM   14  C   UNK N   1      34.505  17.625   8.080  0.00  0.00     0.201 C 
HETATM   15  C   UNK N   1      32.702  17.522   6.391  0.00  0.00     0.061 A 
HETATM   16  C   UNK N   1      31.914  15.347   5.357  0.00  0.00     0.052 A 
HETATM   17  C   UNK N   1      31.842  16.808   5.441  0.00  0.00     0.172 A 
HETATM   18  F   UNK N   1      32.527  14.925   8.998  0.00  0.00    -0.238 F 
HETATM   19  O   UNK N   1      31.078  17.428   4.717  0.00  0.00    -0.289 OA
HETATM   20  O   UNK N   1      34.298  13.027  12.755  0.00  0.00    -0.381 OA
HETATM   21  C   UNK N   1      35.197  15.102   6.371  0.00  0.00     0.028 C 
HETATM   22  C   UNK N   1      36.672  13.173   9.837  0.00  0.00     0.019 C 
HETATM   23  F   UNK N   1      34.140  18.957   8.181  0.00  0.00    -0.245 F 
HETATM   24  C   UNK N   1      36.428  14.423  14.041  0.00  0.00     0.013 C 
HETATM   25  H   UNK N   1      33.401  13.010  13.125  0.00  0.00     0.211 HD
ENDROOT
BRANCH   7  26
HETATM   26  C   UNK N   1      36.151  11.613  12.364  0.00  0.00     0.175 C 
HETATM   27  O   UNK N   1      35.446  10.616  12.435  0.00  0.00    -0.293 OA
BRANCH  26  28
HETATM   28  C   UNK N   1      37.633  11.500  12.591  0.00  0.00     0.196 C 
HETATM   29 Cl   UNK N   1      38.054  11.190  14.299  0.00  0.00    -0.122 Cl
ENDBRANCH  26  28
ENDBRANCH   7  26
BRANCH   8  30
HETATM   30  O   UNK N   1      33.074  12.488   7.780  0.00  0.00    -0.392 OA
HETATM   31  H   UNK N   1      32.295  12.860   7.338  0.00  0.00     0.210 HD
ENDBRANCH   8  30
TORSDOF 3
ENDMDL
MODEL 3
REMARK VINA RESULT:      -8.0     13.802     16.674
REMARK  3 active torsions:
REMARK  status: ('A' for Active; 'I' for Inactive)
REMARK    1  A    between atoms: C_16  and  C_7 
REMARK    2  A    between atoms: C_8  and  O_25 
REMARK    3  A    between atoms: C_27  and  C_16 
ROOT
HETATM    1  C   UNK N   1      35.739  14.603  10.842  0.00  0.00     0.039 A 
HETATM    2  C   UNK N   1      33.423  15.706   7.275  0.00  0.00     0.001 C 
HETATM    3  C   UNK N   1      34.753  14.414   9.630  0.00  0.00     0.147 C 
HETATM    4  C   UNK N   1      36.984  13.744  10.587  0.00  0.00    -0.027 A 
HETATM    5  C   UNK N   1      34.563  14.694   7.096  0.00  0.00     0.005 C 
HETATM    6  C   UNK N   1      35.529  14.728   8.295  0.00  0.00     0.037 C 
HETATM    7  C   UNK N   1      32.724  15.599   5.903  0.00  0.00     0.130 C 
HETATM    8  C   UNK N   1      33.486  15.323   9.752  0.00  0.00     0.160 C 
HETATM    9  C   UNK N   1      35.063  14.302  12.172  0.00  0.00    -0.006 A 
HETATM   10  C   UNK N   1      32.597  15.305   8.495  0.00  0.00     0.048 C 
HETATM   11  C   UNK N   1      33.953  15.708   4.975  0.00  0.00     0.025 C 
HETATM   12  C   UNK N   1      35.129  15.034   5.713  0.00  0.00     0.013 C 
HETATM   13  C   UNK N   1      36.681  13.731   8.116  0.00  0.00     0.050 C 
HETATM   14  C   UNK N   1      37.684  13.887   9.257  0.00  0.00     0.201 C 
HETATM   15  C   UNK N   1      37.462  12.883  11.505  0.00  0.00     0.061 A 
HETATM   16  C   UNK N   1      35.556  13.448  13.076  0.00  0.00     0.052 A 
HETATM   17  C   UNK N   1      36.807  12.733  12.809  0.00  0.00     0.172 A 
HETATM   18  F   UNK N   1      34.323  13.092   9.589  0.00  0.00    -0.238 F 
HETATM   19  O   UNK N   1      37.305  12.024  13.669  0.00  0.00    -0.289 OA
HETATM   20  O   UNK N   1      32.145  14.327   5.769  0.00  0.00    -0.381 OA
HETATM   21  C   UNK N   1      36.183  16.062  10.922  0.00  0.00     0.028 C 
HETATM   22  C   UNK N   1      33.960  17.143   7.487  0.00  0.00     0.019 C 
HETATM   23  F   UNK N   1      38.714  12.972   9.106  0.00  0.00    -0.245 F 
HETATM   24  C   UNK N   1      33.751  15.171   3.567  0.00  0.00     0.013 C 
HETATM   25  H   UNK N   1      31.709  13.460   5.781  0.00  0.00     0.211 HD
ENDROOT
BRANCH   7  26
HETATM   26  C   UNK N   1      31.648  16.633   5.621  0.00  0.00     0.175 C 
HETATM   27  O   UNK N   1      31.899  17.618   4.940  0.00  0.00    -0.293 OA
BRANCH  26  28
HETATM   28  C   UNK N   1      30.279  16.466   6.220  0.00  0.00     0.196 C 
HETATM   29 Cl   UNK N   1      29.959  17.609   7.556  0.00  0.00    -0.122 Cl
ENDBRANCH  26  28
ENDBRANCH   7  26
BRANCH   8  30
HETATM   30  O   UNK N   1      32.703  14.964  10.850  0.00  0.00    -0.392 OA
HETATM   31  H   UNK N   1      33.017  14.687  11.726  0.00  0.00     0.210 HD
ENDBRANCH   8  30
TORSDOF 3
ENDMDL
MODEL 4
REMARK VINA RESULT:      -7.8     11.072     12.705
REMARK  3 active torsions:
REMARK  status: ('A' for Active; 'I' for Inactive)
REMARK    1  A    between atoms: C_16  and  C_7 
REMARK    2  A    between atoms: C_8  and  O_25 
REMARK    3  A    between atoms: C_27  and  C_16 
ROOT
HETATM    1  C   UNK N   1      31.469  16.440   6.132  0.00  0.00     0.039 A 
HETATM    2  C   UNK N   1      27.571  16.023   4.148  0.00  0.00     0.001 C 
HETATM    3  C   UNK N   1      30.203  16.874   5.304  0.00  0.00     0.147 C 
HETATM    4  C   UNK N   1      31.461  17.210   7.460  0.00  0.00    -0.027 A 
HETATM    5  C   UNK N   1      27.649  16.942   5.375  0.00  0.00     0.005 C 
HETATM    6  C   UNK N   1      28.922  16.667   6.196  0.00  0.00     0.037 C 
HETATM    7  C   UNK N   1      26.165  16.370   3.616  0.00  0.00     0.130 C 
HETATM    8  C   UNK N   1      30.072  16.074   3.966  0.00  0.00     0.160 C 
HETATM    9  C   UNK N   1      32.754  16.626   5.339  0.00  0.00    -0.006 A 
HETATM   10  C   UNK N   1      28.748  16.335   3.226  0.00  0.00     0.048 C 
HETATM   11  C   UNK N   1      25.357  16.272   4.928  0.00  0.00     0.025 C 
HETATM   12  C   UNK N   1      26.295  16.735   6.063  0.00  0.00     0.013 C 
HETATM   13  C   UNK N   1      28.998  17.571   7.434  0.00  0.00     0.050 C 
HETATM   14  C   UNK N   1      30.200  17.178   8.290  0.00  0.00     0.201 C 
HETATM   15  C   UNK N   1      32.532  17.898   7.897  0.00  0.00     0.061 A 
HETATM   16  C   UNK N   1      33.812  17.308   5.792  0.00  0.00     0.052 A 
HETATM   17  C   UNK N   1      33.773  17.936   7.115  0.00  0.00     0.172 A 
HETATM   18  F   UNK N   1      30.303  18.223   4.983  0.00  0.00    -0.238 F 
HETATM   19  O   UNK N   1      34.768  18.479   7.567  0.00  0.00    -0.289 OA
HETATM   20  O   UNK N   1      26.151  17.695   3.154  0.00  0.00    -0.381 OA
HETATM   21  C   UNK N   1      31.390  14.950   6.453  0.00  0.00     0.028 C 
HETATM   22  C   UNK N   1      27.635  14.529   4.548  0.00  0.00     0.019 C 
HETATM   23  F   UNK N   1      30.281  18.009   9.396  0.00  0.00    -0.245 F 
HETATM   24  C   UNK N   1      24.024  17.002   4.924  0.00  0.00     0.013 C 
HETATM   25  H   UNK N   1      26.240  18.589   2.786  0.00  0.00     0.211 HD
ENDROOT
BRANCH   7  26
HETATM   26  C   UNK N   1      25.637  15.482   2.502  0.00  0.00     0.175 C 
HETATM   27  O   UNK N   1      25.960  15.687   1.339  0.00  0.00    -0.293 OA
BRANCH  26  28
HETATM   28  C   UNK N   1      24.676  14.372   2.826  0.00  0.00     0.196 C 
HETATM   29 Cl   UNK N   1      23.016  14.698   2.253  0.00  0.00    -0.122 Cl
ENDBRANCH  26  28
ENDBRANCH   7  26
BRANCH   8  30
HETATM   30  O   UNK N   1      31.126  16.357   3.096  0.00  0.00    -0.392 OA
HETATM   31  H   UNK N   1      31.343  17.217   2.703  0.00  0.00     0.210 HD
ENDBRANCH   8  30
TORSDOF 3
ENDMDL
MODEL 5
REMARK VINA RESULT:      -7.7     13.425     17.019
REMARK  3 active torsions:
REMARK  status: ('A' for Active; 'I' for Inactive)
REMARK    1  A    between atoms: C_16  and  C_7 
REMARK    2  A    between atoms: C_8  and  O_25 
REMARK    3  A    between atoms: C_27  and  C_16 
ROOT
HETATM    1  C   UNK N   1      32.952  15.478   6.229  0.00  0.00     0.039 A 
HETATM    2  C   UNK N   1      35.384  14.586   9.777  0.00  0.00     0.001 C 
HETATM    3  C   UNK N   1      34.075  15.680   7.313  0.00  0.00     0.147 C 
HETATM    4  C   UNK N   1      33.630  15.224   4.876  0.00  0.00    -0.027 A 
HETATM    5  C   UNK N   1      36.077  14.530   8.409  0.00  0.00     0.005 C 
HETATM    6  C   UNK N   1      35.048  14.442   7.268  0.00  0.00     0.037 C 
HETATM    7  C   UNK N   1      36.601  14.494  10.722  0.00  0.00     0.130 C 
HETATM    8  C   UNK N   1      33.482  15.857   8.750  0.00  0.00     0.160 C 
HETATM    9  C   UNK N   1      31.977  16.647   6.201  0.00  0.00    -0.006 A 
HETATM   10  C   UNK N   1      34.553  15.865   9.855  0.00  0.00     0.048 C 
HETATM   11  C   UNK N   1      37.340  13.300  10.080  0.00  0.00     0.025 C 
HETATM   12  C   UNK N   1      37.076  13.379   8.561  0.00  0.00     0.013 C 
HETATM   13  C   UNK N   1      35.734  14.369   5.897  0.00  0.00     0.050 C 
HETATM   14  C   UNK N   1      34.689  14.150   4.805  0.00  0.00     0.201 C 
HETATM   15  C   UNK N   1      33.308  15.920   3.770  0.00  0.00     0.061 A 
HETATM   16  C   UNK N   1      31.663  17.323   5.091  0.00  0.00     0.052 A 
HETATM   17  C   UNK N   1      32.276  16.961   3.810  0.00  0.00     0.172 A 
HETATM   18  F   UNK N   1      34.804  16.825   7.012  0.00  0.00    -0.238 F 
HETATM   19  O   UNK N   1      31.922  17.516   2.781  0.00  0.00    -0.289 OA
HETATM   20  O   UNK N   1      37.382  15.653  10.595  0.00  0.00    -0.381 OA
HETATM   21  C   UNK N   1      32.117  14.248   6.574  0.00  0.00     0.028 C 
HETATM   22  C   UNK N   1      34.449  13.371   9.995  0.00  0.00     0.019 C 
HETATM   23  F   UNK N   1      35.307  14.106   3.565  0.00  0.00    -0.245 F 
HETATM   24  C   UNK N   1      38.817  13.194  10.421  0.00  0.00     0.013 C 
HETATM   25  H   UNK N   1      37.827  16.512  10.510  0.00  0.00     0.211 HD
ENDROOT
BRANCH   7  26
HETATM   26  C   UNK N   1      36.287  14.302  12.196  0.00  0.00     0.175 C 
HETATM   27  O   UNK N   1      35.993  15.260  12.897  0.00  0.00    -0.293 OA
BRANCH  26  28
HETATM   28  C   UNK N   1      36.382  12.931  12.804  0.00  0.00     0.196 C 
HETATM   29 Cl   UNK N   1      34.819  12.339  13.435  0.00  0.00    -0.122 Cl
ENDBRANCH  26  28
ENDBRANCH   7  26
BRANCH   8  30
HETATM   30  O   UNK N   1      32.734  17.031   8.853  0.00  0.00    -0.392 OA
HETATM   31  H   UNK N   1      33.026  17.930   8.635  0.00  0.00     0.210 HD
ENDBRANCH   8  30
TORSDOF 3
ENDMDL
MODEL 6
REMARK VINA RESULT:      -7.6      4.696      7.355
REMARK  3 active torsions:
REMARK  status: ('A' for Active; 'I' for Inactive)
REMARK    1  A    between atoms: C_16  and  C_7 
REMARK    2  A    between atoms: C_8  and  O_25 
REMARK    3  A    between atoms: C_27  and  C_16 
ROOT
HETATM    1  C   UNK N   1      27.653  28.475  -4.686  0.00  0.00     0.039 A 
HETATM    2  C   UNK N   1      26.699  24.862  -6.997  0.00  0.00     0.001 C 
HETATM    3  C   UNK N   1      27.111  27.022  -4.961  0.00  0.00     0.147 C 
HETATM    4  C   UNK N   1      28.866  28.366  -3.752  0.00  0.00    -0.027 A 
HETATM    5  C   UNK N   1      27.780  24.747  -5.913  0.00  0.00     0.005 C 
HETATM    6  C   UNK N   1      28.298  26.135  -5.495  0.00  0.00     0.037 C 
HETATM    7  C   UNK N   1      26.485  23.375  -7.350  0.00  0.00     0.130 C 
HETATM    8  C   UNK N   1      25.925  27.019  -5.980  0.00  0.00     0.160 C 
HETATM    9  C   UNK N   1      26.563  29.392  -4.150  0.00  0.00    -0.006 A 
HETATM   10  C   UNK N   1      25.499  25.606  -6.416  0.00  0.00     0.048 C 
HETATM   11  C   UNK N   1      27.955  22.933  -7.519  0.00  0.00     0.025 C 
HETATM   12  C   UNK N   1      28.786  23.760  -6.515  0.00  0.00     0.013 C 
HETATM   13  C   UNK N   1      29.391  26.027  -4.424  0.00  0.00     0.050 C 
HETATM   14  C   UNK N   1      29.971  27.410  -4.133  0.00  0.00     0.201 C 
HETATM   15  C   UNK N   1      28.969  29.092  -2.623  0.00  0.00     0.061 A 
HETATM   16  C   UNK N   1      26.685  30.111  -3.029  0.00  0.00     0.052 A 
HETATM   17  C   UNK N   1      27.915  30.036  -2.236  0.00  0.00     0.172 A 
HETATM   18  F   UNK N   1      26.650  26.471  -3.771  0.00  0.00    -0.238 F 
HETATM   19  O   UNK N   1      28.064  30.760  -1.265  0.00  0.00    -0.289 OA
HETATM   20  O   UNK N   1      25.917  22.708  -6.254  0.00  0.00    -0.381 OA
HETATM   21  C   UNK N   1      28.122  29.107  -5.994  0.00  0.00     0.028 C 
HETATM   22  C   UNK N   1      27.212  25.635  -8.237  0.00  0.00     0.019 C 
HETATM   23  F   UNK N   1      30.943  27.315  -3.150  0.00  0.00    -0.245 F 
HETATM   24  C   UNK N   1      28.199  21.437  -7.401  0.00  0.00     0.013 C 
HETATM   25  H   UNK N   1      25.456  22.335  -5.486  0.00  0.00     0.211 HD
ENDROOT
BRANCH   7  26
HETATM   26  C   UNK N   1      25.618  23.098  -8.566  0.00  0.00     0.175 C 
HETATM   27  O   UNK N   1      24.398  23.126  -8.477  0.00  0.00    -0.293 OA
BRANCH  26  28
HETATM   28  C   UNK N   1      26.263  22.743  -9.877  0.00  0.00     0.196 C 
HETATM   29 Cl   UNK N   1      25.919  21.067 -10.392  0.00  0.00    -0.122 Cl
ENDBRANCH  26  28
ENDBRANCH   7  26
BRANCH   8  30
HETATM   30  O   UNK N   1      24.806  27.676  -5.464  0.00  0.00    -0.392 OA
HETATM   31  H   UNK N   1      24.731  28.110  -4.599  0.00  0.00     0.210 HD
ENDBRANCH   8  30
TORSDOF 3
ENDMDL
MODEL 7
REMARK VINA RESULT:      -7.6     19.942     23.303
REMARK  3 active torsions:
REMARK  status: ('A' for Active; 'I' for Inactive)
REMARK    1  A    between atoms: C_16  and  C_7 
REMARK    2  A    between atoms: C_8  and  O_25 
REMARK    3  A    between atoms: C_27  and  C_16 
ROOT
HETATM    1  C   UNK N   1      35.726  10.498  16.185  0.00  0.00     0.039 A 
HETATM    2  C   UNK N   1      36.350  12.197  12.182  0.00  0.00     0.001 C 
HETATM    3  C   UNK N   1      36.492  11.207  15.007  0.00  0.00     0.147 C 
HETATM    4  C   UNK N   1      35.539  11.516  17.318  0.00  0.00    -0.027 A 
HETATM    5  C   UNK N   1      36.348  13.166  13.372  0.00  0.00     0.005 C 
HETATM    6  C   UNK N   1      35.712  12.518  14.615  0.00  0.00     0.037 C 
HETATM    7  C   UNK N   1      36.861  13.121  11.057  0.00  0.00     0.130 C 
HETATM    8  C   UNK N   1      36.653  10.274  13.762  0.00  0.00     0.160 C 
HETATM    9  C   UNK N   1      36.430   9.225  16.632  0.00  0.00    -0.006 A 
HETATM   10  C   UNK N   1      37.225  10.995  12.528  0.00  0.00     0.048 C 
HETATM   11  C   UNK N   1      35.943  14.342  11.286  0.00  0.00     0.025 C 
HETATM   12  C   UNK N   1      35.687  14.426  12.805  0.00  0.00     0.013 C 
HETATM   13  C   UNK N   1      35.692  13.487  15.805  0.00  0.00     0.050 C 
HETATM   14  C   UNK N   1      34.937  12.857  16.974  0.00  0.00     0.201 C 
HETATM   15  C   UNK N   1      35.890  11.246  18.589  0.00  0.00     0.061 A 
HETATM   16  C   UNK N   1      36.765   8.970  17.902  0.00  0.00     0.052 A 
HETATM   17  C   UNK N   1      36.466   9.947  18.952  0.00  0.00     0.172 A 
HETATM   18  F   UNK N   1      37.766  11.563  15.436  0.00  0.00    -0.238 F 
HETATM   19  O   UNK N   1      36.687   9.677  20.122  0.00  0.00    -0.289 OA
HETATM   20  O   UNK N   1      38.193  13.480  11.313  0.00  0.00    -0.381 OA
HETATM   21  C   UNK N   1      34.341  10.062  15.712  0.00  0.00     0.028 C 
HETATM   22  C   UNK N   1      34.923  11.695  11.850  0.00  0.00     0.019 C 
HETATM   23  F   UNK N   1      34.938  13.724  18.055  0.00  0.00    -0.245 F 
HETATM   24  C   UNK N   1      36.446  15.650  10.696  0.00  0.00     0.013 C 
HETATM   25  H   UNK N   1      39.131  13.622  11.516  0.00  0.00     0.211 HD
ENDROOT
BRANCH   7  26
HETATM   26  C   UNK N   1      36.792  12.557   9.648  0.00  0.00     0.175 C 
HETATM   27  O   UNK N   1      37.693  11.849   9.219  0.00  0.00    -0.293 OA
BRANCH  26  28
HETATM   28  C   UNK N   1      35.630  12.909   8.761  0.00  0.00     0.196 C 
HETATM   29 Cl   UNK N   1      36.062  14.069   7.473  0.00  0.00    -0.122 Cl
ENDBRANCH  26  28
ENDBRANCH   7  26
BRANCH   8  30
HETATM   30  O   UNK N   1      37.466   9.176  14.047  0.00  0.00    -0.392 OA
HETATM   31  H   UNK N   1      38.321   8.962  13.641  0.00  0.00     0.210 HD
ENDBRANCH   8  30
TORSDOF 3
ENDMDL
MODEL 8
REMARK VINA RESULT:      -7.5      3.321      7.122
REMARK  3 active torsions:
REMARK  status: ('A' for Active; 'I' for Inactive)
REMARK    1  A    between atoms: C_16  and  C_7 
REMARK    2  A    between atoms: C_8  and  O_25 
REMARK    3  A    between atoms: C_27  and  C_16 
ROOT
HETATM    1  C   UNK N   1      27.467  24.804  -4.300  0.00  0.00     0.039 A 
HETATM    2  C   UNK N   1      31.124  22.411  -4.755  0.00  0.00     0.001 C 
HETATM    3  C   UNK N   1      28.852  24.360  -4.903  0.00  0.00     0.147 C 
HETATM    4  C   UNK N   1      26.384  24.571  -5.362  0.00  0.00    -0.027 A 
HETATM    5  C   UNK N   1      30.094  22.356  -5.891  0.00  0.00     0.005 C 
HETATM    6  C   UNK N   1      28.723  22.879  -5.424  0.00  0.00     0.037 C 
HETATM    7  C   UNK N   1      32.320  21.692  -5.414  0.00  0.00     0.130 C 
HETATM    8  C   UNK N   1      30.013  24.474  -3.862  0.00  0.00     0.160 C 
HETATM    9  C   UNK N   1      27.508  26.236  -3.787  0.00  0.00    -0.006 A 
HETATM   10  C   UNK N   1      31.339  23.870  -4.357  0.00  0.00     0.048 C 
HETATM   11  C   UNK N   1      31.597  20.450  -5.981  0.00  0.00     0.025 C 
HETATM   12  C   UNK N   1      30.178  20.907  -6.380  0.00  0.00     0.013 C 
HETATM   13  C   UNK N   1      27.683  22.812  -6.551  0.00  0.00     0.050 C 
HETATM   14  C   UNK N   1      26.310  23.212  -6.014  0.00  0.00     0.201 C 
HETATM   15  C   UNK N   1      25.511  25.532  -5.718  0.00  0.00     0.061 A 
HETATM   16  C   UNK N   1      26.627  27.176  -4.147  0.00  0.00     0.052 A 
HETATM   17  C   UNK N   1      25.554  26.858  -5.092  0.00  0.00     0.172 A 
HETATM   18  F   UNK N   1      29.168  25.180  -5.981  0.00  0.00    -0.238 F 
HETATM   19  O   UNK N   1      24.696  27.688  -5.350  0.00  0.00    -0.289 OA
HETATM   20  O   UNK N   1      32.813  22.472  -6.471  0.00  0.00    -0.381 OA
HETATM   21  C   UNK N   1      27.131  23.937  -3.089  0.00  0.00     0.028 C 
HETATM   22  C   UNK N   1      30.647  21.620  -3.512  0.00  0.00     0.019 C 
HETATM   23  F   UNK N   1      25.376  23.171  -7.037  0.00  0.00    -0.245 F 
HETATM   24  C   UNK N   1      32.328  19.733  -7.105  0.00  0.00     0.013 C 
HETATM   25  H   UNK N   1      33.144  23.099  -7.133  0.00  0.00     0.211 HD
ENDROOT
BRANCH   7  26
HETATM   26  C   UNK N   1      33.484  21.358  -4.497  0.00  0.00     0.175 C 
HETATM   27  O   UNK N   1      34.458  22.097  -4.438  0.00  0.00    -0.293 OA
BRANCH  26  28
HETATM   28  C   UNK N   1      33.458  20.090  -3.691  0.00  0.00     0.196 C 
HETATM   29 Cl   UNK N   1      34.479  18.800  -4.389  0.00  0.00    -0.122 Cl
ENDBRANCH  26  28
ENDBRANCH   7  26
BRANCH   8  30
HETATM   30  O   UNK N   1      30.243  25.801  -3.496  0.00  0.00    -0.392 OA
HETATM   31  H   UNK N   1      29.595  26.428  -3.138  0.00  0.00     0.210 HD
ENDBRANCH   8  30
TORSDOF 3
ENDMDL
MODEL 9
REMARK VINA RESULT:      -7.4     12.171     14.178
REMARK  3 active torsions:
REMARK  status: ('A' for Active; 'I' for Inactive)
REMARK    1  A    between atoms: C_16  and  C_7 
REMARK    2  A    between atoms: C_8  and  O_25 
REMARK    3  A    between atoms: C_27  and  C_16 
ROOT
HETATM    1  C   UNK N   1      21.785  15.799   4.237  0.00  0.00     0.039 A 
HETATM    2  C   UNK N   1      25.962  17.083   4.692  0.00  0.00     0.001 C 
HETATM    3  C   UNK N   1      23.051  16.416   4.940  0.00  0.00     0.147 C 
HETATM    4  C   UNK N   1      20.764  16.922   4.012  0.00  0.00    -0.027 A 
HETATM    5  C   UNK N   1      24.883  18.175   4.655  0.00  0.00     0.005 C 
HETATM    6  C   UNK N   1      23.563  17.632   4.079  0.00  0.00     0.037 C 
HETATM    7  C   UNK N   1      27.192  17.907   5.128  0.00  0.00     0.130 C 
HETATM    8  C   UNK N   1      24.191  15.364   5.132  0.00  0.00     0.160 C 
HETATM    9  C   UNK N   1      21.220  14.623   5.021  0.00  0.00    -0.006 A 
HETATM   10  C   UNK N   1      25.508  15.976   5.640  0.00  0.00     0.048 C 
HETATM   11  C   UNK N   1      27.074  19.093   4.146  0.00  0.00     0.025 C 
HETATM   12  C   UNK N   1      25.567  19.328   3.913  0.00  0.00     0.013 C 
HETATM   13  C   UNK N   1      22.484  18.722   4.024  0.00  0.00     0.050 C 
HETATM   14  C   UNK N   1      21.237  18.183   3.328  0.00  0.00     0.201 C 
HETATM   15  C   UNK N   1      19.480  16.812   4.399  0.00  0.00     0.061 A 
HETATM   16  C   UNK N   1      19.939  14.527   5.392  0.00  0.00     0.052 A 
HETATM   17  C   UNK N   1      18.993  15.595   5.056  0.00  0.00     0.172 A 
HETATM   18  F   UNK N   1      22.693  16.888   6.199  0.00  0.00    -0.238 F 
HETATM   19  O   UNK N   1      17.807  15.467   5.312  0.00  0.00    -0.289 OA
HETATM   20  O   UNK N   1      27.008  18.364   6.442  0.00  0.00    -0.381 OA
HETATM   21  C   UNK N   1      22.176  15.239   2.871  0.00  0.00     0.028 C 
HETATM   22  C   UNK N   1      26.203  16.470   3.290  0.00  0.00     0.019 C 
HETATM   23  F   UNK N   1      20.255  19.161   3.297  0.00  0.00    -0.245 F 
HETATM   24  C   UNK N   1      27.814  20.354   4.563  0.00  0.00     0.013 C 
HETATM   25  H   UNK N   1      26.843  18.579   7.374  0.00  0.00     0.211 HD
ENDROOT
BRANCH   7  26
HETATM   26  C   UNK N   1      28.530  17.190   5.067  0.00  0.00     0.175 C 
HETATM   27  O   UNK N   1      29.185  17.187   4.034  0.00  0.00    -0.293 OA
BRANCH  26  28
HETATM   28  C   UNK N   1      29.030  16.442   6.271  0.00  0.00     0.196 C 
HETATM   29 Cl   UNK N   1      30.259  17.352   7.195  0.00  0.00    -0.122 Cl
ENDBRANCH  26  28
ENDBRANCH   7  26
BRANCH   8  30
HETATM   30  O   UNK N   1      23.809  14.350   6.012  0.00  0.00    -0.392 OA
HETATM   31  H   UNK N   1      23.676  14.428   6.970  0.00  0.00     0.210 HD
ENDBRANCH   8  30
TORSDOF 3
ENDMDL
