MODEL 1
REMARK VINA RESULT:      -7.9      0.000      0.000
REMARK  6 active torsions:
REMARK  status: ('A' for Active; 'I' for Inactive)
REMARK    1  A    between atoms: C_3  and  O_9 
REMARK    2  A    between atoms: C_4  and  N_11 
REMARK    3  A    between atoms: C_5  and  O_13 
REMARK    4  A    between atoms: C_10  and  O_17 
REMARK    5  A    between atoms: C_14  and  C_21 
REMARK       I    between atoms: C_21  and  N_25 
REMARK    6  A    between atoms: C_28  and  O_31 
ROOT
HETATM    1  C   UNK N   1      32.682  16.051   6.889  0.00  0.00     0.104 C 
HETATM    2  C   UNK N   1      32.226  16.587   8.261  0.00  0.00     0.180 C 
HETATM    3  C   UNK N   1      34.221  16.198   6.898  0.00  0.00     0.141 C 
HETATM    4  C   UNK N   1      32.042  16.884   5.759  0.00  0.00     0.289 C 
HETATM    5  C   UNK N   1      32.783  15.673   9.350  0.00  0.00     0.097 C 
HETATM    6  C   UNK N   1      30.724  16.779   8.337  0.00  0.00     0.208 C 
HETATM    7  O   UNK N   1      32.785  17.857   8.466  0.00  0.00    -0.374 OA
HETATM    8  C   UNK N   1      34.972  15.556   8.102  0.00  0.00     0.087 C 
HETATM    9  C   UNK N   1      30.521  17.005   5.882  0.00  0.00     0.096 C 
HETATM   10  C   UNK N   1      34.081  15.260   9.309  0.00  0.00     0.036 C 
HETATM   11  C   UNK N   1      29.903  16.973   7.097  0.00  0.00     0.112 C 
HETATM   12  O   UNK N   1      30.204  16.956   9.432  0.00  0.00    -0.288 OA
HETATM   13  C   UNK N   1      35.870  14.351   7.835  0.00  0.00    -0.045 C 
HETATM   14  C   UNK N   1      34.712  14.519  10.451  0.00  0.00     0.195 C 
HETATM   15  C   UNK N   1      36.633  13.830   8.995  0.00  0.00    -0.013 A 
HETATM   16  C   UNK N   1      36.083  13.944  10.293  0.00  0.00     0.059 A 
HETATM   17  O   UNK N   1      34.117  14.390  11.511  0.00  0.00    -0.287 OA
HETATM   18  C   UNK N   1      37.888  13.225   8.819  0.00  0.00     0.013 A 
HETATM   19  C   UNK N   1      36.822  13.462  11.399  0.00  0.00     0.080 A 
HETATM   20  C   UNK N   1      38.613  12.773   9.921  0.00  0.00     0.004 A 
HETATM   21  C   UNK N   1      38.085  12.896  11.204  0.00  0.00     0.037 A 
HETATM   22  C   UNK N   1      36.118  13.886   6.606  0.00  0.00     0.020 C 
HETATM   23  H   UNK N   1      33.154  18.743   8.606  0.00  0.00     0.211 HD
ENDROOT
BRANCH   5  24
HETATM   24  O   UNK N   1      31.994  15.312  10.386  0.00  0.00    -0.361 OA
HETATM   25  H   UNK N   1      32.225  14.679  11.037  0.00  0.00     0.217 HD
ENDBRANCH   5  24
BRANCH   3  26
HETATM   26  O   UNK N   1      34.849  16.035   5.659  0.00  0.00    -0.394 OA
HETATM   27  H   UNK N   1      34.674  16.662   4.940  0.00  0.00     0.210 HD
ENDBRANCH   3  26
BRANCH   4  28
HETATM   28  N   UNK N   1      32.506  16.443   4.427  0.00  0.00     0.091 N 
HETATM   29  C   UNK N   1      32.371  17.504   3.439  0.00  0.00     0.310 C 
HETATM   30  C   UNK N   1      31.799  15.257   3.958  0.00  0.00     0.310 C 
ENDBRANCH   4  28
BRANCH  11  31
HETATM   31  C   UNK N   1      28.412  17.174   7.227  0.00  0.00     0.255 C 
HETATM   32  N   UNK N   1      27.899  18.165   7.982  0.00  0.00    -0.366 N 
HETATM   33  H   UNK N   1      28.461  18.923   8.264  0.00  0.00     0.159 HD
HETATM   34  H   UNK N   1      26.955  18.132   8.255  0.00  0.00     0.159 HD
HETATM   35  O   UNK N   1      27.640  16.416   6.658  0.00  0.00    -0.268 OA
ENDBRANCH  11  31
BRANCH   9  36
HETATM   36  O   UNK N   1      29.796  17.192   4.759  0.00  0.00    -0.362 OA
HETATM   37  H   UNK N   1      28.864  17.280   4.792  0.00  0.00     0.217 HD
ENDBRANCH   9  36
BRANCH  19  38
HETATM   38  O   UNK N   1      36.334  13.549  12.649  0.00  0.00    -0.360 OA
HETATM   39  H   UNK N   1      35.446  13.307  12.824  0.00  0.00     0.217 HD
ENDBRANCH  19  38
TORSDOF 6
ENDMDL
MODEL 2
REMARK VINA RESULT:      -7.7      2.997      5.497
REMARK  6 active torsions:
REMARK  status: ('A' for Active; 'I' for Inactive)
REMARK    1  A    between atoms: C_3  and  O_9 
REMARK    2  A    between atoms: C_4  and  N_11 
REMARK    3  A    between atoms: C_5  and  O_13 
REMARK    4  A    between atoms: C_10  and  O_17 
REMARK    5  A    between atoms: C_14  and  C_21 
REMARK       I    between atoms: C_21  and  N_25 
REMARK    6  A    between atoms: C_28  and  O_31 
ROOT
HETATM    1  C   UNK N   1      36.610  13.579   9.354  0.00  0.00     0.104 C 
HETATM    2  C   UNK N   1      35.989  14.733  10.165  0.00  0.00     0.180 C 
HETATM    3  C   UNK N   1      37.767  13.054  10.234  0.00  0.00     0.141 C 
HETATM    4  C   UNK N   1      37.126  14.106   7.999  0.00  0.00     0.289 C 
HETATM    5  C   UNK N   1      35.387  14.159  11.446  0.00  0.00     0.097 C 
HETATM    6  C   UNK N   1      35.010  15.555   9.348  0.00  0.00     0.208 C 
HETATM    7  O   UNK N   1      37.003  15.621  10.551  0.00  0.00    -0.374 OA
HETATM    8  C   UNK N   1      37.404  12.666  11.698  0.00  0.00     0.087 C 
HETATM    9  C   UNK N   1      36.074  14.894   7.214  0.00  0.00     0.096 C 
HETATM   10  C   UNK N   1      36.083  13.255  12.192  0.00  0.00     0.036 C 
HETATM   11  C   UNK N   1      35.088  15.590   7.852  0.00  0.00     0.112 C 
HETATM   12  O   UNK N   1      34.263  16.335   9.926  0.00  0.00    -0.288 OA
HETATM   13  C   UNK N   1      37.473  11.193  12.093  0.00  0.00    -0.045 C 
HETATM   14  C   UNK N   1      35.606  12.811  13.544  0.00  0.00     0.195 C 
HETATM   15  C   UNK N   1      37.207  10.882  13.519  0.00  0.00    -0.013 A 
HETATM   16  C   UNK N   1      36.314  11.699  14.250  0.00  0.00     0.059 A 
HETATM   17  O   UNK N   1      34.651  13.358  14.075  0.00  0.00    -0.287 OA
HETATM   18  C   UNK N   1      37.823   9.787  14.145  0.00  0.00     0.013 A 
HETATM   19  C   UNK N   1      36.075  11.410  15.614  0.00  0.00     0.080 A 
HETATM   20  C   UNK N   1      37.594   9.527  15.496  0.00  0.00     0.004 A 
HETATM   21  C   UNK N   1      36.728  10.338  16.227  0.00  0.00     0.037 A 
HETATM   22  C   UNK N   1      37.927  10.239  11.273  0.00  0.00     0.020 C 
HETATM   23  H   UNK N   1      37.698  16.248  10.807  0.00  0.00     0.211 HD
ENDROOT
BRANCH   5  24
HETATM   24  O   UNK N   1      34.175  14.587  11.864  0.00  0.00    -0.361 OA
HETATM   25  H   UNK N   1      33.390  14.077  11.836  0.00  0.00     0.217 HD
ENDBRANCH   5  24
BRANCH   3  26
HETATM   26  O   UNK N   1      38.660  12.186   9.600  0.00  0.00    -0.394 OA
HETATM   27  H   UNK N   1      38.327  11.498   9.003  0.00  0.00     0.210 HD
ENDBRANCH   3  26
BRANCH   4  28
HETATM   28  N   UNK N   1      37.789  13.043   7.216  0.00  0.00     0.091 N 
HETATM   29  C   UNK N   1      38.745  13.597   6.268  0.00  0.00     0.310 C 
HETATM   30  C   UNK N   1      36.835  12.203   6.502  0.00  0.00     0.310 C 
ENDBRANCH   4  28
BRANCH  11  31
HETATM   31  C   UNK N   1      34.100  16.434   7.084  0.00  0.00     0.255 C 
HETATM   32  N   UNK N   1      32.780  16.159   7.097  0.00  0.00    -0.366 N 
HETATM   33  H   UNK N   1      32.398  15.571   7.787  0.00  0.00     0.159 HD
HETATM   34  H   UNK N   1      32.194  16.550   6.411  0.00  0.00     0.159 HD
HETATM   35  O   UNK N   1      34.491  17.377   6.412  0.00  0.00    -0.268 OA
ENDBRANCH  11  31
BRANCH   9  36
HETATM   36  O   UNK N   1      36.164  14.929   5.868  0.00  0.00    -0.362 OA
HETATM   37  H   UNK N   1      36.628  15.615   5.431  0.00  0.00     0.217 HD
ENDBRANCH   9  36
BRANCH  19  38
HETATM   38  O   UNK N   1      35.232  12.162  16.344  0.00  0.00    -0.360 OA
HETATM   39  H   UNK N   1      34.808  11.796  17.096  0.00  0.00     0.217 HD
ENDBRANCH  19  38
TORSDOF 6
ENDMDL
MODEL 3
REMARK VINA RESULT:      -7.3      2.595      8.005
REMARK  6 active torsions:
REMARK  status: ('A' for Active; 'I' for Inactive)
REMARK    1  A    between atoms: C_3  and  O_9 
REMARK    2  A    between atoms: C_4  and  N_11 
REMARK    3  A    between atoms: C_5  and  O_13 
REMARK    4  A    between atoms: C_10  and  O_17 
REMARK    5  A    between atoms: C_14  and  C_21 
REMARK       I    between atoms: C_21  and  N_25 
REMARK    6  A    between atoms: C_28  and  O_31 
ROOT
HETATM    1  C   UNK N   1      33.850  15.556   7.957  0.00  0.00     0.104 C 
HETATM    2  C   UNK N   1      34.276  15.397   6.484  0.00  0.00     0.180 C 
HETATM    3  C   UNK N   1      33.163  16.939   8.022  0.00  0.00     0.141 C 
HETATM    4  C   UNK N   1      35.090  15.499   8.873  0.00  0.00     0.289 C 
HETATM    5  C   UNK N   1      33.020  15.342   5.617  0.00  0.00     0.097 C 
HETATM    6  C   UNK N   1      35.211  14.220   6.275  0.00  0.00     0.208 C 
HETATM    7  O   UNK N   1      34.999  16.532   6.089  0.00  0.00    -0.374 OA
HETATM    8  C   UNK N   1      32.009  17.188   7.006  0.00  0.00     0.087 C 
HETATM    9  C   UNK N   1      35.967  14.267   8.631  0.00  0.00     0.096 C 
HETATM   10  C   UNK N   1      32.003  16.227   5.817  0.00  0.00     0.036 C 
HETATM   11  C   UNK N   1      36.036  13.677   7.403  0.00  0.00     0.112 C 
HETATM   12  O   UNK N   1      35.424  13.827   5.135  0.00  0.00    -0.288 OA
HETATM   13  C   UNK N   1      30.587  17.325   7.545  0.00  0.00    -0.045 C 
HETATM   14  C   UNK N   1      30.841  16.325   4.872  0.00  0.00     0.195 C 
HETATM   15  C   UNK N   1      29.536  17.651   6.551  0.00  0.00    -0.013 A 
HETATM   16  C   UNK N   1      29.674  17.191   5.221  0.00  0.00     0.059 A 
HETATM   17  O   UNK N   1      30.848  15.708   3.817  0.00  0.00    -0.287 OA
HETATM   18  C   UNK N   1      28.407  18.403   6.915  0.00  0.00     0.013 A 
HETATM   19  C   UNK N   1      28.678  17.518   4.272  0.00  0.00     0.080 A 
HETATM   20  C   UNK N   1      27.444  18.735   5.964  0.00  0.00     0.004 A 
HETATM   21  C   UNK N   1      27.582  18.299   4.648  0.00  0.00     0.037 A 
HETATM   22  C   UNK N   1      30.302  17.341   8.852  0.00  0.00     0.020 C 
HETATM   23  H   UNK N   1      35.513  17.307   5.814  0.00  0.00     0.211 HD
ENDROOT
BRANCH   5  24
HETATM   24  O   UNK N   1      32.940  14.439   4.614  0.00  0.00    -0.361 OA
HETATM   25  H   UNK N   1      32.148  14.200   4.174  0.00  0.00     0.217 HD
ENDBRANCH   5  24
BRANCH   3  26
HETATM   26  O   UNK N   1      32.931  17.436   9.308  0.00  0.00    -0.394 OA
HETATM   27  H   UNK N   1      32.472  18.283   9.425  0.00  0.00     0.210 HD
ENDBRANCH   3  26
BRANCH   4  28
HETATM   28  N   UNK N   1      34.732  15.715  10.290  0.00  0.00     0.091 N 
HETATM   29  C   UNK N   1      35.855  16.248  11.047  0.00  0.00     0.310 C 
HETATM   30  C   UNK N   1      34.254  14.496  10.932  0.00  0.00     0.310 C 
ENDBRANCH   4  28
BRANCH  11  31
HETATM   31  C   UNK N   1      36.961  12.513   7.142  0.00  0.00     0.255 C 
HETATM   32  N   UNK N   1      36.504  11.348   6.641  0.00  0.00    -0.366 N 
HETATM   33  H   UNK N   1      35.622  11.302   6.206  0.00  0.00     0.159 HD
HETATM   34  H   UNK N   1      37.055  10.536   6.712  0.00  0.00     0.159 HD
HETATM   35  O   UNK N   1      38.151  12.605   7.406  0.00  0.00    -0.268 OA
ENDBRANCH  11  31
BRANCH   9  36
HETATM   36  O   UNK N   1      36.714  13.797   9.651  0.00  0.00    -0.362 OA
HETATM   37  H   UNK N   1      37.456  13.247   9.495  0.00  0.00     0.217 HD
ENDBRANCH   9  36
BRANCH  19  38
HETATM   38  O   UNK N   1      28.771  17.099   2.997  0.00  0.00    -0.360 OA
HETATM   39  H   UNK N   1      28.000  17.029   2.468  0.00  0.00     0.217 HD
ENDBRANCH  19  38
TORSDOF 6
ENDMDL
MODEL 4
REMARK VINA RESULT:      -7.3      5.847      8.999
REMARK  6 active torsions:
REMARK  status: ('A' for Active; 'I' for Inactive)
REMARK    1  A    between atoms: C_3  and  O_9 
REMARK    2  A    between atoms: C_4  and  N_11 
REMARK    3  A    between atoms: C_5  and  O_13 
REMARK    4  A    between atoms: C_10  and  O_17 
REMARK    5  A    between atoms: C_14  and  C_21 
REMARK       I    between atoms: C_21  and  N_25 
REMARK    6  A    between atoms: C_28  and  O_31 
ROOT
HETATM    1  C   UNK N   1      35.719  10.945  13.265  0.00  0.00     0.104 C 
HETATM    2  C   UNK N   1      35.946  12.425  13.633  0.00  0.00     0.180 C 
HETATM    3  C   UNK N   1      36.663  10.156  14.200  0.00  0.00     0.141 C 
HETATM    4  C   UNK N   1      36.072  10.713  11.781  0.00  0.00     0.289 C 
HETATM    5  C   UNK N   1      35.480  12.645  15.071  0.00  0.00     0.097 C 
HETATM    6  C   UNK N   1      35.309  13.374  12.636  0.00  0.00     0.208 C 
HETATM    7  O   UNK N   1      37.320  12.702  13.601  0.00  0.00    -0.374 OA
HETATM    8  C   UNK N   1      36.532  10.449  15.725  0.00  0.00     0.087 C 
HETATM    9  C   UNK N   1      35.366  11.683  10.830  0.00  0.00     0.096 C 
HETATM   10  C   UNK N   1      35.820  11.762  16.051  0.00  0.00     0.036 C 
HETATM   11  C   UNK N   1      35.023  12.942  11.229  0.00  0.00     0.112 C 
HETATM   12  O   UNK N   1      35.193  14.557  12.933  0.00  0.00    -0.288 OA
HETATM   13  C   UNK N   1      35.986   9.346  16.629  0.00  0.00    -0.045 C 
HETATM   14  C   UNK N   1      35.540  12.039  17.499  0.00  0.00     0.195 C 
HETATM   15  C   UNK N   1      35.965   9.639  18.083  0.00  0.00    -0.013 A 
HETATM   16  C   UNK N   1      35.782  10.972  18.518  0.00  0.00     0.059 A 
HETATM   17  O   UNK N   1      35.126  13.133  17.851  0.00  0.00    -0.287 OA
HETATM   18  C   UNK N   1      36.118   8.611  19.027  0.00  0.00     0.013 A 
HETATM   19  C   UNK N   1      35.779  11.249  19.904  0.00  0.00     0.080 A 
HETATM   20  C   UNK N   1      36.133   8.903  20.390  0.00  0.00     0.004 A 
HETATM   21  C   UNK N   1      35.969  10.217  20.826  0.00  0.00     0.037 A 
HETATM   22  C   UNK N   1      35.712   8.113  16.189  0.00  0.00     0.020 C 
HETATM   23  H   UNK N   1      38.268  12.904  13.563  0.00  0.00     0.211 HD
ENDROOT
BRANCH   5  24
HETATM   24  O   UNK N   1      34.765  13.750  15.379  0.00  0.00    -0.361 OA
HETATM   25  H   UNK N   1      33.893  13.743  15.723  0.00  0.00     0.217 HD
ENDBRANCH   5  24
BRANCH   3  26
HETATM   26  O   UNK N   1      36.846   8.809  13.874  0.00  0.00    -0.394 OA
HETATM   27  H   UNK N   1      37.666   8.356  14.125  0.00  0.00     0.210 HD
ENDBRANCH   3  26
BRANCH   4  28
HETATM   28  N   UNK N   1      35.932   9.291  11.403  0.00  0.00     0.091 N 
HETATM   29  C   UNK N   1      36.739   8.968  10.236  0.00  0.00     0.310 C 
HETATM   30  C   UNK N   1      34.545   8.920  11.147  0.00  0.00     0.310 C 
ENDBRANCH   4  28
BRANCH  11  31
HETATM   31  C   UNK N   1      34.402  13.928  10.269  0.00  0.00     0.255 C 
HETATM   32  N   UNK N   1      33.372  14.715  10.638  0.00  0.00    -0.366 N 
HETATM   33  H   UNK N   1      33.160  14.850  11.590  0.00  0.00     0.159 HD
HETATM   34  H   UNK N   1      32.826  15.159   9.950  0.00  0.00     0.159 HD
HETATM   35  O   UNK N   1      34.816  14.011   9.122  0.00  0.00    -0.268 OA
ENDBRANCH  11  31
BRANCH   9  36
HETATM   36  O   UNK N   1      35.127  11.286   9.563  0.00  0.00    -0.362 OA
HETATM   37  H   UNK N   1      35.185  10.384   9.318  0.00  0.00     0.217 HD
ENDBRANCH   9  36
BRANCH  19  38
HETATM   38  O   UNK N   1      35.606  12.503  20.359  0.00  0.00    -0.360 OA
HETATM   39  H   UNK N   1      35.221  13.154  19.806  0.00  0.00     0.217 HD
ENDBRANCH  19  38
TORSDOF 6
ENDMDL
MODEL 5
REMARK VINA RESULT:      -7.2      3.192      5.709
REMARK  6 active torsions:
REMARK  status: ('A' for Active; 'I' for Inactive)
REMARK    1  A    between atoms: C_3  and  O_9 
REMARK    2  A    between atoms: C_4  and  N_11 
REMARK    3  A    between atoms: C_5  and  O_13 
REMARK    4  A    between atoms: C_10  and  O_17 
REMARK    5  A    between atoms: C_14  and  C_21 
REMARK       I    between atoms: C_21  and  N_25 
REMARK    6  A    between atoms: C_28  and  O_31 
ROOT
HETATM    1  C   UNK N   1      30.286  17.029   6.778  0.00  0.00     0.104 C 
HETATM    2  C   UNK N   1      29.577  16.740   5.440  0.00  0.00     0.180 C 
HETATM    3  C   UNK N   1      31.076  15.740   7.094  0.00  0.00     0.141 C 
HETATM    4  C   UNK N   1      29.242  17.335   7.872  0.00  0.00     0.289 C 
HETATM    5  C   UNK N   1      30.637  16.556   4.357  0.00  0.00     0.097 C 
HETATM    6  C   UNK N   1      28.534  17.787   5.099  0.00  0.00     0.208 C 
HETATM    7  O   UNK N   1      28.881  15.527   5.542  0.00  0.00    -0.374 OA
HETATM    8  C   UNK N   1      32.031  15.220   5.979  0.00  0.00     0.087 C 
HETATM    9  C   UNK N   1      28.245  18.425   7.472  0.00  0.00     0.096 C 
HETATM   10  C   UNK N   1      31.738  15.787   4.590  0.00  0.00     0.036 C 
HETATM   11  C   UNK N   1      27.899  18.625   6.168  0.00  0.00     0.112 C 
HETATM   12  O   UNK N   1      28.078  17.822   3.963  0.00  0.00    -0.288 OA
HETATM   13  C   UNK N   1      33.536  15.273   6.232  0.00  0.00    -0.045 C 
HETATM   14  C   UNK N   1      32.703  15.434   3.496  0.00  0.00     0.195 C 
HETATM   15  C   UNK N   1      34.401  14.685   5.181  0.00  0.00    -0.013 A 
HETATM   16  C   UNK N   1      33.978  14.729   3.832  0.00  0.00     0.059 A 
HETATM   17  O   UNK N   1      32.450  15.711   2.333  0.00  0.00    -0.287 OA
HETATM   18  C   UNK N   1      35.631  14.093   5.507  0.00  0.00     0.013 A 
HETATM   19  C   UNK N   1      34.797  14.152   2.834  0.00  0.00     0.080 A 
HETATM   20  C   UNK N   1      36.419  13.510   4.515  0.00  0.00     0.004 A 
HETATM   21  C   UNK N   1      36.000  13.536   3.186  0.00  0.00     0.037 A 
HETATM   22  C   UNK N   1      34.064  15.648   7.403  0.00  0.00     0.020 C 
HETATM   23  H   UNK N   1      28.384  14.696   5.612  0.00  0.00     0.211 HD
ENDROOT
BRANCH   5  24
HETATM   24  O   UNK N   1      30.457  17.124   3.143  0.00  0.00    -0.361 OA
HETATM   25  H   UNK N   1      29.680  17.573   2.875  0.00  0.00     0.217 HD
ENDBRANCH   5  24
BRANCH   3  26
HETATM   26  O   UNK N   1      31.585  15.648   8.393  0.00  0.00    -0.394 OA
HETATM   27  H   UNK N   1      32.126  14.885   8.650  0.00  0.00     0.210 HD
ENDBRANCH   3  26
BRANCH   4  28
HETATM   28  N   UNK N   1      29.878  17.553   9.187  0.00  0.00     0.091 N 
HETATM   29  C   UNK N   1      29.008  17.133  10.276  0.00  0.00     0.310 C 
HETATM   30  C   UNK N   1      30.266  18.944   9.391  0.00  0.00     0.310 C 
ENDBRANCH   4  28
BRANCH  11  31
HETATM   31  C   UNK N   1      26.855  19.645   5.779  0.00  0.00     0.255 C 
HETATM   32  N   UNK N   1      25.625  19.273   5.376  0.00  0.00    -0.366 N 
HETATM   33  H   UNK N   1      25.292  18.364   5.555  0.00  0.00     0.159 HD
HETATM   34  H   UNK N   1      25.053  19.915   4.896  0.00  0.00     0.159 HD
HETATM   35  O   UNK N   1      27.125  20.837   5.804  0.00  0.00    -0.268 OA
ENDBRANCH  11  31
BRANCH   9  36
HETATM   36  O   UNK N   1      27.672  19.164   8.445  0.00  0.00    -0.362 OA
HETATM   37  H   UNK N   1      28.178  19.514   9.150  0.00  0.00     0.217 HD
ENDBRANCH   9  36
BRANCH  19  38
HETATM   38  O   UNK N   1      34.432  14.175   1.540  0.00  0.00    -0.360 OA
HETATM   39  H   UNK N   1      34.136  13.390   1.122  0.00  0.00     0.217 HD
ENDBRANCH  19  38
TORSDOF 6
ENDMDL
MODEL 6
REMARK VINA RESULT:      -7.0      5.736      8.948
REMARK  6 active torsions:
REMARK  status: ('A' for Active; 'I' for Inactive)
REMARK    1  A    between atoms: C_3  and  O_9 
REMARK    2  A    between atoms: C_4  and  N_11 
REMARK    3  A    between atoms: C_5  and  O_13 
REMARK    4  A    between atoms: C_10  and  O_17 
REMARK    5  A    between atoms: C_14  and  C_21 
REMARK       I    between atoms: C_21  and  N_25 
REMARK    6  A    between atoms: C_28  and  O_31 
ROOT
HETATM    1  C   UNK N   1      35.473  11.564  12.381  0.00  0.00     0.104 C 
HETATM    2  C   UNK N   1      34.831  10.168  12.505  0.00  0.00     0.180 C 
HETATM    3  C   UNK N   1      34.727  12.436  13.416  0.00  0.00     0.141 C 
HETATM    4  C   UNK N   1      35.284  12.105  10.948  0.00  0.00     0.289 C 
HETATM    5  C   UNK N   1      35.134   9.614  13.895  0.00  0.00     0.097 C 
HETATM    6  C   UNK N   1      35.242   9.240  11.377  0.00  0.00     0.208 C 
HETATM    7  O   UNK N   1      33.437  10.293  12.408  0.00  0.00    -0.374 OA
HETATM    8  C   UNK N   1      34.684  11.894  14.876  0.00  0.00     0.087 C 
HETATM    9  C   UNK N   1      35.753  11.130   9.865  0.00  0.00     0.096 C 
HETATM   10  C   UNK N   1      34.991  10.401  14.999  0.00  0.00     0.036 C 
HETATM   11  C   UNK N   1      35.716   9.781  10.062  0.00  0.00     0.112 C 
HETATM   12  O   UNK N   1      35.013   8.041  11.483  0.00  0.00    -0.288 OA
HETATM   13  C   UNK N   1      35.456  12.653  15.953  0.00  0.00    -0.045 C 
HETATM   14  C   UNK N   1      35.100   9.843  16.388  0.00  0.00     0.195 C 
HETATM   15  C   UNK N   1      35.312  12.152  17.341  0.00  0.00    -0.013 A 
HETATM   16  C   UNK N   1      35.100  10.771  17.560  0.00  0.00     0.059 A 
HETATM   17  O   UNK N   1      35.179   8.637  16.567  0.00  0.00    -0.287 OA
HETATM   18  C   UNK N   1      35.391  13.028  18.435  0.00  0.00     0.013 A 
HETATM   19  C   UNK N   1      34.946  10.299  18.885  0.00  0.00     0.080 A 
HETATM   20  C   UNK N   1      35.217  12.552  19.734  0.00  0.00     0.004 A 
HETATM   21  C   UNK N   1      34.991  11.194  19.956  0.00  0.00     0.037 A 
HETATM   22  C   UNK N   1      36.081  13.812  15.720  0.00  0.00     0.020 C 
HETATM   23  H   UNK N   1      32.474  10.371  12.325  0.00  0.00     0.211 HD
ENDROOT
BRANCH   5  24
HETATM   24  O   UNK N   1      35.502   8.321  14.033  0.00  0.00    -0.361 OA
HETATM   25  H   UNK N   1      36.143   8.011  14.642  0.00  0.00     0.217 HD
ENDBRANCH   5  24
BRANCH   3  26
HETATM   26  O   UNK N   1      34.938  13.814  13.307  0.00  0.00    -0.394 OA
HETATM   27  H   UNK N   1      35.205  14.327  14.086  0.00  0.00     0.210 HD
ENDBRANCH   3  26
BRANCH   4  28
HETATM   28  N   UNK N   1      35.828  13.471  10.805  0.00  0.00     0.091 N 
HETATM   29  C   UNK N   1      35.228  14.167   9.676  0.00  0.00     0.310 C 
HETATM   30  C   UNK N   1      37.279  13.478  10.657  0.00  0.00     0.310 C 
ENDBRANCH   4  28
BRANCH  11  31
HETATM   31  C   UNK N   1      36.100   8.816   8.966  0.00  0.00     0.255 C 
HETATM   32  N   UNK N   1      37.065   7.892   9.148  0.00  0.00    -0.366 N 
HETATM   33  H   UNK N   1      37.368   7.656  10.054  0.00  0.00     0.159 HD
HETATM   34  H   UNK N   1      37.471   7.450   8.368  0.00  0.00     0.159 HD
HETATM   35  O   UNK N   1      35.549   8.875   7.877  0.00  0.00    -0.268 OA
ENDBRANCH  11  31
BRANCH   9  36
HETATM   36  O   UNK N   1      36.165  11.630   8.681  0.00  0.00    -0.362 OA
HETATM   37  H   UNK N   1      35.722  12.350   8.278  0.00  0.00     0.217 HD
ENDBRANCH   9  36
BRANCH  19  38
HETATM   38  O   UNK N   1      34.744   8.994  19.136  0.00  0.00    -0.360 OA
HETATM   39  H   UNK N   1      34.071   8.527  18.680  0.00  0.00     0.217 HD
ENDBRANCH  19  38
TORSDOF 6
ENDMDL
MODEL 7
REMARK VINA RESULT:      -7.0      6.687     10.412
REMARK  6 active torsions:
REMARK  status: ('A' for Active; 'I' for Inactive)
REMARK    1  A    between atoms: C_3  and  O_9 
REMARK    2  A    between atoms: C_4  and  N_11 
REMARK    3  A    between atoms: C_5  and  O_13 
REMARK    4  A    between atoms: C_10  and  O_17 
REMARK    5  A    between atoms: C_14  and  C_21 
REMARK       I    between atoms: C_21  and  N_25 
REMARK    6  A    between atoms: C_28  and  O_31 
ROOT
HETATM    1  C   UNK N   1      36.060  10.498  15.621  0.00  0.00     0.104 C 
HETATM    2  C   UNK N   1      35.261  11.798  15.842  0.00  0.00     0.180 C 
HETATM    3  C   UNK N   1      35.798  10.118  14.146  0.00  0.00     0.141 C 
HETATM    4  C   UNK N   1      35.558   9.401  16.583  0.00  0.00     0.289 C 
HETATM    5  C   UNK N   1      35.857  12.891  14.958  0.00  0.00     0.097 C 
HETATM    6  C   UNK N   1      35.171  12.180  17.307  0.00  0.00     0.208 C 
HETATM    7  O   UNK N   1      33.939  11.602  15.417  0.00  0.00    -0.374 OA
HETATM    8  C   UNK N   1      36.089  11.220  13.084  0.00  0.00     0.087 C 
HETATM    9  C   UNK N   1      35.528   9.847  18.048  0.00  0.00     0.096 C 
HETATM   10  C   UNK N   1      36.169  12.635  13.657  0.00  0.00     0.036 C 
HETATM   11  C   UNK N   1      35.328  11.153  18.387  0.00  0.00     0.112 C 
HETATM   12  O   UNK N   1      34.790  13.306  17.603  0.00  0.00    -0.288 OA
HETATM   13  C   UNK N   1      37.252  11.005  12.118  0.00  0.00    -0.045 C 
HETATM   14  C   UNK N   1      36.580  13.727  12.712  0.00  0.00     0.195 C 
HETATM   15  C   UNK N   1      37.434  12.037  11.069  0.00  0.00    -0.013 A 
HETATM   16  C   UNK N   1      37.070  13.376  11.344  0.00  0.00     0.059 A 
HETATM   17  O   UNK N   1      36.509  14.899  13.050  0.00  0.00    -0.287 OA
HETATM   18  C   UNK N   1      37.966  11.702   9.814  0.00  0.00     0.013 A 
HETATM   19  C   UNK N   1      37.229  14.354  10.335  0.00  0.00     0.080 A 
HETATM   20  C   UNK N   1      38.098  12.674   8.822  0.00  0.00     0.004 A 
HETATM   21  C   UNK N   1      37.727  13.992   9.080  0.00  0.00     0.037 A 
HETATM   22  C   UNK N   1      37.964   9.874  12.077  0.00  0.00     0.020 C 
HETATM   23  H   UNK N   1      33.019  11.468  15.140  0.00  0.00     0.211 HD
ENDROOT
BRANCH   5  24
HETATM   24  O   UNK N   1      36.032  14.134  15.461  0.00  0.00    -0.361 OA
HETATM   25  H   UNK N   1      35.338  14.697  15.744  0.00  0.00     0.217 HD
ENDBRANCH   5  24
BRANCH   3  26
HETATM   26  O   UNK N   1      36.190   8.828  13.776  0.00  0.00    -0.394 OA
HETATM   27  H   UNK N   1      36.076   8.090  14.395  0.00  0.00     0.210 HD
ENDBRANCH   3  26
BRANCH   4  28
HETATM   28  N   UNK N   1      36.253   8.118  16.358  0.00  0.00     0.091 N 
HETATM   29  C   UNK N   1      35.491   6.998  16.892  0.00  0.00     0.310 C 
HETATM   30  C   UNK N   1      37.593   8.105  16.933  0.00  0.00     0.310 C 
ENDBRANCH   4  28
BRANCH  11  31
HETATM   31  C   UNK N   1      35.217  11.581  19.831  0.00  0.00     0.255 C 
HETATM   32  N   UNK N   1      35.720  12.756  20.257  0.00  0.00    -0.366 N 
HETATM   33  H   UNK N   1      35.948  13.466  19.614  0.00  0.00     0.159 HD
HETATM   34  H   UNK N   1      35.863  12.906  21.219  0.00  0.00     0.159 HD
HETATM   35  O   UNK N   1      34.681  10.847  20.648  0.00  0.00    -0.268 OA
ENDBRANCH  11  31
BRANCH   9  36
HETATM   36  O   UNK N   1      35.657   8.910  19.010  0.00  0.00    -0.362 OA
HETATM   37  H   UNK N   1      35.104   8.911  19.765  0.00  0.00     0.217 HD
ENDBRANCH   9  36
BRANCH  19  38
HETATM   38  O   UNK N   1      36.897  15.638  10.556  0.00  0.00    -0.360 OA
HETATM   39  H   UNK N   1      36.130  16.000  10.158  0.00  0.00     0.217 HD
ENDBRANCH  19  38
TORSDOF 6
ENDMDL
MODEL 8
REMARK VINA RESULT:      -7.0      3.952      9.468
REMARK  6 active torsions:
REMARK  status: ('A' for Active; 'I' for Inactive)
REMARK    1  A    between atoms: C_3  and  O_9 
REMARK    2  A    between atoms: C_4  and  N_11 
REMARK    3  A    between atoms: C_5  and  O_13 
REMARK    4  A    between atoms: C_10  and  O_17 
REMARK    5  A    between atoms: C_14  and  C_21 
REMARK       I    between atoms: C_21  and  N_25 
REMARK    6  A    between atoms: C_28  and  O_31 
ROOT
HETATM    1  C   UNK N   1      29.256  16.814   6.382  0.00  0.00     0.104 C 
HETATM    2  C   UNK N   1      29.732  17.175   4.960  0.00  0.00     0.180 C 
HETATM    3  C   UNK N   1      27.772  17.243   6.423  0.00  0.00     0.141 C 
HETATM    4  C   UNK N   1      30.094  17.578   7.428  0.00  0.00     0.289 C 
HETATM    5  C   UNK N   1      28.963  16.318   3.957  0.00  0.00     0.097 C 
HETATM    6  C   UNK N   1      31.239  17.080   4.812  0.00  0.00     0.208 C 
HETATM    7  O   UNK N   1      29.406  18.512   4.693  0.00  0.00    -0.374 OA
HETATM    8  C   UNK N   1      26.856  16.682   5.295  0.00  0.00     0.087 C 
HETATM    9  C   UNK N   1      31.604  17.407   7.237  0.00  0.00     0.096 C 
HETATM   10  C   UNK N   1      27.615  16.156   4.077  0.00  0.00     0.036 C 
HETATM   11  C   UNK N   1      32.143  17.190   6.003  0.00  0.00     0.112 C 
HETATM   12  O   UNK N   1      31.726  17.092   3.689  0.00  0.00    -0.288 OA
HETATM   13  C   UNK N   1      25.768  15.682   5.677  0.00  0.00    -0.045 C 
HETATM   14  C   UNK N   1      26.802  15.478   3.012  0.00  0.00     0.195 C 
HETATM   15  C   UNK N   1      24.864  15.245   4.585  0.00  0.00    -0.013 A 
HETATM   16  C   UNK N   1      25.359  15.178   3.262  0.00  0.00     0.059 A 
HETATM   17  O   UNK N   1      27.309  15.180   1.941  0.00  0.00    -0.287 OA
HETATM   18  C   UNK N   1      23.531  14.894   4.850  0.00  0.00     0.013 A 
HETATM   19  C   UNK N   1      24.489  14.778   2.221  0.00  0.00     0.080 A 
HETATM   20  C   UNK N   1      22.680  14.521   3.811  0.00  0.00     0.004 A 
HETATM   21  C   UNK N   1      23.156  14.468   2.502  0.00  0.00     0.037 A 
HETATM   22  C   UNK N   1      25.501  15.344   6.943  0.00  0.00     0.020 C 
HETATM   23  H   UNK N   1      29.197  19.441   4.507  0.00  0.00     0.211 HD
ENDROOT
BRANCH   5  24
HETATM   24  O   UNK N   1      29.619  15.756   2.918  0.00  0.00    -0.361 OA
HETATM   25  H   UNK N   1      30.551  15.681   2.853  0.00  0.00     0.217 HD
ENDBRANCH   5  24
BRANCH   3  26
HETATM   26  O   UNK N   1      27.189  17.272   7.693  0.00  0.00    -0.394 OA
HETATM   27  H   UNK N   1      27.181  16.473   8.242  0.00  0.00     0.210 HD
ENDBRANCH   3  26
BRANCH   4  28
HETATM   28  N   UNK N   1      29.626  17.310   8.803  0.00  0.00     0.091 N 
HETATM   29  C   UNK N   1      29.690  18.507   9.629  0.00  0.00     0.310 C 
HETATM   30  C   UNK N   1      30.380  16.240   9.446  0.00  0.00     0.310 C 
ENDBRANCH   4  28
BRANCH  11  31
HETATM   31  C   UNK N   1      33.637  17.103   5.802  0.00  0.00     0.255 C 
HETATM   32  N   UNK N   1      34.199  16.073   5.141  0.00  0.00    -0.366 N 
HETATM   33  H   UNK N   1      33.653  15.489   4.565  0.00  0.00     0.159 HD
HETATM   34  H   UNK N   1      35.163  15.901   5.233  0.00  0.00     0.159 HD
HETATM   35  O   UNK N   1      34.368  17.968   6.264  0.00  0.00    -0.268 OA
ENDBRANCH  11  31
BRANCH   9  36
HETATM   36  O   UNK N   1      32.407  17.522   8.316  0.00  0.00    -0.362 OA
HETATM   37  H   UNK N   1      32.586  18.357   8.700  0.00  0.00     0.217 HD
ENDBRANCH   9  36
BRANCH  19  38
HETATM   38  O   UNK N   1      24.921  14.699   0.950  0.00  0.00    -0.360 OA
HETATM   39  H   UNK N   1      24.439  15.118   0.263  0.00  0.00     0.217 HD
ENDBRANCH  19  38
TORSDOF 6
ENDMDL
MODEL 9
REMARK VINA RESULT:      -7.0      3.674      7.570
REMARK  6 active torsions:
REMARK  status: ('A' for Active; 'I' for Inactive)
REMARK    1  A    between atoms: C_3  and  O_9 
REMARK    2  A    between atoms: C_4  and  N_11 
REMARK    3  A    between atoms: C_5  and  O_13 
REMARK    4  A    between atoms: C_10  and  O_17 
REMARK    5  A    between atoms: C_14  and  C_21 
REMARK       I    between atoms: C_21  and  N_25 
REMARK    6  A    between atoms: C_28  and  O_31 
ROOT
HETATM    1  C   UNK N   1      30.962  16.407   6.147  0.00  0.00     0.104 C 
HETATM    2  C   UNK N   1      32.284  16.668   5.396  0.00  0.00     0.180 C 
HETATM    3  C   UNK N   1      29.890  16.311   5.038  0.00  0.00     0.141 C 
HETATM    4  C   UNK N   1      30.669  17.571   7.116  0.00  0.00     0.289 C 
HETATM    5  C   UNK N   1      32.602  15.449   4.534  0.00  0.00     0.097 C 
HETATM    6  C   UNK N   1      33.411  17.064   6.331  0.00  0.00     0.208 C 
HETATM    7  O   UNK N   1      32.110  17.754   4.525  0.00  0.00    -0.374 OA
HETATM    8  C   UNK N   1      30.169  15.297   3.889  0.00  0.00     0.087 C 
HETATM    9  C   UNK N   1      31.838  17.890   8.052  0.00  0.00     0.096 C 
HETATM   10  C   UNK N   1      31.631  14.864   3.778  0.00  0.00     0.036 C 
HETATM   11  C   UNK N   1      33.129  17.668   7.674  0.00  0.00     0.112 C 
HETATM   12  O   UNK N   1      34.561  17.055   5.909  0.00  0.00    -0.288 OA
HETATM   13  C   UNK N   1      29.273  14.065   3.778  0.00  0.00    -0.045 C 
HETATM   14  C   UNK N   1      31.945  13.787   2.781  0.00  0.00     0.195 C 
HETATM   15  C   UNK N   1      29.519  13.176   2.617  0.00  0.00    -0.013 A 
HETATM   16  C   UNK N   1      30.830  13.063   2.098  0.00  0.00     0.059 A 
HETATM   17  O   UNK N   1      33.105  13.504   2.519  0.00  0.00    -0.287 OA
HETATM   18  C   UNK N   1      28.472  12.444   2.035  0.00  0.00     0.013 A 
HETATM   19  C   UNK N   1      31.057  12.227   0.980  0.00  0.00     0.080 A 
HETATM   20  C   UNK N   1      28.708  11.640   0.921  0.00  0.00     0.004 A 
HETATM   21  C   UNK N   1      29.994  11.536   0.394  0.00  0.00     0.037 A 
HETATM   22  C   UNK N   1      28.203  13.871   4.557  0.00  0.00     0.020 C 
HETATM   23  H   UNK N   1      32.002  18.514   3.933  0.00  0.00     0.211 HD
ENDROOT
BRANCH   5  24
HETATM   24  O   UNK N   1      33.869  14.979   4.485  0.00  0.00    -0.361 OA
HETATM   25  H   UNK N   1      34.636  15.499   4.623  0.00  0.00     0.217 HD
ENDBRANCH   5  24
BRANCH   3  26
HETATM   26  O   UNK N   1      28.563  16.351   5.477  0.00  0.00    -0.394 OA
HETATM   27  H   UNK N   1      28.158  15.561   5.868  0.00  0.00     0.210 HD
ENDBRANCH   3  26
BRANCH   4  28
HETATM   28  N   UNK N   1      29.376  17.391   7.808  0.00  0.00     0.091 N 
HETATM   29  C   UNK N   1      28.650  18.649   7.915  0.00  0.00     0.310 C 
HETATM   30  C   UNK N   1      29.533  16.813   9.137  0.00  0.00     0.310 C 
ENDBRANCH   4  28
BRANCH  11  31
HETATM   31  C   UNK N   1      34.286  18.058   8.561  0.00  0.00     0.255 C 
HETATM   32  N   UNK N   1      34.613  17.335   9.651  0.00  0.00    -0.366 N 
HETATM   33  H   UNK N   1      34.277  16.416   9.761  0.00  0.00     0.159 HD
HETATM   34  H   UNK N   1      35.191  17.729  10.343  0.00  0.00     0.159 HD
HETATM   35  O   UNK N   1      34.937  19.062   8.312  0.00  0.00    -0.268 OA
ENDBRANCH  11  31
BRANCH   9  36
HETATM   36  O   UNK N   1      31.570  18.446   9.252  0.00  0.00    -0.362 OA
HETATM   37  H   UNK N   1      32.259  18.712   9.828  0.00  0.00     0.217 HD
ENDBRANCH   9  36
BRANCH  19  38
HETATM   38  O   UNK N   1      32.289  12.090   0.457  0.00  0.00    -0.360 OA
HETATM   39  H   UNK N   1      32.512  11.317  -0.023  0.00  0.00     0.217 HD
ENDBRANCH  19  38
TORSDOF 6
ENDMDL
