REMARK  8 active torsions:
REMARK  status: ('A' for Active; 'I' for Inactive)
REMARK    1  A    between atoms: C_10  and  C_8 
REMARK    2  A    between atoms: N_14  and  C_8 
REMARK    3  A    between atoms: C_10  and  C_9 
REMARK    4  A    between atoms: O_22  and  C_9 
REMARK    5  A    between atoms: C_10  and  O_20 
REMARK    6  A    between atoms: N_19  and  C_11 
REMARK    7  A    between atoms: O_22  and  C_12 
REMARK    8  A    between atoms: N_14  and  C_13 
ROOT
HETATM    1  C   UNK N   1      -0.498   0.684  -0.111  0.00  0.00     0.163 A 
HETATM    2  C   UNK N   1      -1.648   1.554  -0.294  0.00  0.00     0.195 A 
HETATM    3  N   UNK N   1      -0.808  -0.627   0.120  0.00  0.00    -0.295 N 
ATOM      4  HN  UNK N   1      -0.180  -1.415   0.275  1.00  0.00     0.177 HD
HETATM    5  N   UNK N   1      -2.864   0.941  -0.204  0.00  0.00    -0.290 N 
ATOM      6  HN  UNK N   1      -3.796   1.347  -0.295  1.00  0.00     0.178 HD
HETATM    7  S   UNK N   1      -2.442  -0.610   0.085  0.00  0.00     0.070 SA
ENDROOT
BRANCH   2   8
HETATM    8  O   UNK N   1      -1.517   2.876  -0.534  0.00  0.00    -0.330 OA
BRANCH   8   9
HETATM    9  C   UNK N   1      -2.564   3.763  -0.624  0.00  0.00     0.210 C 
BRANCH   9  10
HETATM   10  C   UNK N   1      -2.427   4.866   0.433  0.00  0.00     0.159 C 
BRANCH  10  11
HETATM   11  C   UNK N   1      -2.655   6.237  -0.185  0.00  0.00     0.148 C 
BRANCH  11  12
HETATM   12  N   UNK N   1      -3.976   6.373  -0.800  0.00  0.00    -0.411 N 
HETATM   13  H   UNK N   1      -4.282   5.836  -1.612  0.00  0.00     0.154 HD
BRANCH  12  14
HETATM   14  C   UNK N   1      -4.813   7.370  -0.116  0.00  0.00     0.014 C 
HETATM   15  C   UNK N   1      -5.895   7.820  -1.075  0.00  0.00     0.037 C 
HETATM   16  C   UNK N   1      -5.480   6.747   1.095  0.00  0.00     0.037 C 
HETATM   17  C   UNK N   1      -4.036   8.613   0.312  0.00  0.00     0.037 C 
ENDBRANCH  12  14
ENDBRANCH  11  12
ENDBRANCH  10  11
BRANCH  10  18
HETATM   18  O   UNK N   1      -1.142   4.867   0.986  0.00  0.00    -0.392 OA
HETATM   19  H   UNK N   1      -0.696   4.096   1.369  0.00  0.00     0.210 HD
ENDBRANCH  10  18
ENDBRANCH   9  10
ENDBRANCH   8   9
ENDBRANCH   2   8
BRANCH   1  20
HETATM   20  N   UNK N   1       0.860   1.132  -0.153  0.00  0.00    -0.359 N 
HETATM   21  C   UNK N   1       1.924   0.160   0.073  0.00  0.00     0.151 C 
HETATM   22  C   UNK N   1       3.318   0.777  -0.046  0.00  0.00     0.187 C 
HETATM   23  O   UNK N   1       3.321   2.051   0.531  0.00  0.00    -0.388 OA
HETATM   24  C   UNK N   1       2.650   2.847  -0.400  0.00  0.00     0.187 C 
HETATM   25  C   UNK N   1       1.153   2.551  -0.341  0.00  0.00     0.151 C 
ENDBRANCH   1  20
TORSDOF 8
