MODEL 1
REMARK VINA RESULT:      -6.7      0.000      0.000
REMARK  13 active torsions:
REMARK  status: ('A' for Active; 'I' for Inactive)
REMARK    1  A    between atoms: C_5  and  O_14 
REMARK    2  A    between atoms: C_11  and  C_17 
REMARK    3  A    between atoms: C_13  and  O_27 
REMARK    4  A    between atoms: O_14  and  C_15 
REMARK    5  A    between atoms: C_15  and  C_16 
REMARK    6  A    between atoms: C_16  and  O_25 
REMARK    7  A    between atoms: C_17  and  C_18 
REMARK    8  A    between atoms: C_18  and  C_19 
REMARK    9  A    between atoms: C_19  and  C_20 
REMARK   10  A    between atoms: C_19  and  O_28 
REMARK   11  A    between atoms: C_20  and  C_21 
REMARK   12  A    between atoms: C_21  and  C_22 
REMARK   13  A    between atoms: C_22  and  C_23 
ROOT
HETATM    1  C   UNK N   1      28.460  17.226   7.407  0.00  0.00    -0.049 A 
HETATM    2  C   UNK N   1      28.091  17.980   8.523  0.00  0.00     0.008 A 
HETATM    3  C   UNK N   1      29.063  18.558   9.338  0.00  0.00     0.003 A 
HETATM    4  C   UNK N   1      30.412  18.363   9.056  0.00  0.00     0.037 A 
HETATM    5  C   UNK N   1      30.812  17.596   7.947  0.00  0.00     0.076 A 
HETATM    6  C   UNK N   1      29.827  17.039   7.108  0.00  0.00    -0.018 A 
HETATM    7  C   UNK N   1      30.240  16.263   5.890  0.00  0.00     0.047 C 
HETATM    8  C   UNK N   1      29.227  15.185   5.507  0.00  0.00    -0.003 C 
HETATM    9  C   UNK N   1      27.818  15.753   5.389  0.00  0.00     0.001 C 
HETATM   10  C   UNK N   1      27.364  16.585   6.597  0.00  0.00     0.044 C 
HETATM   11  C   UNK N   1      27.900  16.532   4.086  0.00  0.00     0.019 C 
HETATM   12  C   UNK N   1      29.536  14.731   4.084  0.00  0.00     0.037 C 
HETATM   13  C   UNK N   1      28.699  15.620   3.150  0.00  0.00     0.123 C 
ENDROOT
BRANCH  11  14
HETATM   14  C   UNK N   1      26.604  17.095   3.469  0.00  0.00     0.010 C 
BRANCH  14  15
HETATM   15  C   UNK N   1      25.344  16.938   4.323  0.00  0.00     0.032 C 
BRANCH  15  16
HETATM   16  C   UNK N   1      24.771  18.251   4.861  0.00  0.00     0.118 C 
BRANCH  16  17
HETATM   17  C   UNK N   1      24.802  19.399   3.848  0.00  0.00     0.032 C 
BRANCH  17  18
HETATM   18  C   UNK N   1      25.880  20.432   4.141  0.00  0.00     0.002 C 
BRANCH  18  19
HETATM   19  C   UNK N   1      26.094  20.495   5.642  0.00  0.00    -0.000 C 
BRANCH  19  20
HETATM   20  C   UNK N   1      27.571  20.559   5.960  0.00  0.00    -0.005 C 
HETATM   21  C   UNK N   1      28.355  19.975   4.803  0.00  0.00     0.005 C 
ENDBRANCH  19  20
ENDBRANCH  18  19
ENDBRANCH  17  18
ENDBRANCH  16  17
BRANCH  16  22
HETATM   22  O   UNK N   1      23.510  18.080   5.439  0.00  0.00    -0.396 OA
HETATM   23  H   UNK N   1      22.892  17.338   5.348  0.00  0.00     0.210 HD
ENDBRANCH  16  22
ENDBRANCH  15  16
ENDBRANCH  14  15
ENDBRANCH  11  14
BRANCH  13  24
HETATM   24  O   UNK N   1      27.851  14.791   2.413  0.00  0.00    -0.395 OA
HETATM   25  H   UNK N   1      28.122  14.245   1.659  0.00  0.00     0.210 HD
ENDBRANCH  13  24
BRANCH   5  26
HETATM   26  O   UNK N   1      32.126  17.368   7.686  0.00  0.00    -0.340 OA
BRANCH  26  27
HETATM   27  C   UNK N   1      33.180  17.661   8.539  0.00  0.00     0.285 C 
BRANCH  27  28
HETATM   28  C   UNK N   1      34.361  18.246   7.822  0.00  0.00     0.164 C 
HETATM   29  O   UNK N   1      34.556  17.962   6.652  0.00  0.00    -0.648 OA
BRANCH  28  30
HETATM   30  O   UNK N   1      35.192  19.098   8.451  0.00  0.00    -0.775 OA
HETATM   31  H   UNK N   1      35.866  19.353   9.051  0.00  0.00     0.167 HD
ENDBRANCH  28  30
ENDBRANCH  27  28
ENDBRANCH  26  27
ENDBRANCH   5  26
TORSDOF 13
ENDMDL
MODEL 2
REMARK VINA RESULT:      -6.5      2.061      4.028
REMARK  13 active torsions:
REMARK  status: ('A' for Active; 'I' for Inactive)
REMARK    1  A    between atoms: C_5  and  O_14 
REMARK    2  A    between atoms: C_11  and  C_17 
REMARK    3  A    between atoms: C_13  and  O_27 
REMARK    4  A    between atoms: O_14  and  C_15 
REMARK    5  A    between atoms: C_15  and  C_16 
REMARK    6  A    between atoms: C_16  and  O_25 
REMARK    7  A    between atoms: C_17  and  C_18 
REMARK    8  A    between atoms: C_18  and  C_19 
REMARK    9  A    between atoms: C_19  and  C_20 
REMARK   10  A    between atoms: C_19  and  O_28 
REMARK   11  A    between atoms: C_20  and  C_21 
REMARK   12  A    between atoms: C_21  and  C_22 
REMARK   13  A    between atoms: C_22  and  C_23 
ROOT
HETATM    1  C   UNK N   1      31.546  16.659   6.153  0.00  0.00    -0.049 A 
HETATM    2  C   UNK N   1      32.205  16.258   4.988  0.00  0.00     0.008 A 
HETATM    3  C   UNK N   1      33.366  15.490   5.061  0.00  0.00     0.003 A 
HETATM    4  C   UNK N   1      33.890  15.138   6.302  0.00  0.00     0.037 A 
HETATM    5  C   UNK N   1      33.255  15.541   7.491  0.00  0.00     0.076 A 
HETATM    6  C   UNK N   1      32.065  16.291   7.413  0.00  0.00    -0.018 A 
HETATM    7  C   UNK N   1      31.349  16.681   8.674  0.00  0.00     0.047 C 
HETATM    8  C   UNK N   1      30.568  17.987   8.528  0.00  0.00    -0.003 C 
HETATM    9  C   UNK N   1      29.646  17.959   7.315  0.00  0.00     0.001 C 
HETATM   10  C   UNK N   1      30.328  17.530   6.008  0.00  0.00     0.044 C 
HETATM   11  C   UNK N   1      28.540  17.025   7.781  0.00  0.00     0.019 C 
HETATM   12  C   UNK N   1      29.595  18.088   9.699  0.00  0.00     0.037 C 
HETATM   13  C   UNK N   1      28.282  17.440   9.233  0.00  0.00     0.123 C 
ENDROOT
BRANCH  11  14
HETATM   14  C   UNK N   1      27.266  16.889   6.923  0.00  0.00     0.010 C 
BRANCH  14  15
HETATM   15  C   UNK N   1      27.337  15.856   5.796  0.00  0.00     0.032 C 
BRANCH  15  16
HETATM   16  C   UNK N   1      26.680  16.296   4.487  0.00  0.00     0.118 C 
BRANCH  16  17
HETATM   17  C   UNK N   1      27.225  17.617   3.936  0.00  0.00     0.032 C 
BRANCH  17  18
HETATM   18  C   UNK N   1      26.137  18.633   3.623  0.00  0.00     0.002 C 
BRANCH  18  19
HETATM   19  C   UNK N   1      26.122  19.682   4.719  0.00  0.00    -0.000 C 
BRANCH  19  20
HETATM   20  C   UNK N   1      27.517  20.219   4.952  0.00  0.00    -0.005 C 
HETATM   21  C   UNK N   1      27.581  20.860   6.323  0.00  0.00     0.005 C 
ENDBRANCH  19  20
ENDBRANCH  18  19
ENDBRANCH  17  18
ENDBRANCH  16  17
BRANCH  16  22
HETATM   22  O   UNK N   1      26.673  15.278   3.529  0.00  0.00    -0.396 OA
HETATM   23  H   UNK N   1      26.017  15.092   2.840  0.00  0.00     0.210 HD
ENDBRANCH  16  22
ENDBRANCH  15  16
ENDBRANCH  14  15
ENDBRANCH  11  14
BRANCH  13  24
HETATM   24  O   UNK N   1      27.276  18.406   9.306  0.00  0.00    -0.395 OA
HETATM   25  H   UNK N   1      26.822  18.797   8.543  0.00  0.00     0.210 HD
ENDBRANCH  13  24
BRANCH   5  26
HETATM   26  O   UNK N   1      33.781  15.235   8.707  0.00  0.00    -0.340 OA
BRANCH  26  27
HETATM   27  C   UNK N   1      35.039  15.607   9.158  0.00  0.00     0.285 C 
BRANCH  27  28
HETATM   28  C   UNK N   1      35.032  16.924   9.878  0.00  0.00     0.164 C 
HETATM   29  O   UNK N   1      35.094  17.960   9.236  0.00  0.00    -0.648 OA
BRANCH  28  30
HETATM   30  O   UNK N   1      34.934  16.972  11.219  0.00  0.00    -0.775 OA
HETATM   31  H   UNK N   1      35.121  16.720  12.102  0.00  0.00     0.167 HD
ENDBRANCH  28  30
ENDBRANCH  27  28
ENDBRANCH  26  27
ENDBRANCH   5  26
TORSDOF 13
ENDMDL
MODEL 3
REMARK VINA RESULT:      -6.3      3.859      8.857
REMARK  13 active torsions:
REMARK  status: ('A' for Active; 'I' for Inactive)
REMARK    1  A    between atoms: C_5  and  O_14 
REMARK    2  A    between atoms: C_11  and  C_17 
REMARK    3  A    between atoms: C_13  and  O_27 
REMARK    4  A    between atoms: O_14  and  C_15 
REMARK    5  A    between atoms: C_15  and  C_16 
REMARK    6  A    between atoms: C_16  and  O_25 
REMARK    7  A    between atoms: C_17  and  C_18 
REMARK    8  A    between atoms: C_18  and  C_19 
REMARK    9  A    between atoms: C_19  and  C_20 
REMARK   10  A    between atoms: C_19  and  O_28 
REMARK   11  A    between atoms: C_20  and  C_21 
REMARK   12  A    between atoms: C_21  and  C_22 
REMARK   13  A    between atoms: C_22  and  C_23 
ROOT
HETATM    1  C   UNK N   1      31.097  17.952   8.191  0.00  0.00    -0.049 A 
HETATM    2  C   UNK N   1      30.306  18.572   9.162  0.00  0.00     0.008 A 
HETATM    3  C   UNK N   1      28.918  18.454   9.125  0.00  0.00     0.003 A 
HETATM    4  C   UNK N   1      28.309  17.735   8.101  0.00  0.00     0.037 A 
HETATM    5  C   UNK N   1      29.079  17.112   7.102  0.00  0.00     0.076 A 
HETATM    6  C   UNK N   1      30.484  17.208   7.159  0.00  0.00    -0.018 A 
HETATM    7  C   UNK N   1      31.319  16.503   6.130  0.00  0.00     0.047 C 
HETATM    8  C   UNK N   1      32.650  17.209   5.868  0.00  0.00    -0.003 C 
HETATM    9  C   UNK N   1      33.411  17.473   7.161  0.00  0.00     0.001 C 
HETATM   10  C   UNK N   1      32.586  18.161   8.257  0.00  0.00     0.044 C 
HETATM   11  C   UNK N   1      33.904  16.082   7.526  0.00  0.00     0.019 C 
HETATM   12  C   UNK N   1      33.559  16.239   5.122  0.00  0.00     0.037 C 
HETATM   13  C   UNK N   1      34.360  15.480   6.192  0.00  0.00     0.123 C 
ENDROOT
BRANCH  11  14
HETATM   14  C   UNK N   1      34.921  15.926   8.673  0.00  0.00     0.010 C 
BRANCH  14  15
HETATM   15  C   UNK N   1      34.320  15.710  10.064  0.00  0.00     0.032 C 
BRANCH  15  16
HETATM   16  C   UNK N   1      35.331  15.766  11.211  0.00  0.00     0.118 C 
BRANCH  16  17
HETATM   17  C   UNK N   1      35.415  14.471  12.023  0.00  0.00     0.032 C 
BRANCH  17  18
HETATM   18  C   UNK N   1      36.409  14.545  13.173  0.00  0.00     0.002 C 
BRANCH  18  19
HETATM   19  C   UNK N   1      35.842  13.782  14.355  0.00  0.00    -0.000 C 
BRANCH  19  20
HETATM   20  C   UNK N   1      36.844  13.745  15.487  0.00  0.00    -0.005 C 
HETATM   21  C   UNK N   1      37.280  15.159  15.812  0.00  0.00     0.005 C 
ENDBRANCH  19  20
ENDBRANCH  18  19
ENDBRANCH  17  18
ENDBRANCH  16  17
BRANCH  16  22
HETATM   22  O   UNK N   1      36.585  16.217  10.789  0.00  0.00    -0.396 OA
HETATM   23  H   UNK N   1      37.267  15.743  10.290  0.00  0.00     0.210 HD
ENDBRANCH  16  22
ENDBRANCH  15  16
ENDBRANCH  14  15
ENDBRANCH  11  14
BRANCH  13  24
HETATM   24  O   UNK N   1      35.716  15.726   5.970  0.00  0.00    -0.395 OA
HETATM   25  H   UNK N   1      36.151  15.710   5.104  0.00  0.00     0.210 HD
ENDBRANCH  13  24
BRANCH   5  26
HETATM   26  O   UNK N   1      28.491  16.441   6.077  0.00  0.00    -0.340 OA
BRANCH  26  27
HETATM   27  C   UNK N   1      27.525  16.956   5.224  0.00  0.00     0.285 C 
BRANCH  27  28
HETATM   28  C   UNK N   1      28.101  17.855   4.170  0.00  0.00     0.164 C 
HETATM   29  O   UNK N   1      27.597  18.949   3.972  0.00  0.00    -0.648 OA
BRANCH  28  30
HETATM   30  O   UNK N   1      29.179  17.476   3.459  0.00  0.00    -0.775 OA
HETATM   31  H   UNK N   1      29.772  17.480   2.734  0.00  0.00     0.167 HD
ENDBRANCH  28  30
ENDBRANCH  27  28
ENDBRANCH  26  27
ENDBRANCH   5  26
TORSDOF 13
ENDMDL
MODEL 4
REMARK VINA RESULT:      -6.3     12.398     14.492
REMARK  13 active torsions:
REMARK  status: ('A' for Active; 'I' for Inactive)
REMARK    1  A    between atoms: C_5  and  O_14 
REMARK    2  A    between atoms: C_11  and  C_17 
REMARK    3  A    between atoms: C_13  and  O_27 
REMARK    4  A    between atoms: O_14  and  C_15 
REMARK    5  A    between atoms: C_15  and  C_16 
REMARK    6  A    between atoms: C_16  and  O_25 
REMARK    7  A    between atoms: C_17  and  C_18 
REMARK    8  A    between atoms: C_18  and  C_19 
REMARK    9  A    between atoms: C_19  and  C_20 
REMARK   10  A    between atoms: C_19  and  O_28 
REMARK   11  A    between atoms: C_20  and  C_21 
REMARK   12  A    between atoms: C_21  and  C_22 
REMARK   13  A    between atoms: C_22  and  C_23 
ROOT
HETATM    1  C   UNK N   1      26.742  22.891  -6.349  0.00  0.00    -0.049 A 
HETATM    2  C   UNK N   1      25.942  23.616  -5.462  0.00  0.00     0.008 A 
HETATM    3  C   UNK N   1      26.508  24.254  -4.360  0.00  0.00     0.003 A 
HETATM    4  C   UNK N   1      27.875  24.151  -4.123  0.00  0.00     0.037 A 
HETATM    5  C   UNK N   1      28.703  23.415  -4.992  0.00  0.00     0.076 A 
HETATM    6  C   UNK N   1      28.133  22.797  -6.121  0.00  0.00    -0.018 A 
HETATM    7  C   UNK N   1      29.013  22.055  -7.086  0.00  0.00     0.047 C 
HETATM    8  C   UNK N   1      28.281  20.913  -7.791  0.00  0.00    -0.003 C 
HETATM    9  C   UNK N   1      26.981  21.387  -8.429  0.00  0.00     0.001 C 
HETATM   10  C   UNK N   1      26.064  22.182  -7.490  0.00  0.00     0.044 C 
HETATM   11  C   UNK N   1      27.487  22.174  -9.628  0.00  0.00     0.019 C 
HETATM   12  C   UNK N   1      29.120  20.485  -8.991  0.00  0.00     0.037 C 
HETATM   13  C   UNK N   1      28.630  21.320 -10.185  0.00  0.00     0.123 C 
ENDROOT
BRANCH  11  14
HETATM   14  C   UNK N   1      26.476  22.651 -10.689  0.00  0.00     0.010 C 
BRANCH  14  15
HETATM   15  C   UNK N   1      26.449  24.161 -10.942  0.00  0.00     0.032 C 
BRANCH  15  16
HETATM   16  C   UNK N   1      25.458  24.935 -10.071  0.00  0.00     0.118 C 
BRANCH  16  17
HETATM   17  C   UNK N   1      26.080  26.130  -9.342  0.00  0.00     0.032 C 
BRANCH  17  18
HETATM   18  C   UNK N   1      25.805  26.131  -7.846  0.00  0.00     0.002 C 
BRANCH  18  19
HETATM   19  C   UNK N   1      26.808  27.047  -7.169  0.00  0.00    -0.000 C 
BRANCH  19  20
HETATM   20  C   UNK N   1      26.250  27.562  -5.861  0.00  0.00    -0.005 C 
HETATM   21  C   UNK N   1      24.791  27.171  -5.753  0.00  0.00     0.005 C 
ENDBRANCH  19  20
ENDBRANCH  18  19
ENDBRANCH  17  18
ENDBRANCH  16  17
BRANCH  16  22
HETATM   22  O   UNK N   1      24.296  25.278 -10.768  0.00  0.00    -0.396 OA
HETATM   23  H   UNK N   1      23.677  24.702 -11.243  0.00  0.00     0.210 HD
ENDBRANCH  16  22
ENDBRANCH  15  16
ENDBRANCH  14  15
ENDBRANCH  11  14
BRANCH  13  24
HETATM   24  O   UNK N   1      28.166  20.439 -11.164  0.00  0.00    -0.395 OA
HETATM   25  H   UNK N   1      28.223  19.472 -11.116  0.00  0.00     0.210 HD
ENDBRANCH  13  24
BRANCH   5  26
HETATM   26  O   UNK N   1      30.033  23.277  -4.746  0.00  0.00    -0.340 OA
BRANCH  26  27
HETATM   27  C   UNK N   1      30.637  22.164  -4.181  0.00  0.00     0.285 C 
BRANCH  27  28
HETATM   28  C   UNK N   1      31.164  22.428  -2.801  0.00  0.00     0.164 C 
HETATM   29  O   UNK N   1      30.793  23.421  -2.196  0.00  0.00    -0.648 OA
BRANCH  28  30
HETATM   30  O   UNK N   1      32.021  21.570  -2.217  0.00  0.00    -0.775 OA
HETATM   31  H   UNK N   1      32.337  20.735  -1.933  0.00  0.00     0.167 HD
ENDBRANCH  28  30
ENDBRANCH  27  28
ENDBRANCH  26  27
ENDBRANCH   5  26
TORSDOF 13
ENDMDL
MODEL 5
REMARK VINA RESULT:      -6.1      2.926      6.459
REMARK  13 active torsions:
REMARK  status: ('A' for Active; 'I' for Inactive)
REMARK    1  A    between atoms: C_5  and  O_14 
REMARK    2  A    between atoms: C_11  and  C_17 
REMARK    3  A    between atoms: C_13  and  O_27 
REMARK    4  A    between atoms: O_14  and  C_15 
REMARK    5  A    between atoms: C_15  and  C_16 
REMARK    6  A    between atoms: C_16  and  O_25 
REMARK    7  A    between atoms: C_17  and  C_18 
REMARK    8  A    between atoms: C_18  and  C_19 
REMARK    9  A    between atoms: C_19  and  C_20 
REMARK   10  A    between atoms: C_19  and  O_28 
REMARK   11  A    between atoms: C_20  and  C_21 
REMARK   12  A    between atoms: C_21  and  C_22 
REMARK   13  A    between atoms: C_22  and  C_23 
ROOT
HETATM    1  C   UNK N   1      32.640  17.258   5.806  0.00  0.00    -0.049 A 
HETATM    2  C   UNK N   1      33.870  17.656   6.335  0.00  0.00     0.008 A 
HETATM    3  C   UNK N   1      33.991  17.963   7.689  0.00  0.00     0.003 A 
HETATM    4  C   UNK N   1      32.876  17.899   8.519  0.00  0.00     0.037 A 
HETATM    5  C   UNK N   1      31.621  17.515   8.010  0.00  0.00     0.076 A 
HETATM    6  C   UNK N   1      31.509  17.176   6.647  0.00  0.00    -0.018 A 
HETATM    7  C   UNK N   1      30.189  16.712   6.103  0.00  0.00     0.047 C 
HETATM    8  C   UNK N   1      30.009  17.053   4.623  0.00  0.00    -0.003 C 
HETATM    9  C   UNK N   1      31.189  16.571   3.788  0.00  0.00     0.001 C 
HETATM   10  C   UNK N   1      32.564  16.991   4.327  0.00  0.00     0.044 C 
HETATM   11  C   UNK N   1      30.960  15.068   3.756  0.00  0.00     0.019 C 
HETATM   12  C   UNK N   1      28.845  16.227   4.087  0.00  0.00     0.037 C 
HETATM   13  C   UNK N   1      29.449  14.921   3.546  0.00  0.00     0.123 C 
ENDROOT
BRANCH  11  14
HETATM   14  C   UNK N   1      31.819  14.201   2.815  0.00  0.00     0.010 C 
BRANCH  14  15
HETATM   15  C   UNK N   1      32.513  13.004   3.471  0.00  0.00     0.032 C 
BRANCH  15  16
HETATM   16  C   UNK N   1      33.461  13.366   4.615  0.00  0.00     0.118 C 
BRANCH  16  17
HETATM   17  C   UNK N   1      32.825  13.254   6.003  0.00  0.00     0.032 C 
BRANCH  17  18
HETATM   18  C   UNK N   1      33.590  14.011   7.079  0.00  0.00     0.002 C 
BRANCH  18  19
HETATM   19  C   UNK N   1      32.745  14.050   8.339  0.00  0.00    -0.000 C 
BRANCH  19  20
HETATM   20  C   UNK N   1      33.594  14.434   9.530  0.00  0.00    -0.005 C 
HETATM   21  C   UNK N   1      35.018  14.673   9.070  0.00  0.00     0.005 C 
ENDBRANCH  19  20
ENDBRANCH  18  19
ENDBRANCH  17  18
ENDBRANCH  16  17
BRANCH  16  22
HETATM   22  O   UNK N   1      34.680  12.686   4.527  0.00  0.00    -0.396 OA
HETATM   23  H   UNK N   1      34.935  11.838   4.921  0.00  0.00     0.210 HD
ENDBRANCH  16  22
ENDBRANCH  15  16
ENDBRANCH  14  15
ENDBRANCH  11  14
BRANCH  13  24
HETATM   24  O   UNK N   1      29.139  14.835   2.187  0.00  0.00    -0.395 OA
HETATM   25  H   UNK N   1      28.321  14.461   1.825  0.00  0.00     0.210 HD
ENDBRANCH  13  24
BRANCH   5  26
HETATM   26  O   UNK N   1      30.519  17.487   8.804  0.00  0.00    -0.340 OA
BRANCH  26  27
HETATM   27  C   UNK N   1      29.827  18.598   9.263  0.00  0.00     0.285 C 
BRANCH  27  28
HETATM   28  C   UNK N   1      28.418  18.658   8.749  0.00  0.00     0.164 C 
HETATM   29  O   UNK N   1      28.186  19.232   7.697  0.00  0.00    -0.648 OA
BRANCH  28  30
HETATM   30  O   UNK N   1      27.416  18.066   9.424  0.00  0.00    -0.775 OA
HETATM   31  H   UNK N   1      26.852  17.906  10.155  0.00  0.00     0.167 HD
ENDBRANCH  28  30
ENDBRANCH  27  28
ENDBRANCH  26  27
ENDBRANCH   5  26
TORSDOF 13
ENDMDL
MODEL 6
REMARK VINA RESULT:      -6.1     12.592     16.199
REMARK  13 active torsions:
REMARK  status: ('A' for Active; 'I' for Inactive)
REMARK    1  A    between atoms: C_5  and  O_14 
REMARK    2  A    between atoms: C_11  and  C_17 
REMARK    3  A    between atoms: C_13  and  O_27 
REMARK    4  A    between atoms: O_14  and  C_15 
REMARK    5  A    between atoms: C_15  and  C_16 
REMARK    6  A    between atoms: C_16  and  O_25 
REMARK    7  A    between atoms: C_17  and  C_18 
REMARK    8  A    between atoms: C_18  and  C_19 
REMARK    9  A    between atoms: C_19  and  C_20 
REMARK   10  A    between atoms: C_19  and  O_28 
REMARK   11  A    between atoms: C_20  and  C_21 
REMARK   12  A    between atoms: C_21  and  C_22 
REMARK   13  A    between atoms: C_22  and  C_23 
ROOT
HETATM    1  C   UNK N   1      25.808  23.431  -7.148  0.00  0.00    -0.049 A 
HETATM    2  C   UNK N   1      25.812  22.249  -7.892  0.00  0.00     0.008 A 
HETATM    3  C   UNK N   1      25.999  22.283  -9.273  0.00  0.00     0.003 A 
HETATM    4  C   UNK N   1      26.156  23.504  -9.923  0.00  0.00     0.037 A 
HETATM    5  C   UNK N   1      26.142  24.711  -9.200  0.00  0.00     0.076 A 
HETATM    6  C   UNK N   1      25.984  24.671  -7.801  0.00  0.00    -0.018 A 
HETATM    7  C   UNK N   1      26.021  25.948  -7.012  0.00  0.00     0.047 C 
HETATM    8  C   UNK N   1      25.181  25.876  -5.736  0.00  0.00    -0.003 C 
HETATM    9  C   UNK N   1      25.539  24.656  -4.895  0.00  0.00     0.001 C 
HETATM   10  C   UNK N   1      25.550  23.331  -5.669  0.00  0.00     0.044 C 
HETATM   11  C   UNK N   1      26.887  25.057  -4.317  0.00  0.00     0.019 C 
HETATM   12  C   UNK N   1      25.583  27.043  -4.841  0.00  0.00     0.037 C 
HETATM   13  C   UNK N   1      26.712  26.529  -3.933  0.00  0.00     0.123 C 
ENDROOT
BRANCH  11  14
HETATM   14  C   UNK N   1      27.517  24.184  -3.214  0.00  0.00     0.010 C 
BRANCH  14  15
HETATM   15  C   UNK N   1      29.030  23.979  -3.317  0.00  0.00     0.032 C 
BRANCH  15  16
HETATM   16  C   UNK N   1      29.560  22.755  -2.567  0.00  0.00     0.118 C 
BRANCH  16  17
HETATM   17  C   UNK N   1      30.193  21.699  -3.479  0.00  0.00     0.032 C 
BRANCH  17  18
HETATM   18  C   UNK N   1      30.654  22.258  -4.816  0.00  0.00     0.002 C 
BRANCH  18  19
HETATM   19  C   UNK N   1      29.840  21.608  -5.920  0.00  0.00    -0.000 C 
BRANCH  19  20
HETATM   20  C   UNK N   1      29.116  22.660  -6.729  0.00  0.00    -0.005 C 
HETATM   21  C   UNK N   1      29.843  22.865  -8.043  0.00  0.00     0.005 C 
ENDBRANCH  19  20
ENDBRANCH  18  19
ENDBRANCH  17  18
ENDBRANCH  16  17
BRANCH  16  22
HETATM   22  O   UNK N   1      30.388  23.107  -1.498  0.00  0.00    -0.396 OA
HETATM   23  H   UNK N   1      30.968  23.878  -1.403  0.00  0.00     0.210 HD
ENDBRANCH  16  22
ENDBRANCH  15  16
ENDBRANCH  14  15
ENDBRANCH  11  14
BRANCH  13  24
HETATM   24  O   UNK N   1      26.289  26.654  -2.608  0.00  0.00    -0.395 OA
HETATM   25  H   UNK N   1      26.862  26.576  -1.830  0.00  0.00     0.210 HD
ENDBRANCH  13  24
BRANCH   5  26
HETATM   26  O   UNK N   1      26.256  25.910  -9.831  0.00  0.00    -0.340 OA
BRANCH  26  27
HETATM   27  C   UNK N   1      26.141  26.117 -11.198  0.00  0.00     0.285 C 
BRANCH  27  28
HETATM   28  C   UNK N   1      24.770  26.573 -11.602  0.00  0.00     0.164 C 
HETATM   29  O   UNK N   1      23.797  25.908 -11.285  0.00  0.00    -0.648 OA
BRANCH  28  30
HETATM   30  O   UNK N   1      24.603  27.718 -12.289  0.00  0.00    -0.775 OA
HETATM   31  H   UNK N   1      24.135  28.355 -12.792  0.00  0.00     0.167 HD
ENDBRANCH  28  30
ENDBRANCH  27  28
ENDBRANCH  26  27
ENDBRANCH   5  26
TORSDOF 13
ENDMDL
MODEL 7
REMARK VINA RESULT:      -6.1      3.379      7.133
REMARK  13 active torsions:
REMARK  status: ('A' for Active; 'I' for Inactive)
REMARK    1  A    between atoms: C_5  and  O_14 
REMARK    2  A    between atoms: C_11  and  C_17 
REMARK    3  A    between atoms: C_13  and  O_27 
REMARK    4  A    between atoms: O_14  and  C_15 
REMARK    5  A    between atoms: C_15  and  C_16 
REMARK    6  A    between atoms: C_16  and  O_25 
REMARK    7  A    between atoms: C_17  and  C_18 
REMARK    8  A    between atoms: C_18  and  C_19 
REMARK    9  A    between atoms: C_19  and  C_20 
REMARK   10  A    between atoms: C_19  and  O_28 
REMARK   11  A    between atoms: C_20  and  C_21 
REMARK   12  A    between atoms: C_21  and  C_22 
REMARK   13  A    between atoms: C_22  and  C_23 
ROOT
HETATM    1  C   UNK N   1      31.722  17.540   7.016  0.00  0.00    -0.049 A 
HETATM    2  C   UNK N   1      31.627  17.825   8.380  0.00  0.00     0.008 A 
HETATM    3  C   UNK N   1      30.382  18.003   8.981  0.00  0.00     0.003 A 
HETATM    4  C   UNK N   1      29.223  17.922   8.214  0.00  0.00     0.037 A 
HETATM    5  C   UNK N   1      29.290  17.651   6.835  0.00  0.00     0.076 A 
HETATM    6  C   UNK N   1      30.548  17.441   6.238  0.00  0.00    -0.018 A 
HETATM    7  C   UNK N   1      30.630  17.097   4.778  0.00  0.00     0.047 C 
HETATM    8  C   UNK N   1      31.929  17.578   4.132  0.00  0.00    -0.003 C 
HETATM    9  C   UNK N   1      33.152  17.113   4.913  0.00  0.00     0.001 C 
HETATM   10  C   UNK N   1      33.097  17.411   6.418  0.00  0.00     0.044 C 
HETATM   11  C   UNK N   1      33.202  15.633   4.568  0.00  0.00     0.019 C 
HETATM   12  C   UNK N   1      32.082  16.864   2.793  0.00  0.00     0.037 C 
HETATM   13  C   UNK N   1      32.884  15.583   3.070  0.00  0.00     0.123 C 
ENDROOT
BRANCH  11  14
HETATM   14  C   UNK N   1      34.437  14.810   4.982  0.00  0.00     0.010 C 
BRANCH  14  15
HETATM   15  C   UNK N   1      34.142  13.440   5.598  0.00  0.00     0.032 C 
BRANCH  15  16
HETATM   16  C   UNK N   1      34.347  13.365   7.112  0.00  0.00     0.118 C 
BRANCH  16  17
HETATM   17  C   UNK N   1      33.090  13.698   7.922  0.00  0.00     0.032 C 
BRANCH  17  18
HETATM   18  C   UNK N   1      33.333  14.734   9.009  0.00  0.00     0.002 C 
BRANCH  18  19
HETATM   19  C   UNK N   1      34.731  15.299   8.838  0.00  0.00    -0.000 C 
BRANCH  19  20
HETATM   20  C   UNK N   1      34.873  16.593   9.607  0.00  0.00    -0.005 C 
HETATM   21  C   UNK N   1      35.589  16.319  10.915  0.00  0.00     0.005 C 
ENDBRANCH  19  20
ENDBRANCH  18  19
ENDBRANCH  17  18
ENDBRANCH  16  17
BRANCH  16  22
HETATM   22  O   UNK N   1      34.935  12.160   7.507  0.00  0.00    -0.396 OA
HETATM   23  H   UNK N   1      34.519  11.376   7.898  0.00  0.00     0.210 HD
ENDBRANCH  16  22
ENDBRANCH  15  16
ENDBRANCH  14  15
ENDBRANCH  11  14
BRANCH  13  24
HETATM   24  O   UNK N   1      34.054  15.635   2.308  0.00  0.00    -0.395 OA
HETATM   25  H   UNK N   1      34.847  15.102   2.469  0.00  0.00     0.210 HD
ENDBRANCH  13  24
BRANCH   5  26
HETATM   26  O   UNK N   1      28.166  17.609   6.071  0.00  0.00    -0.340 OA
BRANCH  26  27
HETATM   27  C   UNK N   1      27.237  18.631   5.946  0.00  0.00     0.285 C 
BRANCH  27  28
HETATM   28  C   UNK N   1      27.807  19.856   5.293  0.00  0.00     0.164 C 
HETATM   29  O   UNK N   1      27.779  20.922   5.886  0.00  0.00    -0.648 OA
BRANCH  28  30
HETATM   30  O   UNK N   1      28.368  19.784   4.071  0.00  0.00    -0.775 OA
HETATM   31  H   UNK N   1      28.516  20.033   3.180  0.00  0.00     0.167 HD
ENDBRANCH  28  30
ENDBRANCH  27  28
ENDBRANCH  26  27
ENDBRANCH   5  26
TORSDOF 13
ENDMDL
MODEL 8
REMARK VINA RESULT:      -6.0      2.241      4.691
REMARK  13 active torsions:
REMARK  status: ('A' for Active; 'I' for Inactive)
REMARK    1  A    between atoms: C_5  and  O_14 
REMARK    2  A    between atoms: C_11  and  C_17 
REMARK    3  A    between atoms: C_13  and  O_27 
REMARK    4  A    between atoms: O_14  and  C_15 
REMARK    5  A    between atoms: C_15  and  C_16 
REMARK    6  A    between atoms: C_16  and  O_25 
REMARK    7  A    between atoms: C_17  and  C_18 
REMARK    8  A    between atoms: C_18  and  C_19 
REMARK    9  A    between atoms: C_19  and  C_20 
REMARK   10  A    between atoms: C_19  and  O_28 
REMARK   11  A    between atoms: C_20  and  C_21 
REMARK   12  A    between atoms: C_21  and  C_22 
REMARK   13  A    between atoms: C_22  and  C_23 
ROOT
HETATM    1  C   UNK N   1      31.737  16.885   6.090  0.00  0.00    -0.049 A 
HETATM    2  C   UNK N   1      32.434  16.606   4.911  0.00  0.00     0.008 A 
HETATM    3  C   UNK N   1      33.615  15.867   4.946  0.00  0.00     0.003 A 
HETATM    4  C   UNK N   1      34.122  15.423   6.164  0.00  0.00     0.037 A 
HETATM    5  C   UNK N   1      33.448  15.702   7.368  0.00  0.00     0.076 A 
HETATM    6  C   UNK N   1      32.239  16.424   7.326  0.00  0.00    -0.018 A 
HETATM    7  C   UNK N   1      31.483  16.681   8.598  0.00  0.00     0.047 C 
HETATM    8  C   UNK N   1      30.667  17.973   8.546  0.00  0.00    -0.003 C 
HETATM    9  C   UNK N   1      29.774  18.025   7.312  0.00  0.00     0.001 C 
HETATM   10  C   UNK N   1      30.497  17.732   5.990  0.00  0.00     0.044 C 
HETATM   11  C   UNK N   1      28.686  17.024   7.668  0.00  0.00     0.019 C 
HETATM   12  C   UNK N   1      29.666  17.945   9.696  0.00  0.00     0.037 C 
HETATM   13  C   UNK N   1      28.383  17.304   9.143  0.00  0.00     0.123 C 
ENDROOT
BRANCH  11  14
HETATM   14  C   UNK N   1      27.436  16.928   6.770  0.00  0.00     0.010 C 
BRANCH  14  15
HETATM   15  C   UNK N   1      27.220  18.103   5.812  0.00  0.00     0.032 C 
BRANCH  15  16
HETATM   16  C   UNK N   1      26.866  17.699   4.380  0.00  0.00     0.118 C 
BRANCH  16  17
HETATM   17  C   UNK N   1      28.046  17.123   3.592  0.00  0.00     0.032 C 
BRANCH  17  18
HETATM   18  C   UNK N   1      27.929  15.627   3.341  0.00  0.00     0.002 C 
BRANCH  18  19
HETATM   19  C   UNK N   1      29.295  14.994   3.538  0.00  0.00    -0.000 C 
BRANCH  19  20
HETATM   20  C   UNK N   1      29.361  14.292   4.876  0.00  0.00    -0.005 C 
HETATM   21  C   UNK N   1      30.648  13.497   4.958  0.00  0.00     0.005 C 
ENDBRANCH  19  20
ENDBRANCH  18  19
ENDBRANCH  17  18
ENDBRANCH  16  17
BRANCH  16  22
HETATM   22  O   UNK N   1      25.734  16.881   4.324  0.00  0.00    -0.396 OA
HETATM   23  H   UNK N   1      25.652  15.938   4.531  0.00  0.00     0.210 HD
ENDBRANCH  16  22
ENDBRANCH  15  16
ENDBRANCH  14  15
ENDBRANCH  11  14
BRANCH  13  24
HETATM   24  O   UNK N   1      27.347  18.232   9.274  0.00  0.00    -0.395 OA
HETATM   25  H   UNK N   1      26.489  18.053   9.689  0.00  0.00     0.210 HD
ENDBRANCH  13  24
BRANCH   5  26
HETATM   26  O   UNK N   1      33.956  15.307   8.566  0.00  0.00    -0.340 OA
BRANCH  26  27
HETATM   27  C   UNK N   1      35.220  15.613   9.047  0.00  0.00     0.285 C 
BRANCH  27  28
HETATM   28  C   UNK N   1      35.182  16.520  10.242  0.00  0.00     0.164 C 
HETATM   29  O   UNK N   1      35.537  17.682  10.126  0.00  0.00    -0.648 OA
BRANCH  28  30
HETATM   30  O   UNK N   1      34.740  16.071  11.431  0.00  0.00    -0.775 OA
HETATM   31  H   UNK N   1      34.810  15.677  12.278  0.00  0.00     0.167 HD
ENDBRANCH  28  30
ENDBRANCH  27  28
ENDBRANCH  26  27
ENDBRANCH   5  26
TORSDOF 13
ENDMDL
MODEL 9
REMARK VINA RESULT:      -6.0     13.335     16.516
REMARK  13 active torsions:
REMARK  status: ('A' for Active; 'I' for Inactive)
REMARK    1  A    between atoms: C_5  and  O_14 
REMARK    2  A    between atoms: C_11  and  C_17 
REMARK    3  A    between atoms: C_13  and  O_27 
REMARK    4  A    between atoms: O_14  and  C_15 
REMARK    5  A    between atoms: C_15  and  C_16 
REMARK    6  A    between atoms: C_16  and  O_25 
REMARK    7  A    between atoms: C_17  and  C_18 
REMARK    8  A    between atoms: C_18  and  C_19 
REMARK    9  A    between atoms: C_19  and  C_20 
REMARK   10  A    between atoms: C_19  and  O_28 
REMARK   11  A    between atoms: C_20  and  C_21 
REMARK   12  A    between atoms: C_21  and  C_22 
REMARK   13  A    between atoms: C_22  and  C_23 
ROOT
HETATM    1  C   UNK N   1      35.457  11.071  18.999  0.00  0.00    -0.049 A 
HETATM    2  C   UNK N   1      35.222  12.295  19.630  0.00  0.00     0.008 A 
HETATM    3  C   UNK N   1      35.091  13.462  18.881  0.00  0.00     0.003 A 
HETATM    4  C   UNK N   1      35.219  13.418  17.496  0.00  0.00     0.037 A 
HETATM    5  C   UNK N   1      35.470  12.201  16.835  0.00  0.00     0.076 A 
HETATM    6  C   UNK N   1      35.572  11.018  17.593  0.00  0.00    -0.018 A 
HETATM    7  C   UNK N   1      35.785   9.705  16.896  0.00  0.00     0.047 C 
HETATM    8  C   UNK N   1      36.550   8.699  17.757  0.00  0.00    -0.003 C 
HETATM    9  C   UNK N   1      35.912   8.536  19.131  0.00  0.00     0.001 C 
HETATM   10  C   UNK N   1      35.641   9.855  19.868  0.00  0.00     0.044 C 
HETATM   11  C   UNK N   1      34.664   7.731  18.806  0.00  0.00     0.019 C 
HETATM   12  C   UNK N   1      36.380   7.318  17.131  0.00  0.00     0.037 C 
HETATM   13  C   UNK N   1      35.140   6.691  17.787  0.00  0.00     0.123 C 
ENDROOT
BRANCH  11  14
HETATM   14  C   UNK N   1      33.828   7.149  19.963  0.00  0.00     0.010 C 
BRANCH  14  15
HETATM   15  C   UNK N   1      32.350   6.900  19.650  0.00  0.00     0.032 C 
BRANCH  15  16
HETATM   16  C   UNK N   1      31.372   7.588  20.603  0.00  0.00     0.118 C 
BRANCH  16  17
HETATM   17  C   UNK N   1      32.054   8.435  21.682  0.00  0.00     0.032 C 
BRANCH  17  18
HETATM   18  C   UNK N   1      32.034   9.925  21.379  0.00  0.00     0.002 C 
BRANCH  18  19
HETATM   19  C   UNK N   1      32.929  10.635  22.378  0.00  0.00    -0.000 C 
BRANCH  19  20
HETATM   20  C   UNK N   1      33.817   9.638  23.090  0.00  0.00    -0.005 C 
HETATM   21  C   UNK N   1      33.933  10.029  24.549  0.00  0.00     0.005 C 
ENDBRANCH  19  20
ENDBRANCH  18  19
ENDBRANCH  17  18
ENDBRANCH  16  17
BRANCH  16  22
HETATM   22  O   UNK N   1      30.374   8.291  19.921  0.00  0.00    -0.396 OA
HETATM   23  H   UNK N   1      29.445   8.422  20.164  0.00  0.00     0.210 HD
ENDBRANCH  16  22
ENDBRANCH  15  16
ENDBRANCH  14  15
ENDBRANCH  11  14
BRANCH  13  24
HETATM   24  O   UNK N   1      35.538   5.513  18.422  0.00  0.00    -0.395 OA
HETATM   25  H   UNK N   1      36.151   4.860  18.051  0.00  0.00     0.210 HD
ENDBRANCH  13  24
BRANCH   5  26
HETATM   26  O   UNK N   1      35.635  12.154  15.487  0.00  0.00    -0.340 OA
BRANCH  26  27
HETATM   27  C   UNK N   1      36.646  12.783  14.775  0.00  0.00     0.285 C 
BRANCH  27  28
HETATM   28  C   UNK N   1      36.140  13.495  13.555  0.00  0.00     0.164 C 
HETATM   29  O   UNK N   1      34.940  13.668  13.414  0.00  0.00    -0.648 OA
BRANCH  28  30
HETATM   30  O   UNK N   1      36.996  13.964  12.629  0.00  0.00    -0.775 OA
HETATM   31  H   UNK N   1      37.813  14.287  12.303  0.00  0.00     0.167 HD
ENDBRANCH  28  30
ENDBRANCH  27  28
ENDBRANCH  26  27
ENDBRANCH   5  26
TORSDOF 13
ENDMDL
