MODEL 1
REMARK VINA RESULT:      -8.0      0.000      0.000
REMARK  10 active torsions:
REMARK  status: ('A' for Active; 'I' for Inactive)
REMARK    1  A    between atoms: C_2  and  N_19 
REMARK    2  A    between atoms: C_3  and  O_35 
REMARK    3  A    between atoms: C_4  and  N_40 
REMARK    4  A    between atoms: C_11  and  O_33 
REMARK    5  A    between atoms: C_16  and  C_26 
REMARK    6  A    between atoms: C_17  and  O_25 
REMARK    7  A    between atoms: C_18  and  N_29 
REMARK       I    between atoms: N_19  and  C_20 
REMARK    8  A    between atoms: C_20  and  C_21 
REMARK    9  A    between atoms: C_21  and  N_22 
REMARK   10  A    between atoms: N_22  and  C_23 
REMARK       I    between atoms: C_26  and  N_28 
ROOT
HETATM    1  C   UNK N   1      30.018  14.317   4.056  0.00  0.00     0.062 A 
HETATM    2  C   UNK N   1      30.650  15.508   4.422  0.00  0.00     0.071 A 
HETATM    3  C   UNK N   1      29.917  16.704   4.449  0.00  0.00     0.107 A 
HETATM    4  C   UNK N   1      28.680  14.261   3.695  0.00  0.00     0.039 A 
HETATM    5  C   UNK N   1      27.946  15.471   3.689  0.00  0.00    -0.014 A 
HETATM    6  C   UNK N   1      28.556  16.699   4.089  0.00  0.00     0.059 A 
HETATM    7  C   UNK N   1      27.681  17.920   4.185  0.00  0.00     0.194 C 
HETATM    8  C   UNK N   1      26.501  15.495   3.313  0.00  0.00     0.051 C 
HETATM    9  C   UNK N   1      25.787  16.246   4.397  0.00  0.00     0.030 C 
HETATM   10  C   UNK N   1      26.196  17.700   4.250  0.00  0.00     0.030 C 
HETATM   11  C   UNK N   1      25.260  18.684   4.155  0.00  0.00     0.096 C 
HETATM   12  C   UNK N   1      24.317  15.934   4.337  0.00  0.00     0.021 C 
HETATM   13  C   UNK N   1      23.531  16.966   3.562  0.00  0.00     0.075 C 
HETATM   14  C   UNK N   1      23.761  18.331   4.226  0.00  0.00     0.177 C 
HETATM   15  C   UNK N   1      22.822  19.327   3.568  0.00  0.00     0.208 C 
HETATM   16  C   UNK N   1      21.404  18.930   3.263  0.00  0.00     0.112 C 
HETATM   17  C   UNK N   1      21.053  17.608   3.289  0.00  0.00     0.096 C 
HETATM   18  C   UNK N   1      22.066  16.525   3.654  0.00  0.00     0.286 C 
HETATM   19  O   UNK N   1      28.162  19.045   4.250  0.00  0.00    -0.287 OA
HETATM   20  O   UNK N   1      23.212  20.453   3.295  0.00  0.00    -0.288 OA
HETATM   21  O   UNK N   1      23.398  18.239   5.576  0.00  0.00    -0.374 OA
HETATM   22  H   UNK N   1      23.247  18.298   6.532  0.00  0.00     0.211 HD
ENDROOT
BRANCH  11  23
HETATM   23  O   UNK N   1      25.651  19.967   3.992  0.00  0.00    -0.361 OA
HETATM   24  H   UNK N   1      26.248  20.220   3.315  0.00  0.00     0.217 HD
ENDBRANCH  11  23
BRANCH  18  25
HETATM   25  N   UNK N   1      21.872  15.187   3.049  0.00  0.00     0.091 N 
HETATM   26  C   UNK N   1      20.875  14.391   3.749  0.00  0.00     0.310 C 
HETATM   27  C   UNK N   1      21.537  15.246   1.634  0.00  0.00     0.310 C 
ENDBRANCH  18  25
BRANCH  16  28
HETATM   28  C   UNK N   1      20.397  20.004   2.941  0.00  0.00     0.255 C 
HETATM   29  O   UNK N   1      20.007  20.758   3.817  0.00  0.00    -0.268 OA
HETATM   30  N   UNK N   1      19.872  20.125   1.703  0.00  0.00    -0.366 N 
HETATM   31  H   UNK N   1      19.135  20.756   1.538  0.00  0.00     0.159 HD
HETATM   32  H   UNK N   1      20.229  19.583   0.964  0.00  0.00     0.159 HD
ENDBRANCH  16  28
BRANCH  17  33
HETATM   33  O   UNK N   1      19.781  17.237   3.038  0.00  0.00    -0.362 OA
HETATM   34  H   UNK N   1      19.196  17.828   2.606  0.00  0.00     0.217 HD
ENDBRANCH  17  33
BRANCH   3  35
HETATM   35  O   UNK N   1      30.514  17.843   4.859  0.00  0.00    -0.357 OA
HETATM   36  H   UNK N   1      30.261  18.261   5.658  0.00  0.00     0.217 HD
ENDBRANCH   3  35
BRANCH   4  37
HETATM   37  N   UNK N   1      28.106  12.970   3.395  0.00  0.00    -0.389 N 
HETATM   38  C   UNK N   1      27.961  12.461   2.054  0.00  0.00     0.149 C 
HETATM   39  C   UNK N   1      27.519  12.180   4.450  0.00  0.00     0.149 C 
ENDBRANCH   4  37
BRANCH   2  40
HETATM   40  N   UNK N   1      31.993  15.468   4.874  0.00  0.00    -0.323 N 
HETATM   41  C   UNK N   1      32.362  15.058   6.118  0.00  0.00     0.239 C 
HETATM   42  O   UNK N   1      31.572  14.483   6.855  0.00  0.00    -0.271 OA
HETATM   43  H   UNK N   1      32.700  15.753   4.251  0.00  0.00     0.169 HD
BRANCH  41  44
HETATM   44  C   UNK N   1      33.748  15.314   6.586  0.00  0.00     0.218 C 
BRANCH  44  45
HETATM   45  N   UNK N   1      34.025  16.745   6.665  0.00  0.00    -0.406 N 
HETATM   46  H   UNK N   1      34.324  17.317   5.875  0.00  0.00     0.154 HD
BRANCH  45  47
HETATM   47  C   UNK N   1      33.824  17.259   8.027  0.00  0.00     0.015 C 
HETATM   48  C   UNK N   1      34.740  18.444   8.228  0.00  0.00     0.037 C 
HETATM   49  C   UNK N   1      34.162  16.223   9.096  0.00  0.00     0.037 C 
HETATM   50  C   UNK N   1      32.394  17.738   8.215  0.00  0.00     0.037 C 
ENDBRANCH  45  47
ENDBRANCH  44  45
ENDBRANCH  41  44
ENDBRANCH   2  40
TORSDOF 10
ENDMDL
MODEL 2
REMARK VINA RESULT:      -8.0      3.728     12.085
REMARK  10 active torsions:
REMARK  status: ('A' for Active; 'I' for Inactive)
REMARK    1  A    between atoms: C_2  and  N_19 
REMARK    2  A    between atoms: C_3  and  O_35 
REMARK    3  A    between atoms: C_4  and  N_40 
REMARK    4  A    between atoms: C_11  and  O_33 
REMARK    5  A    between atoms: C_16  and  C_26 
REMARK    6  A    between atoms: C_17  and  O_25 
REMARK    7  A    between atoms: C_18  and  N_29 
REMARK       I    between atoms: N_19  and  C_20 
REMARK    8  A    between atoms: C_20  and  C_21 
REMARK    9  A    between atoms: C_21  and  N_22 
REMARK   10  A    between atoms: N_22  and  C_23 
REMARK       I    between atoms: C_26  and  N_28 
ROOT
HETATM    1  C   UNK N   1      30.205  16.792   4.448  0.00  0.00     0.062 A 
HETATM    2  C   UNK N   1      29.426  17.299   5.490  0.00  0.00     0.071 A 
HETATM    3  C   UNK N   1      29.803  17.062   6.820  0.00  0.00     0.107 A 
HETATM    4  C   UNK N   1      31.349  16.038   4.667  0.00  0.00     0.039 A 
HETATM    5  C   UNK N   1      31.715  15.769   6.007  0.00  0.00    -0.014 A 
HETATM    6  C   UNK N   1      30.955  16.299   7.095  0.00  0.00     0.059 A 
HETATM    7  C   UNK N   1      31.478  16.083   8.490  0.00  0.00     0.194 C 
HETATM    8  C   UNK N   1      32.932  14.965   6.328  0.00  0.00     0.051 C 
HETATM    9  C   UNK N   1      33.714  15.753   7.337  0.00  0.00     0.030 C 
HETATM   10  C   UNK N   1      32.923  15.693   8.631  0.00  0.00     0.030 C 
HETATM   11  C   UNK N   1      33.506  15.285   9.791  0.00  0.00     0.096 C 
HETATM   12  C   UNK N   1      35.131  15.252   7.373  0.00  0.00     0.021 C 
HETATM   13  C   UNK N   1      35.368  14.240   8.471  0.00  0.00     0.075 C 
HETATM   14  C   UNK N   1      35.000  14.901   9.808  0.00  0.00     0.177 C 
HETATM   15  C   UNK N   1      35.420  13.955  10.919  0.00  0.00     0.208 C 
HETATM   16  C   UNK N   1      36.740  13.240  10.834  0.00  0.00     0.112 C 
HETATM   17  C   UNK N   1      37.409  13.198   9.642  0.00  0.00     0.096 C 
HETATM   18  C   UNK N   1      36.858  13.890   8.397  0.00  0.00     0.286 C 
HETATM   19  O   UNK N   1      30.766  16.259   9.471  0.00  0.00    -0.287 OA
HETATM   20  O   UNK N   1      34.694  13.781  11.886  0.00  0.00    -0.288 OA
HETATM   21  O   UNK N   1      35.750  16.076   9.948  0.00  0.00    -0.374 OA
HETATM   22  H   UNK N   1      36.152  16.936  10.143  0.00  0.00     0.211 HD
ENDROOT
BRANCH  11  23
HETATM   23  O   UNK N   1      32.771  15.211  10.921  0.00  0.00    -0.361 OA
HETATM   24  H   UNK N   1      32.308  14.432  11.161  0.00  0.00     0.217 HD
ENDBRANCH  11  23
BRANCH  18  25
HETATM   25  N   UNK N   1      37.203  13.297   7.084  0.00  0.00     0.091 N 
HETATM   26  C   UNK N   1      38.558  13.613   6.661  0.00  0.00     0.310 C 
HETATM   27  C   UNK N   1      37.007  11.855   7.044  0.00  0.00     0.310 C 
ENDBRANCH  18  25
BRANCH  16  28
HETATM   28  C   UNK N   1      37.301  12.590  12.072  0.00  0.00     0.255 C 
HETATM   29  O   UNK N   1      37.719  11.444  12.024  0.00  0.00    -0.268 OA
HETATM   30  N   UNK N   1      37.311  13.232  13.259  0.00  0.00    -0.366 N 
HETATM   31  H   UNK N   1      37.575  12.755  14.078  0.00  0.00     0.159 HD
HETATM   32  H   UNK N   1      37.055  14.181  13.305  0.00  0.00     0.159 HD
ENDBRANCH  16  28
BRANCH  17  33
HETATM   33  O   UNK N   1      38.603  12.578   9.553  0.00  0.00    -0.362 OA
HETATM   34  H   UNK N   1      38.689  11.682   9.816  0.00  0.00     0.217 HD
ENDBRANCH  17  33
BRANCH   3  35
HETATM   35  O   UNK N   1      29.081  17.599   7.825  0.00  0.00    -0.357 OA
HETATM   36  H   UNK N   1      28.163  17.426   7.907  0.00  0.00     0.217 HD
ENDBRANCH   3  35
BRANCH   4  37
HETATM   37  N   UNK N   1      32.121  15.616   3.522  0.00  0.00    -0.389 N 
HETATM   38  C   UNK N   1      32.040  14.292   2.959  0.00  0.00     0.149 C 
HETATM   39  C   UNK N   1      33.126  16.490   2.969  0.00  0.00     0.149 C 
ENDBRANCH   4  37
BRANCH   2  40
HETATM   40  N   UNK N   1      28.328  18.143   5.185  0.00  0.00    -0.323 N 
HETATM   41  C   UNK N   1      27.027  17.756   5.272  0.00  0.00     0.239 C 
HETATM   42  O   UNK N   1      26.712  16.717   5.837  0.00  0.00    -0.271 OA
HETATM   43  H   UNK N   1      28.519  19.064   4.892  0.00  0.00     0.169 HD
BRANCH  41  44
HETATM   44  C   UNK N   1      25.973  18.611   4.670  0.00  0.00     0.218 C 
BRANCH  44  45
HETATM   45  N   UNK N   1      24.748  18.582   5.465  0.00  0.00    -0.406 N 
HETATM   46  H   UNK N   1      24.710  18.761   6.468  0.00  0.00     0.154 HD
BRANCH  45  47
HETATM   47  C   UNK N   1      23.576  18.258   4.639  0.00  0.00     0.015 C 
HETATM   48  C   UNK N   1      22.373  18.142   5.546  0.00  0.00     0.037 C 
HETATM   49  C   UNK N   1      23.733  16.931   3.901  0.00  0.00     0.037 C 
HETATM   50  C   UNK N   1      23.300  19.369   3.639  0.00  0.00     0.037 C 
ENDBRANCH  45  47
ENDBRANCH  44  45
ENDBRANCH  41  44
ENDBRANCH   2  40
TORSDOF 10
ENDMDL
MODEL 3
REMARK VINA RESULT:      -7.9     13.269     17.914
REMARK  10 active torsions:
REMARK  status: ('A' for Active; 'I' for Inactive)
REMARK    1  A    between atoms: C_2  and  N_19 
REMARK    2  A    between atoms: C_3  and  O_35 
REMARK    3  A    between atoms: C_4  and  N_40 
REMARK    4  A    between atoms: C_11  and  O_33 
REMARK    5  A    between atoms: C_16  and  C_26 
REMARK    6  A    between atoms: C_17  and  O_25 
REMARK    7  A    between atoms: C_18  and  N_29 
REMARK       I    between atoms: N_19  and  C_20 
REMARK    8  A    between atoms: C_20  and  C_21 
REMARK    9  A    between atoms: C_21  and  N_22 
REMARK   10  A    between atoms: N_22  and  C_23 
REMARK       I    between atoms: C_26  and  N_28 
ROOT
HETATM    1  C   UNK N   1      35.151   8.932  20.548  0.00  0.00     0.062 A 
HETATM    2  C   UNK N   1      34.866  10.212  21.029  0.00  0.00     0.071 A 
HETATM    3  C   UNK N   1      34.951  11.315  20.165  0.00  0.00     0.107 A 
HETATM    4  C   UNK N   1      35.536   8.694  19.237  0.00  0.00     0.039 A 
HETATM    5  C   UNK N   1      35.656   9.807  18.372  0.00  0.00    -0.014 A 
HETATM    6  C   UNK N   1      35.342  11.125  18.826  0.00  0.00     0.059 A 
HETATM    7  C   UNK N   1      35.364  12.241  17.816  0.00  0.00     0.194 C 
HETATM    8  C   UNK N   1      36.066   9.635  16.946  0.00  0.00     0.051 C 
HETATM    9  C   UNK N   1      35.061  10.380  16.117  0.00  0.00     0.030 C 
HETATM   10  C   UNK N   1      35.315  11.857  16.364  0.00  0.00     0.030 C 
HETATM   11  C   UNK N   1      35.510  12.716  15.326  0.00  0.00     0.096 C 
HETATM   12  C   UNK N   1      35.130   9.898  14.695  0.00  0.00     0.021 C 
HETATM   13  C   UNK N   1      36.003  10.769  13.822  0.00  0.00     0.075 C 
HETATM   14  C   UNK N   1      35.445  12.199  13.875  0.00  0.00     0.177 C 
HETATM   15  C   UNK N   1      36.203  13.027  12.851  0.00  0.00     0.208 C 
HETATM   16  C   UNK N   1      36.507  12.447  11.498  0.00  0.00     0.112 C 
HETATM   17  C   UNK N   1      36.383  11.099  11.297  0.00  0.00     0.096 C 
HETATM   18  C   UNK N   1      35.910  10.171  12.414  0.00  0.00     0.286 C 
HETATM   19  O   UNK N   1      35.378  13.415  18.165  0.00  0.00    -0.287 OA
HETATM   20  O   UNK N   1      36.555  14.165  13.120  0.00  0.00    -0.288 OA
HETATM   21  O   UNK N   1      34.101  12.170  13.482  0.00  0.00    -0.374 OA
HETATM   22  H   UNK N   1      33.156  12.285  13.295  0.00  0.00     0.211 HD
ENDROOT
BRANCH  11  23
HETATM   23  O   UNK N   1      35.766  14.019  15.575  0.00  0.00    -0.361 OA
HETATM   24  H   UNK N   1      35.177  14.553  16.072  0.00  0.00     0.217 HD
ENDBRANCH  11  23
BRANCH  18  25
HETATM   25  N   UNK N   1      36.409   8.777  12.392  0.00  0.00     0.091 N 
HETATM   26  C   UNK N   1      35.732   7.950  11.405  0.00  0.00     0.310 C 
HETATM   27  C   UNK N   1      37.849   8.693  12.189  0.00  0.00     0.310 C 
ENDBRANCH  18  25
BRANCH  16  28
HETATM   28  C   UNK N   1      36.937  13.369  10.387  0.00  0.00     0.255 C 
HETATM   29  O   UNK N   1      36.274  13.444   9.364  0.00  0.00    -0.268 OA
HETATM   30  N   UNK N   1      38.075  14.089  10.473  0.00  0.00    -0.366 N 
HETATM   31  H   UNK N   1      38.400  14.597   9.695  0.00  0.00     0.159 HD
HETATM   32  H   UNK N   1      38.582  14.106  11.316  0.00  0.00     0.159 HD
ENDBRANCH  16  28
BRANCH  17  33
HETATM   33  O   UNK N   1      36.633  10.565  10.085  0.00  0.00    -0.362 OA
HETATM   34  H   UNK N   1      37.375  10.005   9.962  0.00  0.00     0.217 HD
ENDBRANCH  17  33
BRANCH   3  35
HETATM   35  O   UNK N   1      34.621  12.543  20.617  0.00  0.00    -0.357 OA
HETATM   36  H   UNK N   1      35.197  13.272  20.497  0.00  0.00     0.217 HD
ENDBRANCH   3  35
BRANCH   4  37
HETATM   37  N   UNK N   1      35.745   7.326  18.822  0.00  0.00    -0.389 N 
HETATM   38  C   UNK N   1      34.677   6.455  18.402  0.00  0.00     0.149 C 
HETATM   39  C   UNK N   1      37.052   6.729  18.945  0.00  0.00     0.149 C 
ENDBRANCH   4  37
BRANCH   2  40
HETATM   40  N   UNK N   1      34.382  10.361  22.353  0.00  0.00    -0.323 N 
HETATM   41  C   UNK N   1      33.061  10.404  22.677  0.00  0.00     0.239 C 
HETATM   42  O   UNK N   1      32.200  10.089  21.865  0.00  0.00    -0.271 OA
HETATM   43  H   UNK N   1      35.040  10.440  23.082  0.00  0.00     0.169 HD
BRANCH  41  44
HETATM   44  C   UNK N   1      32.660  10.839  24.039  0.00  0.00     0.218 C 
BRANCH  44  45
HETATM   45  N   UNK N   1      31.510  10.079  24.521  0.00  0.00    -0.406 N 
HETATM   46  H   UNK N   1      30.948   9.457  23.940  0.00  0.00     0.154 HD
BRANCH  45  47
HETATM   47  C   UNK N   1      31.261  10.326  25.949  0.00  0.00     0.015 C 
HETATM   48  C   UNK N   1      31.413   9.017  26.689  0.00  0.00     0.037 C 
HETATM   49  C   UNK N   1      29.851  10.849  26.211  0.00  0.00     0.037 C 
HETATM   50  C   UNK N   1      32.281  11.302  26.512  0.00  0.00     0.037 C 
ENDBRANCH  45  47
ENDBRANCH  44  45
ENDBRANCH  41  44
ENDBRANCH   2  40
TORSDOF 10
ENDMDL
MODEL 4
REMARK VINA RESULT:      -7.5      3.463     11.929
REMARK  10 active torsions:
REMARK  status: ('A' for Active; 'I' for Inactive)
REMARK    1  A    between atoms: C_2  and  N_19 
REMARK    2  A    between atoms: C_3  and  O_35 
REMARK    3  A    between atoms: C_4  and  N_40 
REMARK    4  A    between atoms: C_11  and  O_33 
REMARK    5  A    between atoms: C_16  and  C_26 
REMARK    6  A    between atoms: C_17  and  O_25 
REMARK    7  A    between atoms: C_18  and  N_29 
REMARK       I    between atoms: N_19  and  C_20 
REMARK    8  A    between atoms: C_20  and  C_21 
REMARK    9  A    between atoms: C_21  and  N_22 
REMARK   10  A    between atoms: N_22  and  C_23 
REMARK       I    between atoms: C_26  and  N_28 
ROOT
HETATM    1  C   UNK N   1      28.488  17.724   7.086  0.00  0.00     0.062 A 
HETATM    2  C   UNK N   1      28.485  17.480   5.711  0.00  0.00     0.071 A 
HETATM    3  C   UNK N   1      29.619  16.924   5.100  0.00  0.00     0.107 A 
HETATM    4  C   UNK N   1      29.584  17.451   7.892  0.00  0.00     0.039 A 
HETATM    5  C   UNK N   1      30.742  16.921   7.273  0.00  0.00    -0.014 A 
HETATM    6  C   UNK N   1      30.758  16.633   5.874  0.00  0.00     0.059 A 
HETATM    7  C   UNK N   1      31.975  15.948   5.312  0.00  0.00     0.194 C 
HETATM    8  C   UNK N   1      31.964  16.601   8.071  0.00  0.00     0.051 C 
HETATM    9  C   UNK N   1      32.360  15.201   7.706  0.00  0.00     0.030 C 
HETATM   10  C   UNK N   1      32.893  15.264   6.286  0.00  0.00     0.030 C 
HETATM   11  C   UNK N   1      34.119  14.761   5.975  0.00  0.00     0.096 C 
HETATM   12  C   UNK N   1      33.278  14.650   8.762  0.00  0.00     0.021 C 
HETATM   13  C   UNK N   1      34.739  14.802   8.406  0.00  0.00     0.075 C 
HETATM   14  C   UNK N   1      34.975  14.088   7.067  0.00  0.00     0.177 C 
HETATM   15  C   UNK N   1      36.471  14.076   6.810  0.00  0.00     0.208 C 
HETATM   16  C   UNK N   1      37.422  13.777   7.937  0.00  0.00     0.112 C 
HETATM   17  C   UNK N   1      36.973  13.823   9.228  0.00  0.00     0.096 C 
HETATM   18  C   UNK N   1      35.515  14.142   9.551  0.00  0.00     0.286 C 
HETATM   19  O   UNK N   1      32.185  15.913   4.105  0.00  0.00    -0.287 OA
HETATM   20  O   UNK N   1      36.905  14.297   5.689  0.00  0.00    -0.288 OA
HETATM   21  O   UNK N   1      34.557  12.756   7.190  0.00  0.00    -0.374 OA
HETATM   22  H   UNK N   1      34.250  11.840   7.116  0.00  0.00     0.211 HD
ENDROOT
BRANCH  11  23
HETATM   23  O   UNK N   1      34.582  14.859   4.710  0.00  0.00    -0.361 OA
HETATM   24  H   UNK N   1      34.058  15.211   4.017  0.00  0.00     0.217 HD
ENDBRANCH  11  23
BRANCH  18  25
HETATM   25  N   UNK N   1      35.239  14.815  10.841  0.00  0.00     0.091 N 
HETATM   26  C   UNK N   1      35.337  13.914  11.979  0.00  0.00     0.310 C 
HETATM   27  C   UNK N   1      36.086  15.977  11.068  0.00  0.00     0.310 C 
ENDBRANCH  18  25
BRANCH  16  28
HETATM   28  C   UNK N   1      38.851  13.426   7.614  0.00  0.00     0.255 C 
HETATM   29  O   UNK N   1      39.316  12.359   7.983  0.00  0.00    -0.268 OA
HETATM   30  N   UNK N   1      39.656  14.290   6.961  0.00  0.00    -0.366 N 
HETATM   31  H   UNK N   1      40.615  14.093   6.859  0.00  0.00     0.159 HD
HETATM   32  H   UNK N   1      39.283  15.119   6.585  0.00  0.00     0.159 HD
ENDBRANCH  16  28
BRANCH  17  33
HETATM   33  O   UNK N   1      37.807  13.539  10.249  0.00  0.00    -0.362 OA
HETATM   34  H   UNK N   1      38.717  13.389  10.084  0.00  0.00     0.217 HD
ENDBRANCH  17  33
BRANCH   3  35
HETATM   35  O   UNK N   1      29.593  16.637   3.782  0.00  0.00    -0.357 OA
HETATM   36  H   UNK N   1      29.085  15.921   3.453  0.00  0.00     0.217 HD
ENDBRANCH   3  35
BRANCH   4  37
HETATM   37  N   UNK N   1      29.463  17.679   9.312  0.00  0.00    -0.389 N 
HETATM   38  C   UNK N   1      28.868  16.729  10.218  0.00  0.00     0.149 C 
HETATM   39  C   UNK N   1      29.825  18.959   9.870  0.00  0.00     0.149 C 
ENDBRANCH   4  37
BRANCH   2  40
HETATM   40  N   UNK N   1      27.292  17.691   4.974  0.00  0.00    -0.323 N 
HETATM   41  C   UNK N   1      26.874  18.912   4.542  0.00  0.00     0.239 C 
HETATM   42  O   UNK N   1      27.620  19.882   4.570  0.00  0.00    -0.271 OA
HETATM   43  H   UNK N   1      26.732  16.909   4.763  0.00  0.00     0.169 HD
BRANCH  41  44
HETATM   44  C   UNK N   1      25.490  19.067   4.029  0.00  0.00     0.218 C 
BRANCH  44  45
HETATM   45  N   UNK N   1      24.507  18.914   5.099  0.00  0.00    -0.406 N 
HETATM   46  H   UNK N   1      24.659  19.206   6.064  0.00  0.00     0.154 HD
BRANCH  45  47
HETATM   47  C   UNK N   1      23.273  18.282   4.611  0.00  0.00     0.015 C 
HETATM   48  C   UNK N   1      23.642  16.985   3.928  0.00  0.00     0.037 C 
HETATM   49  C   UNK N   1      22.537  19.151   3.594  0.00  0.00     0.037 C 
HETATM   50  C   UNK N   1      22.344  17.952   5.769  0.00  0.00     0.037 C 
ENDBRANCH  45  47
ENDBRANCH  44  45
ENDBRANCH  41  44
ENDBRANCH   2  40
TORSDOF 10
ENDMDL
MODEL 5
REMARK VINA RESULT:      -7.4      1.671      2.070
REMARK  10 active torsions:
REMARK  status: ('A' for Active; 'I' for Inactive)
REMARK    1  A    between atoms: C_2  and  N_19 
REMARK    2  A    between atoms: C_3  and  O_35 
REMARK    3  A    between atoms: C_4  and  N_40 
REMARK    4  A    between atoms: C_11  and  O_33 
REMARK    5  A    between atoms: C_16  and  C_26 
REMARK    6  A    between atoms: C_17  and  O_25 
REMARK    7  A    between atoms: C_18  and  N_29 
REMARK       I    between atoms: N_19  and  C_20 
REMARK    8  A    between atoms: C_20  and  C_21 
REMARK    9  A    between atoms: C_21  and  N_22 
REMARK   10  A    between atoms: N_22  and  C_23 
REMARK       I    between atoms: C_26  and  N_28 
ROOT
HETATM    1  C   UNK N   1      30.609  14.803   5.460  0.00  0.00     0.062 A 
HETATM    2  C   UNK N   1      30.735  15.957   6.236  0.00  0.00     0.071 A 
HETATM    3  C   UNK N   1      29.681  16.883   6.282  0.00  0.00     0.107 A 
HETATM    4  C   UNK N   1      29.477  14.528   4.707  0.00  0.00     0.039 A 
HETATM    5  C   UNK N   1      28.426  15.475   4.725  0.00  0.00    -0.014 A 
HETATM    6  C   UNK N   1      28.512  16.650   5.532  0.00  0.00     0.059 A 
HETATM    7  C   UNK N   1      27.304  17.544   5.605  0.00  0.00     0.194 C 
HETATM    8  C   UNK N   1      27.174  15.253   3.940  0.00  0.00     0.051 C 
HETATM    9  C   UNK N   1      26.030  15.471   4.886  0.00  0.00     0.030 C 
HETATM   10  C   UNK N   1      25.989  16.962   5.169  0.00  0.00     0.030 C 
HETATM   11  C   UNK N   1      24.842  17.675   4.997  0.00  0.00     0.096 C 
HETATM   12  C   UNK N   1      24.787  14.842   4.319  0.00  0.00     0.021 C 
HETATM   13  C   UNK N   1      23.922  15.828   3.570  0.00  0.00     0.075 C 
HETATM   14  C   UNK N   1      23.554  16.964   4.536  0.00  0.00     0.177 C 
HETATM   15  C   UNK N   1      22.532  17.847   3.841  0.00  0.00     0.208 C 
HETATM   16  C   UNK N   1      21.420  17.221   3.046  0.00  0.00     0.112 C 
HETATM   17  C   UNK N   1      21.502  15.901   2.695  0.00  0.00     0.096 C 
HETATM   18  C   UNK N   1      22.687  15.038   3.121  0.00  0.00     0.286 C 
HETATM   19  O   UNK N   1      27.382  18.686   6.041  0.00  0.00    -0.287 OA
HETATM   20  O   UNK N   1      22.604  19.063   3.935  0.00  0.00    -0.288 OA
HETATM   21  O   UNK N   1      22.934  16.409   5.664  0.00  0.00    -0.374 OA
HETATM   22  H   UNK N   1      22.555  16.158   6.520  0.00  0.00     0.211 HD
ENDROOT
BRANCH  11  23
HETATM   23  O   UNK N   1      24.841  19.006   5.226  0.00  0.00    -0.361 OA
HETATM   24  H   UNK N   1      24.432  19.610   4.637  0.00  0.00     0.217 HD
ENDBRANCH  11  23
BRANCH  18  25
HETATM   25  N   UNK N   1      23.066  13.920   2.226  0.00  0.00     0.091 N 
HETATM   26  C   UNK N   1      22.228  12.745   2.407  0.00  0.00     0.310 C 
HETATM   27  C   UNK N   1      23.076  14.296   0.820  0.00  0.00     0.310 C 
ENDBRANCH  18  25
BRANCH  16  28
HETATM   28  C   UNK N   1      20.233  18.064   2.659  0.00  0.00     0.255 C 
HETATM   29  O   UNK N   1      19.160  17.901   3.217  0.00  0.00    -0.268 OA
HETATM   30  N   UNK N   1      20.313  18.975   1.666  0.00  0.00    -0.366 N 
HETATM   31  H   UNK N   1      19.502  19.435   1.350  0.00  0.00     0.159 HD
HETATM   32  H   UNK N   1      21.184  19.180   1.258  0.00  0.00     0.159 HD
ENDBRANCH  16  28
BRANCH  17  33
HETATM   33  O   UNK N   1      20.504  15.319   1.998  0.00  0.00    -0.362 OA
HETATM   34  H   UNK N   1      19.614  15.434   2.268  0.00  0.00     0.217 HD
ENDBRANCH  17  33
BRANCH   3  35
HETATM   35  O   UNK N   1      29.782  17.969   7.077  0.00  0.00    -0.357 OA
HETATM   36  H   UNK N   1      29.434  18.797   6.809  0.00  0.00     0.217 HD
ENDBRANCH   3  35
BRANCH   4  37
HETATM   37  N   UNK N   1      29.419  13.275   3.990  0.00  0.00    -0.389 N 
HETATM   38  C   UNK N   1      28.900  12.059   4.563  0.00  0.00     0.149 C 
HETATM   39  C   UNK N   1      30.020  13.166   2.683  0.00  0.00     0.149 C 
ENDBRANCH   4  37
BRANCH   2  40
HETATM   40  N   UNK N   1      31.880  16.118   7.056  0.00  0.00    -0.323 N 
HETATM   41  C   UNK N   1      32.982  16.826   6.689  0.00  0.00     0.239 C 
HETATM   42  O   UNK N   1      32.964  17.562   5.710  0.00  0.00    -0.271 OA
HETATM   43  H   UNK N   1      31.879  15.690   7.943  0.00  0.00     0.169 HD
BRANCH  41  44
HETATM   44  C   UNK N   1      34.225  16.704   7.490  0.00  0.00     0.218 C 
BRANCH  44  45
HETATM   45  N   UNK N   1      33.969  16.942   8.908  0.00  0.00    -0.406 N 
HETATM   46  H   UNK N   1      33.472  17.754   9.273  0.00  0.00     0.154 HD
BRANCH  45  47
HETATM   47  C   UNK N   1      34.518  15.864   9.744  0.00  0.00     0.015 C 
HETATM   48  C   UNK N   1      35.462  15.042   8.897  0.00  0.00     0.037 C 
HETATM   49  C   UNK N   1      33.434  14.930  10.274  0.00  0.00     0.037 C 
HETATM   50  C   UNK N   1      35.312  16.438  10.906  0.00  0.00     0.037 C 
ENDBRANCH  45  47
ENDBRANCH  44  45
ENDBRANCH  41  44
ENDBRANCH   2  40
TORSDOF 10
ENDMDL
MODEL 6
REMARK VINA RESULT:      -7.2      2.509      9.950
REMARK  10 active torsions:
REMARK  status: ('A' for Active; 'I' for Inactive)
REMARK    1  A    between atoms: C_2  and  N_19 
REMARK    2  A    between atoms: C_3  and  O_35 
REMARK    3  A    between atoms: C_4  and  N_40 
REMARK    4  A    between atoms: C_11  and  O_33 
REMARK    5  A    between atoms: C_16  and  C_26 
REMARK    6  A    between atoms: C_17  and  O_25 
REMARK    7  A    between atoms: C_18  and  N_29 
REMARK       I    between atoms: N_19  and  C_20 
REMARK    8  A    between atoms: C_20  and  C_21 
REMARK    9  A    between atoms: C_21  and  N_22 
REMARK   10  A    between atoms: N_22  and  C_23 
REMARK       I    between atoms: C_26  and  N_28 
ROOT
HETATM    1  C   UNK N   1      25.453  12.836   3.560  0.00  0.00     0.062 A 
HETATM    2  C   UNK N   1      24.641  13.832   4.106  0.00  0.00     0.071 A 
HETATM    3  C   UNK N   1      25.211  14.837   4.902  0.00  0.00     0.107 A 
HETATM    4  C   UNK N   1      26.822  12.782   3.783  0.00  0.00     0.039 A 
HETATM    5  C   UNK N   1      27.395  13.774   4.613  0.00  0.00    -0.014 A 
HETATM    6  C   UNK N   1      26.595  14.823   5.161  0.00  0.00     0.059 A 
HETATM    7  C   UNK N   1      27.294  15.916   5.923  0.00  0.00     0.194 C 
HETATM    8  C   UNK N   1      28.860  13.785   4.902  0.00  0.00     0.051 C 
HETATM    9  C   UNK N   1      29.344  15.177   4.622  0.00  0.00     0.030 C 
HETATM   10  C   UNK N   1      28.777  16.055   5.724  0.00  0.00     0.030 C 
HETATM   11  C   UNK N   1      29.588  16.859   6.464  0.00  0.00     0.096 C 
HETATM   12  C   UNK N   1      30.838  15.163   4.452  0.00  0.00     0.021 C 
HETATM   13  C   UNK N   1      31.575  15.519   5.722  0.00  0.00     0.075 C 
HETATM   14  C   UNK N   1      31.101  16.909   6.170  0.00  0.00     0.177 C 
HETATM   15  C   UNK N   1      31.979  17.343   7.329  0.00  0.00     0.208 C 
HETATM   16  C   UNK N   1      33.462  17.095   7.279  0.00  0.00     0.112 C 
HETATM   17  C   UNK N   1      33.969  16.222   6.357  0.00  0.00     0.096 C 
HETATM   18  C   UNK N   1      33.062  15.514   5.352  0.00  0.00     0.286 C 
HETATM   19  O   UNK N   1      26.673  16.687   6.645  0.00  0.00    -0.287 OA
HETATM   20  O   UNK N   1      31.488  17.904   8.298  0.00  0.00    -0.288 OA
HETATM   21  O   UNK N   1      31.311  17.814   5.120  0.00  0.00    -0.374 OA
HETATM   22  H   UNK N   1      31.340  18.525   4.462  0.00  0.00     0.211 HD
ENDROOT
BRANCH  11  23
HETATM   23  O   UNK N   1      29.063  17.606   7.459  0.00  0.00    -0.361 OA
HETATM   24  H   UNK N   1      29.465  17.659   8.304  0.00  0.00     0.217 HD
ENDBRANCH  11  23
BRANCH  18  25
HETATM   25  N   UNK N   1      33.491  14.177   4.879  0.00  0.00     0.091 N 
HETATM   26  C   UNK N   1      34.536  14.244   3.870  0.00  0.00     0.310 C 
HETATM   27  C   UNK N   1      33.917  13.302   5.961  0.00  0.00     0.310 C 
ENDBRANCH  18  25
BRANCH  16  28
HETATM   28  C   UNK N   1      34.359  17.823   8.247  0.00  0.00     0.255 C 
HETATM   29  O   UNK N   1      35.054  18.748   7.857  0.00  0.00    -0.268 OA
HETATM   30  N   UNK N   1      34.451  17.445   9.539  0.00  0.00    -0.366 N 
HETATM   31  H   UNK N   1      35.123  17.856  10.129  0.00  0.00     0.159 HD
HETATM   32  H   UNK N   1      33.843  16.757   9.893  0.00  0.00     0.159 HD
ENDBRANCH  16  28
BRANCH  17  33
HETATM   33  O   UNK N   1      35.297  16.002   6.285  0.00  0.00    -0.362 OA
HETATM   34  H   UNK N   1      35.748  16.108   5.469  0.00  0.00     0.217 HD
ENDBRANCH  17  33
BRANCH   3  35
HETATM   35  O   UNK N   1      24.433  15.830   5.382  0.00  0.00    -0.357 OA
HETATM   36  H   UNK N   1      23.736  15.650   5.983  0.00  0.00     0.217 HD
ENDBRANCH   3  35
BRANCH   4  37
HETATM   37  N   UNK N   1      27.583  11.749   3.120  0.00  0.00    -0.389 N 
HETATM   38  C   UNK N   1      27.952  10.508   3.753  0.00  0.00     0.149 C 
HETATM   39  C   UNK N   1      28.128  11.988   1.805  0.00  0.00     0.149 C 
ENDBRANCH   4  37
BRANCH   2  40
HETATM   40  N   UNK N   1      23.269  13.877   3.750  0.00  0.00    -0.323 N 
HETATM   41  C   UNK N   1      22.796  14.496   2.634  0.00  0.00     0.239 C 
HETATM   42  O   UNK N   1      23.553  14.863   1.745  0.00  0.00    -0.271 OA
HETATM   43  H   UNK N   1      22.620  13.436   4.345  0.00  0.00     0.169 HD
BRANCH  41  44
HETATM   44  C   UNK N   1      21.336  14.728   2.496  0.00  0.00     0.218 C 
BRANCH  44  45
HETATM   45  N   UNK N   1      21.059  16.038   1.912  0.00  0.00    -0.406 N 
HETATM   46  H   UNK N   1      21.167  16.260   0.923  0.00  0.00     0.154 HD
BRANCH  45  47
HETATM   47  C   UNK N   1      20.608  16.997   2.931  0.00  0.00     0.015 C 
HETATM   48  C   UNK N   1      19.750  18.040   2.253  0.00  0.00     0.037 C 
HETATM   49  C   UNK N   1      21.773  17.719   3.605  0.00  0.00     0.037 C 
HETATM   50  C   UNK N   1      19.758  16.305   3.983  0.00  0.00     0.037 C 
ENDBRANCH  45  47
ENDBRANCH  44  45
ENDBRANCH  41  44
ENDBRANCH   2  40
TORSDOF 10
ENDMDL
MODEL 7
REMARK VINA RESULT:      -7.1     12.790     17.404
REMARK  10 active torsions:
REMARK  status: ('A' for Active; 'I' for Inactive)
REMARK    1  A    between atoms: C_2  and  N_19 
REMARK    2  A    between atoms: C_3  and  O_35 
REMARK    3  A    between atoms: C_4  and  N_40 
REMARK    4  A    between atoms: C_11  and  O_33 
REMARK    5  A    between atoms: C_16  and  C_26 
REMARK    6  A    between atoms: C_17  and  O_25 
REMARK    7  A    between atoms: C_18  and  N_29 
REMARK       I    between atoms: N_19  and  C_20 
REMARK    8  A    between atoms: C_20  and  C_21 
REMARK    9  A    between atoms: C_21  and  N_22 
REMARK   10  A    between atoms: N_22  and  C_23 
REMARK       I    between atoms: C_26  and  N_28 
ROOT
HETATM    1  C   UNK N   1      36.332  11.304  12.609  0.00  0.00     0.062 A 
HETATM    2  C   UNK N   1      36.655  12.625  12.928  0.00  0.00     0.071 A 
HETATM    3  C   UNK N   1      36.429  13.102  14.228  0.00  0.00     0.107 A 
HETATM    4  C   UNK N   1      35.774  10.427  13.529  0.00  0.00     0.039 A 
HETATM    5  C   UNK N   1      35.514  10.915  14.831  0.00  0.00    -0.014 A 
HETATM    6  C   UNK N   1      35.862  12.252  15.196  0.00  0.00     0.059 A 
HETATM    7  C   UNK N   1      35.679  12.659  16.634  0.00  0.00     0.194 C 
HETATM    8  C   UNK N   1      34.914  10.035  15.879  0.00  0.00     0.051 C 
HETATM    9  C   UNK N   1      35.780  10.166  17.097  0.00  0.00     0.030 C 
HETATM   10  C   UNK N   1      35.533  11.559  17.648  0.00  0.00     0.030 C 
HETATM   11  C   UNK N   1      35.180  11.745  18.949  0.00  0.00     0.096 C 
HETATM   12  C   UNK N   1      35.524   9.006  18.019  0.00  0.00     0.021 C 
HETATM   13  C   UNK N   1      34.522   9.328  19.103  0.00  0.00     0.075 C 
HETATM   14  C   UNK N   1      35.054  10.533  19.894  0.00  0.00     0.177 C 
HETATM   15  C   UNK N   1      34.147  10.731  21.095  0.00  0.00     0.208 C 
HETATM   16  C   UNK N   1      33.670   9.539  21.878  0.00  0.00     0.112 C 
HETATM   17  C   UNK N   1      33.791   8.287  21.341  0.00  0.00     0.096 C 
HETATM   18  C   UNK N   1      34.432   8.069  19.972  0.00  0.00     0.286 C 
HETATM   19  O   UNK N   1      35.690  13.837  16.969  0.00  0.00    -0.287 OA
HETATM   20  O   UNK N   1      33.812  11.856  21.435  0.00  0.00    -0.288 OA
HETATM   21  O   UNK N   1      36.332  10.222  20.378  0.00  0.00    -0.374 OA
HETATM   22  H   UNK N   1      37.239  10.165  20.715  0.00  0.00     0.211 HD
ENDROOT
BRANCH  11  23
HETATM   23  O   UNK N   1      34.936  12.993  19.405  0.00  0.00    -0.361 OA
HETATM   24  H   UNK N   1      34.076  13.366  19.389  0.00  0.00     0.217 HD
ENDBRANCH  11  23
BRANCH  18  25
HETATM   25  N   UNK N   1      33.962   6.908  19.181  0.00  0.00     0.091 N 
HETATM   26  C   UNK N   1      34.704   5.691  19.470  0.00  0.00     0.310 C 
HETATM   27  C   UNK N   1      32.536   6.655  19.338  0.00  0.00     0.310 C 
ENDBRANCH  18  25
BRANCH  16  28
HETATM   28  C   UNK N   1      33.072   9.752  23.245  0.00  0.00     0.255 C 
HETATM   29  O   UNK N   1      31.951   9.339  23.492  0.00  0.00    -0.268 OA
HETATM   30  N   UNK N   1      33.733  10.437  24.201  0.00  0.00    -0.366 N 
HETATM   31  H   UNK N   1      33.285  10.665  25.047  0.00  0.00     0.159 HD
HETATM   32  H   UNK N   1      34.667  10.709  24.052  0.00  0.00     0.159 HD
ENDBRANCH  16  28
BRANCH  17  33
HETATM   33  O   UNK N   1      33.387   7.205  22.037  0.00  0.00    -0.362 OA
HETATM   34  H   UNK N   1      32.488   7.120  22.292  0.00  0.00     0.217 HD
ENDBRANCH  17  33
BRANCH   3  35
HETATM   35  O   UNK N   1      36.795  14.361  14.549  0.00  0.00    -0.357 OA
HETATM   36  H   UNK N   1      37.679  14.561  14.787  0.00  0.00     0.217 HD
ENDBRANCH   3  35
BRANCH   4  37
HETATM   37  N   UNK N   1      35.536   9.064  13.118  0.00  0.00    -0.389 N 
HETATM   38  C   UNK N   1      36.320   7.948  13.586  0.00  0.00     0.149 C 
HETATM   39  C   UNK N   1      34.562   8.780  12.092  0.00  0.00     0.149 C 
ENDBRANCH   4  37
BRANCH   2  40
HETATM   40  N   UNK N   1      37.314  13.427  11.963  0.00  0.00    -0.323 N 
HETATM   41  C   UNK N   1      36.671  14.107  10.976  0.00  0.00     0.239 C 
HETATM   42  O   UNK N   1      35.455  14.250  10.994  0.00  0.00    -0.271 OA
HETATM   43  H   UNK N   1      38.296  13.496  12.009  0.00  0.00     0.169 HD
BRANCH  41  44
HETATM   44  C   UNK N   1      37.459  14.686   9.859  0.00  0.00     0.218 C 
BRANCH  44  45
HETATM   45  N   UNK N   1      38.688  13.930   9.629  0.00  0.00    -0.406 N 
HETATM   46  H   UNK N   1      39.529  14.015  10.200  0.00  0.00     0.154 HD
BRANCH  45  47
HETATM   47  C   UNK N   1      38.562  13.035   8.470  0.00  0.00     0.015 C 
HETATM   48  C   UNK N   1      39.843  13.109   7.672  0.00  0.00     0.037 C 
HETATM   49  C   UNK N   1      37.414  13.436   7.547  0.00  0.00     0.037 C 
HETATM   50  C   UNK N   1      38.376  11.595   8.921  0.00  0.00     0.037 C 
ENDBRANCH  45  47
ENDBRANCH  44  45
ENDBRANCH  41  44
ENDBRANCH   2  40
TORSDOF 10
ENDMDL
MODEL 8
REMARK VINA RESULT:      -7.1      1.530      2.174
REMARK  10 active torsions:
REMARK  status: ('A' for Active; 'I' for Inactive)
REMARK    1  A    between atoms: C_2  and  N_19 
REMARK    2  A    between atoms: C_3  and  O_35 
REMARK    3  A    between atoms: C_4  and  N_40 
REMARK    4  A    between atoms: C_11  and  O_33 
REMARK    5  A    between atoms: C_16  and  C_26 
REMARK    6  A    between atoms: C_17  and  O_25 
REMARK    7  A    between atoms: C_18  and  N_29 
REMARK       I    between atoms: N_19  and  C_20 
REMARK    8  A    between atoms: C_20  and  C_21 
REMARK    9  A    between atoms: C_21  and  N_22 
REMARK   10  A    between atoms: N_22  and  C_23 
REMARK       I    between atoms: C_26  and  N_28 
ROOT
HETATM    1  C   UNK N   1      30.073  14.222   4.394  0.00  0.00     0.062 A 
HETATM    2  C   UNK N   1      30.715  15.408   4.759  0.00  0.00     0.071 A 
HETATM    3  C   UNK N   1      30.004  16.617   4.745  0.00  0.00     0.107 A 
HETATM    4  C   UNK N   1      28.745  14.183   3.996  0.00  0.00     0.039 A 
HETATM    5  C   UNK N   1      28.034  15.405   3.949  0.00  0.00    -0.014 A 
HETATM    6  C   UNK N   1      28.654  16.630   4.345  0.00  0.00     0.059 A 
HETATM    7  C   UNK N   1      27.799  17.867   4.396  0.00  0.00     0.194 C 
HETATM    8  C   UNK N   1      26.601  15.448   3.530  0.00  0.00     0.051 C 
HETATM    9  C   UNK N   1      25.869  16.230   4.581  0.00  0.00     0.030 C 
HETATM   10  C   UNK N   1      26.309  17.675   4.421  0.00  0.00     0.030 C 
HETATM   11  C   UNK N   1      25.394  18.673   4.283  0.00  0.00     0.096 C 
HETATM   12  C   UNK N   1      24.396  15.944   4.483  0.00  0.00     0.021 C 
HETATM   13  C   UNK N   1      23.652  16.976   3.669  0.00  0.00     0.075 C 
HETATM   14  C   UNK N   1      23.887  18.348   4.316  0.00  0.00     0.177 C 
HETATM   15  C   UNK N   1      22.986  19.349   3.615  0.00  0.00     0.208 C 
HETATM   16  C   UNK N   1      21.571  18.972   3.276  0.00  0.00     0.112 C 
HETATM   17  C   UNK N   1      21.195  17.657   3.314  0.00  0.00     0.096 C 
HETATM   18  C   UNK N   1      22.177  16.562   3.726  0.00  0.00     0.286 C 
HETATM   19  O   UNK N   1      28.299  18.985   4.456  0.00  0.00    -0.287 OA
HETATM   20  O   UNK N   1      23.404  20.463   3.335  0.00  0.00    -0.288 OA
HETATM   21  O   UNK N   1      23.485  18.286   5.657  0.00  0.00    -0.374 OA
HETATM   22  H   UNK N   1      23.307  18.364   6.607  0.00  0.00     0.211 HD
ENDROOT
BRANCH  11  23
HETATM   23  O   UNK N   1      25.813  19.946   4.110  0.00  0.00    -0.361 OA
HETATM   24  H   UNK N   1      25.247  20.612   3.771  0.00  0.00     0.217 HD
ENDBRANCH  11  23
BRANCH  18  25
HETATM   25  N   UNK N   1      21.976  15.218   3.138  0.00  0.00     0.091 N 
HETATM   26  C   UNK N   1      20.977  14.435   3.849  0.00  0.00     0.310 C 
HETATM   27  C   UNK N   1      21.640  15.261   1.722  0.00  0.00     0.310 C 
ENDBRANCH  18  25
BRANCH  16  28
HETATM   28  C   UNK N   1      20.593  20.057   2.906  0.00  0.00     0.255 C 
HETATM   29  O   UNK N   1      20.169  20.815   3.764  0.00  0.00    -0.268 OA
HETATM   30  N   UNK N   1      20.131  20.186   1.645  0.00  0.00    -0.366 N 
HETATM   31  H   UNK N   1      19.410  20.825   1.445  0.00  0.00     0.159 HD
HETATM   32  H   UNK N   1      20.517  19.641   0.923  0.00  0.00     0.159 HD
ENDBRANCH  16  28
BRANCH  17  33
HETATM   33  O   UNK N   1      19.925  17.303   3.032  0.00  0.00    -0.362 OA
HETATM   34  H   UNK N   1      19.261  17.961   2.949  0.00  0.00     0.217 HD
ENDBRANCH  17  33
BRANCH   3  35
HETATM   35  O   UNK N   1      30.610  17.752   5.152  0.00  0.00    -0.357 OA
HETATM   36  H   UNK N   1      31.494  17.943   4.906  0.00  0.00     0.217 HD
ENDBRANCH   3  35
BRANCH   4  37
HETATM   37  N   UNK N   1      28.156  12.898   3.701  0.00  0.00    -0.389 N 
HETATM   38  C   UNK N   1      27.567  12.048   4.706  0.00  0.00     0.149 C 
HETATM   39  C   UNK N   1      28.260  12.346   2.372  0.00  0.00     0.149 C 
ENDBRANCH   4  37
BRANCH   2  40
HETATM   40  N   UNK N   1      32.044  15.351   5.250  0.00  0.00    -0.323 N 
HETATM   41  C   UNK N   1      33.136  15.714   4.525  0.00  0.00     0.239 C 
HETATM   42  O   UNK N   1      33.021  16.328   3.472  0.00  0.00    -0.271 OA
HETATM   43  H   UNK N   1      32.185  15.030   6.171  0.00  0.00     0.169 HD
BRANCH  41  44
HETATM   44  C   UNK N   1      34.490  15.359   5.020  0.00  0.00     0.218 C 
BRANCH  44  45
HETATM   45  N   UNK N   1      35.013  14.179   4.337  0.00  0.00    -0.406 N 
HETATM   46  H   UNK N   1      34.866  13.976   3.348  0.00  0.00     0.154 HD
BRANCH  45  47
HETATM   47  C   UNK N   1      35.775  13.318   5.253  0.00  0.00     0.015 C 
HETATM   48  C   UNK N   1      34.854  12.232   5.759  0.00  0.00     0.037 C 
HETATM   49  C   UNK N   1      36.304  14.082   6.464  0.00  0.00     0.037 C 
HETATM   50  C   UNK N   1      36.930  12.650   4.526  0.00  0.00     0.037 C 
ENDBRANCH  45  47
ENDBRANCH  44  45
ENDBRANCH  41  44
ENDBRANCH   2  40
TORSDOF 10
ENDMDL
MODEL 9
REMARK VINA RESULT:      -7.1     10.618     17.080
REMARK  10 active torsions:
REMARK  status: ('A' for Active; 'I' for Inactive)
REMARK    1  A    between atoms: C_2  and  N_19 
REMARK    2  A    between atoms: C_3  and  O_35 
REMARK    3  A    between atoms: C_4  and  N_40 
REMARK    4  A    between atoms: C_11  and  O_33 
REMARK    5  A    between atoms: C_16  and  C_26 
REMARK    6  A    between atoms: C_17  and  O_25 
REMARK    7  A    between atoms: C_18  and  N_29 
REMARK       I    between atoms: N_19  and  C_20 
REMARK    8  A    between atoms: C_20  and  C_21 
REMARK    9  A    between atoms: C_21  and  N_22 
REMARK   10  A    between atoms: N_22  and  C_23 
REMARK       I    between atoms: C_26  and  N_28 
ROOT
HETATM    1  C   UNK N   1      35.240  11.461  11.909  0.00  0.00     0.062 A 
HETATM    2  C   UNK N   1      35.485  12.790  12.261  0.00  0.00     0.071 A 
HETATM    3  C   UNK N   1      35.463  13.168  13.612  0.00  0.00     0.107 A 
HETATM    4  C   UNK N   1      34.956  10.479  12.847  0.00  0.00     0.039 A 
HETATM    5  C   UNK N   1      34.900  10.863  14.208  0.00  0.00    -0.014 A 
HETATM    6  C   UNK N   1      35.176  12.208  14.602  0.00  0.00     0.059 A 
HETATM    7  C   UNK N   1      35.229  12.513  16.075  0.00  0.00     0.194 C 
HETATM    8  C   UNK N   1      34.600   9.866  15.279  0.00  0.00     0.051 C 
HETATM    9  C   UNK N   1      35.663  10.026  16.326  0.00  0.00     0.030 C 
HETATM   10  C   UNK N   1      35.389  11.351  17.014  0.00  0.00     0.030 C 
HETATM   11  C   UNK N   1      35.272  11.425  18.368  0.00  0.00     0.096 C 
HETATM   12  C   UNK N   1      35.704   8.796  17.190  0.00  0.00     0.021 C 
HETATM   13  C   UNK N   1      34.898   8.946  18.459  0.00  0.00     0.075 C 
HETATM   14  C   UNK N   1      35.448  10.157  19.227  0.00  0.00     0.177 C 
HETATM   15  C   UNK N   1      34.769  10.187  20.585  0.00  0.00     0.208 C 
HETATM   16  C   UNK N   1      34.570   8.909  21.351  0.00  0.00     0.112 C 
HETATM   17  C   UNK N   1      34.711   7.709  20.709  0.00  0.00     0.096 C 
HETATM   18  C   UNK N   1      35.100   7.639  19.234  0.00  0.00     0.286 C 
HETATM   19  O   UNK N   1      35.187  13.666  16.488  0.00  0.00    -0.287 OA
HETATM   20  O   UNK N   1      34.395  11.248  21.063  0.00  0.00    -0.288 OA
HETATM   21  O   UNK N   1      36.819   9.964  19.445  0.00  0.00    -0.374 OA
HETATM   22  H   UNK N   1      37.774   9.991  19.606  0.00  0.00     0.211 HD
ENDROOT
BRANCH  11  23
HETATM   23  O   UNK N   1      34.996  12.611  18.952  0.00  0.00    -0.361 OA
HETATM   24  H   UNK N   1      34.769  12.675  19.860  0.00  0.00     0.217 HD
ENDBRANCH  11  23
BRANCH  18  25
HETATM   25  N   UNK N   1      34.605   6.477  18.459  0.00  0.00     0.091 N 
HETATM   26  C   UNK N   1      35.498   5.331  18.529  0.00  0.00     0.310 C 
HETATM   27  C   UNK N   1      33.262   6.069  18.842  0.00  0.00     0.310 C 
ENDBRANCH  18  25
BRANCH  16  28
HETATM   28  C   UNK N   1      34.224   8.979  22.816  0.00  0.00     0.255 C 
HETATM   29  O   UNK N   1      33.220   8.424  23.233  0.00  0.00    -0.268 OA
HETATM   30  N   UNK N   1      34.978   9.687  23.682  0.00  0.00    -0.366 N 
HETATM   31  H   UNK N   1      34.677   9.817  24.610  0.00  0.00     0.159 HD
HETATM   32  H   UNK N   1      35.832  10.075  23.384  0.00  0.00     0.159 HD
ENDBRANCH  16  28
BRANCH  17  33
HETATM   33  O   UNK N   1      34.555   6.552  21.385  0.00  0.00    -0.362 OA
HETATM   34  H   UNK N   1      34.639   6.539  22.319  0.00  0.00     0.217 HD
ENDBRANCH  17  33
BRANCH   3  35
HETATM   35  O   UNK N   1      35.756  14.440  13.953  0.00  0.00    -0.357 OA
HETATM   36  H   UNK N   1      36.531  14.860  13.635  0.00  0.00     0.217 HD
ENDBRANCH   3  35
BRANCH   4  37
HETATM   37  N   UNK N   1      34.781   9.121  12.386  0.00  0.00    -0.389 N 
HETATM   38  C   UNK N   1      35.623   8.029  12.806  0.00  0.00     0.149 C 
HETATM   39  C   UNK N   1      33.813   8.829  11.358  0.00  0.00     0.149 C 
ENDBRANCH   4  37
BRANCH   2  40
HETATM   40  N   UNK N   1      35.866  13.712  11.254  0.00  0.00    -0.323 N 
HETATM   41  C   UNK N   1      35.041  14.670  10.751  0.00  0.00     0.239 C 
HETATM   42  O   UNK N   1      33.981  14.943  11.299  0.00  0.00    -0.271 OA
HETATM   43  H   UNK N   1      36.782  13.656  10.896  0.00  0.00     0.169 HD
BRANCH  41  44
HETATM   44  C   UNK N   1      35.436  15.396   9.518  0.00  0.00     0.218 C 
BRANCH  44  45
HETATM   45  N   UNK N   1      34.938  16.769   9.528  0.00  0.00    -0.406 N 
HETATM   46  H   UNK N   1      35.126  17.443  10.270  0.00  0.00     0.154 HD
BRANCH  45  47
HETATM   47  C   UNK N   1      34.128  17.057   8.335  0.00  0.00     0.015 C 
HETATM   48  C   UNK N   1      34.365  18.496   7.937  0.00  0.00     0.037 C 
HETATM   49  C   UNK N   1      32.633  16.885   8.592  0.00  0.00     0.037 C 
HETATM   50  C   UNK N   1      34.551  16.175   7.172  0.00  0.00     0.037 C 
ENDBRANCH  45  47
ENDBRANCH  44  45
ENDBRANCH  41  44
ENDBRANCH   2  40
TORSDOF 10
ENDMDL
