MODEL 1
REMARK VINA RESULT:      -5.9      0.000      0.000
REMARK  8 active torsions:
REMARK  status: ('A' for Active; 'I' for Inactive)
REMARK    1  A    between atoms: C_7  and  C_8 
REMARK    2  A    between atoms: C_8  and  C_9 
REMARK    3  A    between atoms: C_8  and  C_18 
REMARK    4  A    between atoms: C_8  and  C_20 
REMARK    5  A    between atoms: C_9  and  C_10 
REMARK    6  A    between atoms: C_10  and  N_11 
REMARK    7  A    between atoms: N_11  and  C_12 
REMARK    8  A    between atoms: N_11  and  C_15 
REMARK       I    between atoms: C_18  and  N_19 
ROOT
HETATM    1  C   UNK N   1      29.616  23.464  -3.803  0.00  0.00     0.111 C 
ENDROOT
BRANCH   1   2
HETATM    2  C   UNK N   1      30.055  22.251  -4.623  0.00  0.00     0.031 A 
HETATM    3  N   UNK N   1      31.064  21.439  -4.184  0.00  0.00    -0.368 N 
HETATM    4  C   UNK N   1      31.505  20.379  -4.913  0.00  0.00     0.088 A 
ATOM      5  HN  UNK N   1      31.498  21.634  -3.283  1.00  0.00     0.165 HD
HETATM    6  C   UNK N   1      30.933  20.094  -6.152  0.00  0.00     0.017 A 
HETATM    7  C   UNK N   1      29.902  20.902  -6.629  0.00  0.00     0.003 A 
HETATM    8  C   UNK N   1      29.459  21.983  -5.868  0.00  0.00     0.026 A 
ENDBRANCH   1   2
BRANCH   1   9
HETATM    9  C   UNK N   1      28.151  23.806  -4.212  0.00  0.00     0.061 C 
BRANCH   9  10
HETATM   10  C   UNK N   1      27.855  24.940  -5.223  0.00  0.00     0.275 C 
BRANCH  10  11
HETATM   11  N   UNK N   1      26.911  25.969  -4.752  0.00  0.00     0.096 N 
BRANCH  11  12
HETATM   12  C   UNK N   1      25.631  25.735  -5.462  0.00  0.00     0.215 C 
HETATM   13  C   UNK N   1      25.828  25.082  -6.824  0.00  0.00     0.042 C 
HETATM   14  C   UNK N   1      24.843  27.018  -5.696  0.00  0.00     0.042 C 
ENDBRANCH  11  12
BRANCH  11  15
HETATM   15  C   UNK N   1      27.354  27.343  -5.098  0.00  0.00     0.215 C 
HETATM   16  C   UNK N   1      28.515  27.448  -6.084  0.00  0.00     0.042 C 
HETATM   17  C   UNK N   1      27.722  28.102  -3.833  0.00  0.00     0.042 C 
ENDBRANCH  11  15
ENDBRANCH  10  11
ENDBRANCH   9  10
ENDBRANCH   1   9
BRANCH   1  18
HETATM   18  C   UNK N   1      29.676  23.135  -2.309  0.00  0.00     0.234 C 
HETATM   19  N   UNK N   1      28.553  23.026  -1.571  0.00  0.00    -0.369 N 
HETATM   20  H   UNK N   1      27.723  23.404  -1.201  0.00  0.00     0.159 HD
HETATM   21  H   UNK N   1      28.573  22.103  -1.231  0.00  0.00     0.159 HD
HETATM   22  O   UNK N   1      30.761  22.959  -1.772  0.00  0.00    -0.272 OA
ENDBRANCH   1  18
BRANCH   1  23
HETATM   23  C   UNK N   1      30.577  24.599  -4.179  0.00  0.00    -0.034 A 
HETATM   24  C   UNK N   1      30.536  25.816  -3.472  0.00  0.00     0.009 A 
HETATM   25  C   UNK N   1      31.450  26.835  -3.754  0.00  0.00     0.001 A 
HETATM   26  C   UNK N   1      32.421  26.651  -4.741  0.00  0.00     0.000 A 
HETATM   27  C   UNK N   1      32.477  25.449  -5.447  0.00  0.00     0.001 A 
HETATM   28  C   UNK N   1      31.567  24.428  -5.162  0.00  0.00     0.009 A 
ENDBRANCH   1  23
TORSDOF 8
ENDMDL
MODEL 2
REMARK VINA RESULT:      -5.9      1.332      2.255
REMARK  8 active torsions:
REMARK  status: ('A' for Active; 'I' for Inactive)
REMARK    1  A    between atoms: C_7  and  C_8 
REMARK    2  A    between atoms: C_8  and  C_9 
REMARK    3  A    between atoms: C_8  and  C_18 
REMARK    4  A    between atoms: C_8  and  C_20 
REMARK    5  A    between atoms: C_9  and  C_10 
REMARK    6  A    between atoms: C_10  and  N_11 
REMARK    7  A    between atoms: N_11  and  C_12 
REMARK    8  A    between atoms: N_11  and  C_15 
REMARK       I    between atoms: C_18  and  N_19 
ROOT
HETATM    1  C   UNK N   1      30.326  23.062  -3.728  0.00  0.00     0.111 C 
ENDROOT
BRANCH   1   2
HETATM    2  C   UNK N   1      31.353  21.935  -3.853  0.00  0.00     0.031 A 
HETATM    3  N   UNK N   1      32.428  21.875  -3.011  0.00  0.00    -0.368 N 
HETATM    4  C   UNK N   1      33.381  20.911  -3.125  0.00  0.00     0.088 A 
ATOM      5  HN  UNK N   1      32.519  22.574  -2.274  1.00  0.00     0.165 HD
HETATM    6  C   UNK N   1      33.284  19.947  -4.128  0.00  0.00     0.017 A 
HETATM    7  C   UNK N   1      32.200  19.979  -5.003  0.00  0.00     0.003 A 
HETATM    8  C   UNK N   1      31.230  20.973  -4.870  0.00  0.00     0.026 A 
ENDBRANCH   1   2
BRANCH   1   9
HETATM    9  C   UNK N   1      29.203  22.795  -4.777  0.00  0.00     0.061 C 
BRANCH   9  10
HETATM   10  C   UNK N   1      28.441  23.970  -5.438  0.00  0.00     0.275 C 
BRANCH  10  11
HETATM   11  N   UNK N   1      26.973  23.900  -5.336  0.00  0.00     0.096 N 
BRANCH  11  12
HETATM   12  C   UNK N   1      26.451  23.803  -6.720  0.00  0.00     0.215 C 
HETATM   13  C   UNK N   1      25.802  22.455  -7.008  0.00  0.00     0.042 C 
HETATM   14  C   UNK N   1      27.532  24.008  -7.774  0.00  0.00     0.042 C 
ENDBRANCH  11  12
BRANCH  11  15
HETATM   15  C   UNK N   1      26.389  25.126  -4.738  0.00  0.00     0.215 C 
HETATM   16  C   UNK N   1      25.295  25.816  -5.549  0.00  0.00     0.042 C 
HETATM   17  C   UNK N   1      27.489  26.136  -4.449  0.00  0.00     0.042 C 
ENDBRANCH  11  15
ENDBRANCH  10  11
ENDBRANCH   9  10
ENDBRANCH   1   9
BRANCH   1  18
HETATM   18  C   UNK N   1      29.730  23.073  -2.319  0.00  0.00     0.234 C 
HETATM   19  N   UNK N   1      28.398  23.154  -2.124  0.00  0.00    -0.369 N 
HETATM   20  H   UNK N   1      27.538  23.623  -2.223  0.00  0.00     0.159 HD
HETATM   21  H   UNK N   1      28.172  22.330  -1.635  0.00  0.00     0.159 HD
HETATM   22  O   UNK N   1      30.471  22.999  -1.348  0.00  0.00    -0.272 OA
ENDBRANCH   1  18
BRANCH   1  23
HETATM   23  C   UNK N   1      31.083  24.359  -4.042  0.00  0.00    -0.034 A 
HETATM   24  C   UNK N   1      32.068  24.369  -5.048  0.00  0.00     0.009 A 
HETATM   25  C   UNK N   1      32.718  25.557  -5.396  0.00  0.00     0.001 A 
HETATM   26  C   UNK N   1      32.388  26.750  -4.749  0.00  0.00     0.000 A 
HETATM   27  C   UNK N   1      31.411  26.756  -3.754  0.00  0.00     0.001 A 
HETATM   28  C   UNK N   1      30.758  25.570  -3.409  0.00  0.00     0.009 A 
ENDBRANCH   1  23
TORSDOF 8
ENDMDL
MODEL 3
REMARK VINA RESULT:      -5.9      3.192      5.698
REMARK  8 active torsions:
REMARK  status: ('A' for Active; 'I' for Inactive)
REMARK    1  A    between atoms: C_7  and  C_8 
REMARK    2  A    between atoms: C_8  and  C_9 
REMARK    3  A    between atoms: C_8  and  C_18 
REMARK    4  A    between atoms: C_8  and  C_20 
REMARK    5  A    between atoms: C_9  and  C_10 
REMARK    6  A    between atoms: C_10  and  N_11 
REMARK    7  A    between atoms: N_11  and  C_12 
REMARK    8  A    between atoms: N_11  and  C_15 
REMARK       I    between atoms: C_18  and  N_19 
ROOT
HETATM    1  C   UNK N   1      26.173  22.860  -7.294  0.00  0.00     0.111 C 
ENDROOT
BRANCH   1   2
HETATM    2  C   UNK N   1      26.444  24.096  -8.152  0.00  0.00     0.031 A 
HETATM    3  N   UNK N   1      25.438  24.685  -8.866  0.00  0.00    -0.368 N 
HETATM    4  C   UNK N   1      25.657  25.757  -9.673  0.00  0.00     0.088 A 
ATOM      5  HN  UNK N   1      24.493  24.308  -8.791  1.00  0.00     0.165 HD
HETATM    6  C   UNK N   1      26.941  26.287  -9.799  0.00  0.00     0.017 A 
HETATM    7  C   UNK N   1      27.990  25.711  -9.085  0.00  0.00     0.003 A 
HETATM    8  C   UNK N   1      27.747  24.613  -8.259  0.00  0.00     0.026 A 
ENDBRANCH   1   2
BRANCH   1   9
HETATM    9  C   UNK N   1      25.843  23.351  -5.851  0.00  0.00     0.061 C 
BRANCH   9  10
HETATM   10  C   UNK N   1      25.506  24.837  -5.577  0.00  0.00     0.275 C 
BRANCH  10  11
HETATM   11  N   UNK N   1      26.194  25.432  -4.418  0.00  0.00     0.096 N 
BRANCH  11  12
HETATM   12  C   UNK N   1      26.409  26.864  -4.734  0.00  0.00     0.215 C 
HETATM   13  C   UNK N   1      25.648  27.791  -3.796  0.00  0.00     0.042 C 
HETATM   14  C   UNK N   1      25.986  27.225  -6.153  0.00  0.00     0.042 C 
ENDBRANCH  11  12
BRANCH  11  15
HETATM   15  C   UNK N   1      27.533  24.833  -4.187  0.00  0.00     0.215 C 
HETATM   16  C   UNK N   1      27.685  23.992  -2.923  0.00  0.00     0.042 C 
HETATM   17  C   UNK N   1      28.592  25.924  -4.175  0.00  0.00     0.042 C 
ENDBRANCH  11  15
ENDBRANCH  10  11
ENDBRANCH   9  10
ENDBRANCH   1   9
BRANCH   1  18
HETATM   18  C   UNK N   1      24.987  22.078  -7.862  0.00  0.00     0.234 C 
HETATM   19  N   UNK N   1      24.058  21.531  -7.053  0.00  0.00    -0.369 N 
HETATM   20  H   UNK N   1      23.797  20.916  -6.329  0.00  0.00     0.159 HD
HETATM   21  H   UNK N   1      23.216  21.963  -7.321  0.00  0.00     0.159 HD
HETATM   22  O   UNK N   1      24.871  21.951  -9.073  0.00  0.00    -0.272 OA
ENDBRANCH   1  18
BRANCH   1  23
HETATM   23  C   UNK N   1      27.468  22.037  -7.317  0.00  0.00    -0.034 A 
HETATM   24  C   UNK N   1      28.481  22.298  -6.374  0.00  0.00     0.009 A 
HETATM   25  C   UNK N   1      29.636  21.513  -6.334  0.00  0.00     0.001 A 
HETATM   26  C   UNK N   1      29.794  20.454  -7.231  0.00  0.00     0.000 A 
HETATM   27  C   UNK N   1      28.797  20.181  -8.168  0.00  0.00     0.001 A 
HETATM   28  C   UNK N   1      27.639  20.962  -8.204  0.00  0.00     0.009 A 
ENDBRANCH   1  23
TORSDOF 8
ENDMDL
MODEL 4
REMARK VINA RESULT:      -5.8      1.915      3.766
REMARK  8 active torsions:
REMARK  status: ('A' for Active; 'I' for Inactive)
REMARK    1  A    between atoms: C_7  and  C_8 
REMARK    2  A    between atoms: C_8  and  C_9 
REMARK    3  A    between atoms: C_8  and  C_18 
REMARK    4  A    between atoms: C_8  and  C_20 
REMARK    5  A    between atoms: C_9  and  C_10 
REMARK    6  A    between atoms: C_10  and  N_11 
REMARK    7  A    between atoms: N_11  and  C_12 
REMARK    8  A    between atoms: N_11  and  C_15 
REMARK       I    between atoms: C_18  and  N_19 
ROOT
HETATM    1  C   UNK N   1      28.464  24.425  -4.245  0.00  0.00     0.111 C 
ENDROOT
BRANCH   1   2
HETATM    2  C   UNK N   1      27.607  24.196  -5.491  0.00  0.00     0.031 A 
HETATM    3  N   UNK N   1      26.485  23.418  -5.433  0.00  0.00    -0.368 N 
HETATM    4  C   UNK N   1      25.728  23.160  -6.533  0.00  0.00     0.088 A 
ATOM      5  HN  UNK N   1      26.207  23.017  -4.537  1.00  0.00     0.165 HD
HETATM    6  C   UNK N   1      26.090  23.689  -7.771  0.00  0.00     0.017 A 
HETATM    7  C   UNK N   1      27.228  24.488  -7.865  0.00  0.00     0.003 A 
HETATM    8  C   UNK N   1      27.992  24.745  -6.727  0.00  0.00     0.026 A 
ENDBRANCH   1   2
BRANCH   1   9
HETATM    9  C   UNK N   1      28.649  25.964  -4.075  0.00  0.00     0.061 C 
BRANCH   9  10
HETATM   10  C   UNK N   1      27.440  26.876  -3.753  0.00  0.00     0.275 C 
BRANCH  10  11
HETATM   11  N   UNK N   1      27.517  28.237  -4.313  0.00  0.00     0.096 N 
BRANCH  11  12
HETATM   12  C   UNK N   1      26.944  29.152  -3.296  0.00  0.00     0.215 C 
HETATM   13  C   UNK N   1      26.533  30.496  -3.883  0.00  0.00     0.042 C 
HETATM   14  C   UNK N   1      27.911  29.445  -2.155  0.00  0.00     0.042 C 
ENDBRANCH  11  12
BRANCH  11  15
HETATM   15  C   UNK N   1      26.701  28.390  -5.542  0.00  0.00     0.215 C 
HETATM   16  C   UNK N   1      25.589  27.364  -5.743  0.00  0.00     0.042 C 
HETATM   17  C   UNK N   1      27.601  28.374  -6.767  0.00  0.00     0.042 C 
ENDBRANCH  11  15
ENDBRANCH  10  11
ENDBRANCH   9  10
ENDBRANCH   1   9
BRANCH   1  18
HETATM   18  C   UNK N   1      27.763  23.845  -3.014  0.00  0.00     0.234 C 
HETATM   19  N   UNK N   1      28.450  23.170  -2.071  0.00  0.00    -0.369 N 
HETATM   20  H   UNK N   1      29.022  22.420  -1.791  0.00  0.00     0.159 HD
HETATM   21  H   UNK N   1      28.307  23.689  -1.247  0.00  0.00     0.159 HD
HETATM   22  O   UNK N   1      26.557  24.002  -2.875  0.00  0.00    -0.272 OA
ENDBRANCH   1  18
BRANCH   1  23
HETATM   23  C   UNK N   1      29.804  23.732  -4.522  0.00  0.00    -0.034 A 
HETATM   24  C   UNK N   1      31.010  24.429  -4.312  0.00  0.00     0.009 A 
HETATM   25  C   UNK N   1      32.241  23.792  -4.491  0.00  0.00     0.001 A 
HETATM   26  C   UNK N   1      32.286  22.450  -4.875  0.00  0.00     0.000 A 
HETATM   27  C   UNK N   1      31.100  21.745  -5.082  0.00  0.00     0.001 A 
HETATM   28  C   UNK N   1      29.869  22.380  -4.899  0.00  0.00     0.009 A 
ENDBRANCH   1  23
TORSDOF 8
ENDMDL
MODEL 5
REMARK VINA RESULT:      -5.7     10.627     13.762
REMARK  8 active torsions:
REMARK  status: ('A' for Active; 'I' for Inactive)
REMARK    1  A    between atoms: C_7  and  C_8 
REMARK    2  A    between atoms: C_8  and  C_9 
REMARK    3  A    between atoms: C_8  and  C_18 
REMARK    4  A    between atoms: C_8  and  C_20 
REMARK    5  A    between atoms: C_9  and  C_10 
REMARK    6  A    between atoms: C_10  and  N_11 
REMARK    7  A    between atoms: N_11  and  C_12 
REMARK    8  A    between atoms: N_11  and  C_15 
REMARK       I    between atoms: C_18  and  N_19 
ROOT
HETATM    1  C   UNK N   1      27.834  16.944   5.028  0.00  0.00     0.111 C 
ENDROOT
BRANCH   1   2
HETATM    2  C   UNK N   1      26.553  16.290   5.546  0.00  0.00     0.031 A 
HETATM    3  N   UNK N   1      25.332  16.663   5.058  0.00  0.00    -0.368 N 
HETATM    4  C   UNK N   1      24.173  16.131   5.530  0.00  0.00     0.088 A 
ATOM      5  HN  UNK N   1      25.289  17.362   4.316  1.00  0.00     0.165 HD
HETATM    6  C   UNK N   1      24.203  15.179   6.548  0.00  0.00     0.017 A 
HETATM    7  C   UNK N   1      25.432  14.775   7.068  0.00  0.00     0.003 A 
HETATM    8  C   UNK N   1      26.612  15.328   6.571  0.00  0.00     0.026 A 
ENDBRANCH   1   2
BRANCH   1   9
HETATM    9  C   UNK N   1      29.028  16.352   5.838  0.00  0.00     0.061 C 
BRANCH   9  10
HETATM   10  C   UNK N   1      30.284  17.206   6.136  0.00  0.00     0.275 C 
BRANCH  10  11
HETATM   11  N   UNK N   1      31.487  16.441   6.511  0.00  0.00     0.096 N 
BRANCH  11  12
HETATM   12  C   UNK N   1      31.859  16.870   7.881  0.00  0.00     0.215 C 
HETATM   13  C   UNK N   1      31.908  15.709   8.865  0.00  0.00     0.042 C 
HETATM   14  C   UNK N   1      30.895  17.900   8.458  0.00  0.00     0.042 C 
ENDBRANCH  11  12
BRANCH  11  15
HETATM   15  C   UNK N   1      32.644  16.742   5.633  0.00  0.00     0.215 C 
HETATM   16  C   UNK N   1      33.845  17.403   6.305  0.00  0.00     0.042 C 
HETATM   17  C   UNK N   1      32.199  17.614   4.470  0.00  0.00     0.042 C 
ENDBRANCH  11  15
ENDBRANCH  10  11
ENDBRANCH   9  10
ENDBRANCH   1   9
BRANCH   1  18
HETATM   18  C   UNK N   1      28.013  16.638   3.539  0.00  0.00     0.234 C 
HETATM   19  N   UNK N   1      29.203  16.807   2.929  0.00  0.00    -0.369 N 
HETATM   20  H   UNK N   1      29.957  17.375   2.648  0.00  0.00     0.159 HD
HETATM   21  H   UNK N   1      29.435  15.911   2.594  0.00  0.00     0.159 HD
HETATM   22  O   UNK N   1      27.063  16.224   2.889  0.00  0.00    -0.272 OA
ENDBRANCH   1  18
BRANCH   1  23
HETATM   23  C   UNK N   1      27.677  18.447   5.291  0.00  0.00    -0.034 A 
HETATM   24  C   UNK N   1      27.452  19.326   4.214  0.00  0.00     0.009 A 
HETATM   25  C   UNK N   1      27.236  20.688   4.440  0.00  0.00     0.001 A 
HETATM   26  C   UNK N   1      27.236  21.190   5.743  0.00  0.00     0.000 A 
HETATM   27  C   UNK N   1      27.453  20.330   6.820  0.00  0.00     0.001 A 
HETATM   28  C   UNK N   1      27.663  18.968   6.595  0.00  0.00     0.009 A 
ENDBRANCH   1  23
TORSDOF 8
ENDMDL
MODEL 6
REMARK VINA RESULT:      -5.6     10.396     13.521
REMARK  8 active torsions:
REMARK  status: ('A' for Active; 'I' for Inactive)
REMARK    1  A    between atoms: C_7  and  C_8 
REMARK    2  A    between atoms: C_8  and  C_9 
REMARK    3  A    between atoms: C_8  and  C_18 
REMARK    4  A    between atoms: C_8  and  C_20 
REMARK    5  A    between atoms: C_9  and  C_10 
REMARK    6  A    between atoms: C_10  and  N_11 
REMARK    7  A    between atoms: N_11  and  C_12 
REMARK    8  A    between atoms: N_11  and  C_15 
REMARK       I    between atoms: C_18  and  N_19 
ROOT
HETATM    1  C   UNK N   1      27.776  16.933   5.500  0.00  0.00     0.111 C 
ENDROOT
BRANCH   1   2
HETATM    2  C   UNK N   1      27.077  18.054   4.731  0.00  0.00     0.031 A 
HETATM    3  N   UNK N   1      25.808  17.885   4.250  0.00  0.00    -0.368 N 
HETATM    4  C   UNK N   1      25.178  18.847   3.524  0.00  0.00     0.088 A 
ATOM      5  HN  UNK N   1      25.320  17.011   4.441  1.00  0.00     0.165 HD
HETATM    6  C   UNK N   1      25.826  20.049   3.242  0.00  0.00     0.017 A 
HETATM    7  C   UNK N   1      27.120  20.254   3.717  0.00  0.00     0.003 A 
HETATM    8  C   UNK N   1      27.752  19.258   4.463  0.00  0.00     0.026 A 
ENDBRANCH   1   2
BRANCH   1   9
HETATM    9  C   UNK N   1      29.103  17.513   6.078  0.00  0.00     0.061 C 
BRANCH   9  10
HETATM   10  C   UNK N   1      30.336  16.603   6.300  0.00  0.00     0.275 C 
BRANCH  10  11
HETATM   11  N   UNK N   1      31.639  17.236   6.032  0.00  0.00     0.096 N 
BRANCH  11  12
HETATM   12  C   UNK N   1      32.251  16.498   4.902  0.00  0.00     0.215 C 
HETATM   13  C   UNK N   1      32.021  17.184   3.561  0.00  0.00     0.042 C 
HETATM   14  C   UNK N   1      31.717  15.077   4.768  0.00  0.00     0.042 C 
ENDBRANCH  11  12
BRANCH  11  15
HETATM   15  C   UNK N   1      32.570  17.120   7.181  0.00  0.00     0.215 C 
HETATM   16  C   UNK N   1      32.207  17.923   8.427  0.00  0.00     0.042 C 
HETATM   17  C   UNK N   1      33.976  17.506   6.749  0.00  0.00     0.042 C 
ENDBRANCH  11  15
ENDBRANCH  10  11
ENDBRANCH   9  10
ENDBRANCH   1   9
BRANCH   1  18
HETATM   18  C   UNK N   1      26.881  16.445   6.641  0.00  0.00     0.234 C 
HETATM   19  N   UNK N   1      27.216  16.651   7.931  0.00  0.00    -0.369 N 
HETATM   20  H   UNK N   1      27.828  16.536   8.693  0.00  0.00     0.159 HD
HETATM   21  H   UNK N   1      26.475  17.189   8.292  0.00  0.00     0.159 HD
HETATM   22  O   UNK N   1      25.836  15.862   6.383  0.00  0.00    -0.272 OA
ENDBRANCH   1  18
BRANCH   1  23
HETATM   23  C   UNK N   1      28.054  15.826   4.475  0.00  0.00    -0.034 A 
HETATM   24  C   UNK N   1      28.461  16.167   3.170  0.00  0.00     0.009 A 
HETATM   25  C   UNK N   1      28.787  15.172   2.244  0.00  0.00     0.001 A 
HETATM   26  C   UNK N   1      28.717  13.826   2.609  0.00  0.00     0.000 A 
HETATM   27  C   UNK N   1      28.320  13.474   3.899  0.00  0.00     0.001 A 
HETATM   28  C   UNK N   1      27.999  14.468   4.827  0.00  0.00     0.009 A 
ENDBRANCH   1  23
TORSDOF 8
ENDMDL
MODEL 7
REMARK VINA RESULT:      -5.5     13.142     16.439
REMARK  8 active torsions:
REMARK  status: ('A' for Active; 'I' for Inactive)
REMARK    1  A    between atoms: C_7  and  C_8 
REMARK    2  A    between atoms: C_8  and  C_9 
REMARK    3  A    between atoms: C_8  and  C_18 
REMARK    4  A    between atoms: C_8  and  C_20 
REMARK    5  A    between atoms: C_9  and  C_10 
REMARK    6  A    between atoms: C_10  and  N_11 
REMARK    7  A    between atoms: N_11  and  C_12 
REMARK    8  A    between atoms: N_11  and  C_15 
REMARK       I    between atoms: C_18  and  N_19 
ROOT
HETATM    1  C   UNK N   1      32.733  16.569   7.480  0.00  0.00     0.111 C 
ENDROOT
BRANCH   1   2
HETATM    2  C   UNK N   1      32.854  16.488   5.958  0.00  0.00     0.031 A 
HETATM    3  N   UNK N   1      32.750  17.613   5.188  0.00  0.00    -0.368 N 
HETATM    4  C   UNK N   1      32.808  17.566   3.830  0.00  0.00     0.088 A 
ATOM      5  HN  UNK N   1      32.625  18.515   5.646  1.00  0.00     0.165 HD
HETATM    6  C   UNK N   1      32.971  16.344   3.179  0.00  0.00     0.017 A 
HETATM    7  C   UNK N   1      33.081  15.177   3.933  0.00  0.00     0.003 A 
HETATM    8  C   UNK N   1      33.022  15.243   5.326  0.00  0.00     0.026 A 
ENDBRANCH   1   2
BRANCH   1   9
HETATM    9  C   UNK N   1      32.819  15.116   8.039  0.00  0.00     0.061 C 
BRANCH   9  10
HETATM   10  C   UNK N   1      34.189  14.468   8.356  0.00  0.00     0.275 C 
BRANCH  10  11
HETATM   11  N   UNK N   1      34.169  13.451   9.422  0.00  0.00     0.096 N 
BRANCH  11  12
HETATM   12  C   UNK N   1      35.290  13.767  10.338  0.00  0.00     0.215 C 
HETATM   13  C   UNK N   1      34.843  14.563  11.557  0.00  0.00     0.042 C 
HETATM   14  C   UNK N   1      36.393  14.573   9.664  0.00  0.00     0.042 C 
ENDBRANCH  11  12
BRANCH  11  15
HETATM   15  C   UNK N   1      34.408  12.082   8.900  0.00  0.00     0.215 C 
HETATM   16  C   UNK N   1      34.675  11.970   7.401  0.00  0.00     0.042 C 
HETATM   17  C   UNK N   1      33.235  11.181   9.253  0.00  0.00     0.042 C 
ENDBRANCH  11  15
ENDBRANCH  10  11
ENDBRANCH   9  10
ENDBRANCH   1   9
BRANCH   1  18
HETATM   18  C   UNK N   1      33.875  17.414   8.050  0.00  0.00     0.234 C 
HETATM   19  N   UNK N   1      34.141  17.430   9.372  0.00  0.00    -0.369 N 
HETATM   20  H   UNK N   1      33.876  17.606  10.304  0.00  0.00     0.159 HD
HETATM   21  H   UNK N   1      35.065  17.099   9.439  0.00  0.00     0.159 HD
HETATM   22  O   UNK N   1      34.567  18.084   7.295  0.00  0.00    -0.272 OA
ENDBRANCH   1  18
BRANCH   1  23
HETATM   23  C   UNK N   1      31.361  17.193   7.762  0.00  0.00    -0.034 A 
HETATM   24  C   UNK N   1      30.218  16.698   7.106  0.00  0.00     0.009 A 
HETATM   25  C   UNK N   1      28.950  17.206   7.402  0.00  0.00     0.001 A 
HETATM   26  C   UNK N   1      28.805  18.210   8.362  0.00  0.00     0.000 A 
HETATM   27  C   UNK N   1      29.928  18.708   9.024  0.00  0.00     0.001 A 
HETATM   28  C   UNK N   1      31.195  18.197   8.732  0.00  0.00     0.009 A 
ENDBRANCH   1  23
TORSDOF 8
ENDMDL
MODEL 8
REMARK VINA RESULT:      -5.5      1.938      6.340
REMARK  8 active torsions:
REMARK  status: ('A' for Active; 'I' for Inactive)
REMARK    1  A    between atoms: C_7  and  C_8 
REMARK    2  A    between atoms: C_8  and  C_9 
REMARK    3  A    between atoms: C_8  and  C_18 
REMARK    4  A    between atoms: C_8  and  C_20 
REMARK    5  A    between atoms: C_9  and  C_10 
REMARK    6  A    between atoms: C_10  and  N_11 
REMARK    7  A    between atoms: N_11  and  C_12 
REMARK    8  A    between atoms: N_11  and  C_15 
REMARK       I    between atoms: C_18  and  N_19 
ROOT
HETATM    1  C   UNK N   1      27.816  25.041  -4.488  0.00  0.00     0.111 C 
ENDROOT
BRANCH   1   2
HETATM    2  C   UNK N   1      27.397  26.487  -4.220  0.00  0.00     0.031 A 
HETATM    3  N   UNK N   1      26.109  26.787  -3.874  0.00  0.00    -0.368 N 
HETATM    4  C   UNK N   1      25.695  28.067  -3.673  0.00  0.00     0.088 A 
ATOM      5  HN  UNK N   1      25.437  26.028  -3.762  1.00  0.00     0.165 HD
HETATM    6  C   UNK N   1      26.592  29.124  -3.826  0.00  0.00     0.017 A 
HETATM    7  C   UNK N   1      27.912  28.853  -4.178  0.00  0.00     0.003 A 
HETATM    8  C   UNK N   1      28.321  27.534  -4.377  0.00  0.00     0.026 A 
ENDBRANCH   1   2
BRANCH   1   9
HETATM    9  C   UNK N   1      29.369  25.020  -4.637  0.00  0.00     0.061 C 
BRANCH   9  10
HETATM   10  C   UNK N   1      30.061  24.001  -5.575  0.00  0.00     0.275 C 
BRANCH  10  11
HETATM   11  N   UNK N   1      30.079  22.611  -5.086  0.00  0.00     0.096 N 
BRANCH  11  12
HETATM   12  C   UNK N   1      31.476  22.314  -4.689  0.00  0.00     0.215 C 
HETATM   13  C   UNK N   1      31.644  22.200  -3.180  0.00  0.00     0.042 C 
HETATM   14  C   UNK N   1      32.462  23.372  -5.167  0.00  0.00     0.042 C 
ENDBRANCH  11  12
BRANCH  11  15
HETATM   15  C   UNK N   1      29.711  21.636  -6.143  0.00  0.00     0.215 C 
HETATM   16  C   UNK N   1      30.605  20.405  -6.263  0.00  0.00     0.042 C 
HETATM   17  C   UNK N   1      29.660  22.332  -7.494  0.00  0.00     0.042 C 
ENDBRANCH  11  15
ENDBRANCH  10  11
ENDBRANCH   9  10
ENDBRANCH   1   9
BRANCH   1  18
HETATM   18  C   UNK N   1      27.393  24.149  -3.318  0.00  0.00     0.234 C 
HETATM   19  N   UNK N   1      28.308  23.555  -2.526  0.00  0.00    -0.369 N 
HETATM   20  H   UNK N   1      29.069  22.944  -2.393  0.00  0.00     0.159 HD
HETATM   21  H   UNK N   1      28.119  23.909  -1.627  0.00  0.00     0.159 HD
HETATM   22  O   UNK N   1      26.204  23.975  -3.090  0.00  0.00    -0.272 OA
ENDBRANCH   1  18
BRANCH   1  23
HETATM   23  C   UNK N   1      27.127  24.637  -5.797  0.00  0.00    -0.034 A 
HETATM   24  C   UNK N   1      26.492  23.384  -5.896  0.00  0.00     0.009 A 
HETATM   25  C   UNK N   1      25.799  23.027  -7.056  0.00  0.00     0.001 A 
HETATM   26  C   UNK N   1      25.726  23.917  -8.130  0.00  0.00     0.000 A 
HETATM   27  C   UNK N   1      26.348  25.163  -8.045  0.00  0.00     0.001 A 
HETATM   28  C   UNK N   1      27.036  25.522  -6.884  0.00  0.00     0.009 A 
ENDBRANCH   1  23
TORSDOF 8
ENDMDL
MODEL 9
REMARK VINA RESULT:      -5.5     10.621     13.788
REMARK  8 active torsions:
REMARK  status: ('A' for Active; 'I' for Inactive)
REMARK    1  A    between atoms: C_7  and  C_8 
REMARK    2  A    between atoms: C_8  and  C_9 
REMARK    3  A    between atoms: C_8  and  C_18 
REMARK    4  A    between atoms: C_8  and  C_20 
REMARK    5  A    between atoms: C_9  and  C_10 
REMARK    6  A    between atoms: C_10  and  N_11 
REMARK    7  A    between atoms: N_11  and  C_12 
REMARK    8  A    between atoms: N_11  and  C_15 
REMARK       I    between atoms: C_18  and  N_19 
ROOT
HETATM    1  C   UNK N   1      28.291  17.268   5.215  0.00  0.00     0.111 C 
ENDROOT
BRANCH   1   2
HETATM    2  C   UNK N   1      28.498  17.424   6.722  0.00  0.00     0.031 A 
HETATM    3  N   UNK N   1      27.519  17.059   7.603  0.00  0.00    -0.368 N 
HETATM    4  C   UNK N   1      27.657  17.226   8.946  0.00  0.00     0.088 A 
ATOM      5  HN  UNK N   1      26.659  16.647   7.243  1.00  0.00     0.165 HD
HETATM    6  C   UNK N   1      28.820  17.793   9.464  0.00  0.00     0.017 A 
HETATM    7  C   UNK N   1      29.839  18.177   8.594  0.00  0.00     0.003 A 
HETATM    8  C   UNK N   1      29.683  17.995   7.220  0.00  0.00     0.026 A 
ENDBRANCH   1   2
BRANCH   1   9
HETATM    9  C   UNK N   1      29.654  17.564   4.518  0.00  0.00     0.061 C 
BRANCH   9  10
HETATM   10  C   UNK N   1      30.594  16.410   4.094  0.00  0.00     0.275 C 
BRANCH  10  11
HETATM   11  N   UNK N   1      31.498  15.919   5.150  0.00  0.00     0.096 N 
BRANCH  11  12
HETATM   12  C   UNK N   1      32.877  16.257   4.725  0.00  0.00     0.215 C 
HETATM   13  C   UNK N   1      33.473  17.405   5.531  0.00  0.00     0.042 C 
HETATM   14  C   UNK N   1      32.961  16.657   3.257  0.00  0.00     0.042 C 
ENDBRANCH  11  12
BRANCH  11  15
HETATM   15  C   UNK N   1      31.440  14.444   5.301  0.00  0.00     0.215 C 
HETATM   16  C   UNK N   1      32.766  13.745   5.593  0.00  0.00     0.042 C 
HETATM   17  C   UNK N   1      30.827  13.819   4.058  0.00  0.00     0.042 C 
ENDBRANCH  11  15
ENDBRANCH  10  11
ENDBRANCH   9  10
ENDBRANCH   1   9
BRANCH   1  18
HETATM   18  C   UNK N   1      27.841  15.841   4.894  0.00  0.00     0.234 C 
HETATM   19  N   UNK N   1      27.396  15.508   3.666  0.00  0.00    -0.369 N 
HETATM   20  H   UNK N   1      26.762  15.611   2.920  0.00  0.00     0.159 HD
HETATM   21  H   UNK N   1      28.019  14.810   3.362  0.00  0.00     0.159 HD
HETATM   22  O   UNK N   1      27.891  14.981   5.763  0.00  0.00    -0.272 OA
ENDBRANCH   1  18
BRANCH   1  23
HETATM   23  C   UNK N   1      27.231  18.306   4.825  0.00  0.00    -0.034 A 
HETATM   24  C   UNK N   1      27.626  19.529   4.249  0.00  0.00     0.009 A 
HETATM   25  C   UNK N   1      26.672  20.457   3.823  0.00  0.00     0.001 A 
HETATM   26  C   UNK N   1      25.311  20.174   3.960  0.00  0.00     0.000 A 
HETATM   27  C   UNK N   1      24.904  18.965   4.525  0.00  0.00     0.001 A 
HETATM   28  C   UNK N   1      25.858  18.035   4.946  0.00  0.00     0.009 A 
ENDBRANCH   1  23
TORSDOF 8
ENDMDL
