MODEL 1
REMARK VINA RESULT:      -5.1      0.000      0.000
REMARK  0 active torsions:
REMARK  status: ('A' for Active; 'I' for Inactive)
ROOT
HETATM    1  C   UNK N   1      33.246  17.771   7.123  0.00  0.00     0.026 C 
HETATM    2  C   UNK N   1      34.046  16.787   6.254  0.00  0.00     0.038 C 
HETATM    3  C   UNK N   1      34.679  15.700   7.154  0.00  0.00     0.273 C 
HETATM    4  N   UNK N   1      34.295  15.883   8.566  0.00  0.00     0.091 N 
HETATM    5  C   UNK N   1      32.825  15.829   8.667  0.00  0.00     0.311 C 
HETATM    6  C   UNK N   1      34.229  18.344   8.153  0.00  0.00     0.038 C 
HETATM    7  C   UNK N   1      34.776  17.198   9.033  0.00  0.00     0.273 C 
HETATM    8  C   UNK N   1      31.125  16.423   6.914  0.00  0.00     0.116 C 
HETATM    9  C   UNK N   1      32.154  16.991   7.893  0.00  0.00     0.101 C 
HETATM   10  O   UNK N   1      31.522  17.853   8.808  0.00  0.00    -0.362 OA
HETATM   11  C   UNK N   1      30.172  17.484   8.850  0.00  0.00     0.179 C 
HETATM   12  S   UNK N   1      29.601  17.349   7.151  0.00  0.00    -0.135 SA
HETATM   13  C   UNK N   1      29.384  18.557   9.569  0.00  0.00     0.051 C 
ENDROOT
TORSDOF 0
ENDMDL
MODEL 2
REMARK VINA RESULT:      -4.5      9.125     10.216
REMARK  0 active torsions:
REMARK  status: ('A' for Active; 'I' for Inactive)
ROOT
HETATM    1  C   UNK N   1      36.747  12.927  15.228  0.00  0.00     0.026 C 
HETATM    2  C   UNK N   1      36.184  13.895  14.175  0.00  0.00     0.038 C 
HETATM    3  C   UNK N   1      35.233  13.129  13.226  0.00  0.00     0.273 C 
HETATM    4  N   UNK N   1      35.096  11.717  13.629  0.00  0.00     0.091 N 
HETATM    5  C   UNK N   1      34.580  11.667  15.009  0.00  0.00     0.311 C 
HETATM    6  C   UNK N   1      37.450  11.802  14.456  0.00  0.00     0.038 C 
HETATM    7  C   UNK N   1      36.420  11.065  13.571  0.00  0.00     0.273 C 
HETATM    8  C   UNK N   1      34.854  13.374  16.833  0.00  0.00     0.116 C 
HETATM    9  C   UNK N   1      35.573  12.298  16.016  0.00  0.00     0.101 C 
HETATM   10  O   UNK N   1      36.067  11.296  16.871  0.00  0.00    -0.362 OA
HETATM   11  C   UNK N   1      35.299  11.342  18.040  0.00  0.00     0.179 C 
HETATM   12  S   UNK N   1      35.226  13.060  18.565  0.00  0.00    -0.135 SA
HETATM   13  C   UNK N   1      35.970  10.511  19.111  0.00  0.00     0.051 C 
ENDROOT
TORSDOF 0
ENDMDL
MODEL 3
REMARK VINA RESULT:      -4.4      7.232      8.403
REMARK  0 active torsions:
REMARK  status: ('A' for Active; 'I' for Inactive)
ROOT
HETATM    1  C   UNK N   1      36.732  12.881  14.612  0.00  0.00     0.026 C 
HETATM    2  C   UNK N   1      37.101  11.471  15.101  0.00  0.00     0.038 C 
HETATM    3  C   UNK N   1      35.821  10.726  15.545  0.00  0.00     0.273 C 
HETATM    4  N   UNK N   1      34.618  11.550  15.325  0.00  0.00     0.091 N 
HETATM    5  C   UNK N   1      34.533  11.890  13.893  0.00  0.00     0.311 C 
HETATM    6  C   UNK N   1      36.011  13.572  15.777  0.00  0.00     0.038 C 
HETATM    7  C   UNK N   1      34.725  12.788  16.123  0.00  0.00     0.273 C 
HETATM    8  C   UNK N   1      36.409  12.107  12.234  0.00  0.00     0.116 C 
HETATM    9  C   UNK N   1      35.730  12.762  13.438  0.00  0.00     0.101 C 
HETATM   10  O   UNK N   1      35.265  14.043  13.089  0.00  0.00    -0.362 OA
HETATM   11  C   UNK N   1      35.101  14.053  11.699  0.00  0.00     0.179 C 
HETATM   12  S   UNK N   1      36.605  13.380  10.978  0.00  0.00    -0.135 SA
HETATM   13  C   UNK N   1      34.905  15.478  11.230  0.00  0.00     0.051 C 
ENDROOT
TORSDOF 0
ENDMDL
MODEL 4
REMARK VINA RESULT:      -4.4      2.745      4.232
REMARK  0 active torsions:
REMARK  status: ('A' for Active; 'I' for Inactive)
ROOT
HETATM    1  C   UNK N   1      33.385  17.362   8.690  0.00  0.00     0.026 C 
HETATM    2  C   UNK N   1      31.880  17.482   8.403  0.00  0.00     0.038 C 
HETATM    3  C   UNK N   1      31.569  16.867   7.019  0.00  0.00     0.273 C 
HETATM    4  N   UNK N   1      32.780  16.299   6.400  0.00  0.00     0.091 N 
HETATM    5  C   UNK N   1      33.330  15.267   7.298  0.00  0.00     0.311 C 
HETATM    6  C   UNK N   1      34.109  18.077   7.541  0.00  0.00     0.038 C 
HETATM    7  C   UNK N   1      33.776  17.371   6.208  0.00  0.00     0.273 C 
HETATM    8  C   UNK N   1      33.120  15.112   9.798  0.00  0.00     0.116 C 
HETATM    9  C   UNK N   1      33.790  15.869   8.649  0.00  0.00     0.101 C 
HETATM   10  O   UNK N   1      35.189  15.761   8.754  0.00  0.00    -0.362 OA
HETATM   11  C   UNK N   1      35.454  14.609   9.505  0.00  0.00     0.179 C 
HETATM   12  S   UNK N   1      34.414  14.676  10.970  0.00  0.00    -0.135 SA
HETATM   13  C   UNK N   1      36.910  14.606   9.914  0.00  0.00     0.051 C 
ENDROOT
TORSDOF 0
ENDMDL
MODEL 5
REMARK VINA RESULT:      -4.4     16.795     17.624
REMARK  0 active torsions:
REMARK  status: ('A' for Active; 'I' for Inactive)
ROOT
HETATM    1  C   UNK N   1      26.308  27.394  -6.085  0.00  0.00     0.026 C 
HETATM    2  C   UNK N   1      27.287  28.567  -5.921  0.00  0.00     0.038 C 
HETATM    3  C   UNK N   1      27.806  28.607  -4.465  0.00  0.00     0.273 C 
HETATM    4  N   UNK N   1      27.263  27.489  -3.671  0.00  0.00     0.091 N 
HETATM    5  C   UNK N   1      27.655  26.221  -4.312  0.00  0.00     0.311 C 
HETATM    6  C   UNK N   1      25.190  27.611  -5.056  0.00  0.00     0.038 C 
HETATM    7  C   UNK N   1      25.791  27.591  -3.633  0.00  0.00     0.273 C 
HETATM    8  C   UNK N   1      28.142  25.793  -6.741  0.00  0.00     0.116 C 
HETATM    9  C   UNK N   1      27.034  26.076  -5.725  0.00  0.00     0.101 C 
HETATM   10  O   UNK N   1      26.107  25.018  -5.718  0.00  0.00    -0.362 OA
HETATM   11  C   UNK N   1      26.773  23.889  -6.209  0.00  0.00     0.179 C 
HETATM   12  S   UNK N   1      27.614  24.380  -7.721  0.00  0.00    -0.135 SA
HETATM   13  C   UNK N   1      25.760  22.808  -6.519  0.00  0.00     0.051 C 
ENDROOT
TORSDOF 0
ENDMDL
MODEL 6
REMARK VINA RESULT:      -4.4      2.731      4.044
REMARK  0 active torsions:
REMARK  status: ('A' for Active; 'I' for Inactive)
ROOT
HETATM    1  C   UNK N   1      31.548  17.476   4.674  0.00  0.00     0.026 C 
HETATM    2  C   UNK N   1      30.411  16.591   4.139  0.00  0.00     0.038 C 
HETATM    3  C   UNK N   1      30.988  15.227   3.690  0.00  0.00     0.273 C 
HETATM    4  N   UNK N   1      32.437  15.146   3.950  0.00  0.00     0.091 N 
HETATM    5  C   UNK N   1      32.670  15.342   5.392  0.00  0.00     0.311 C 
HETATM    6  C   UNK N   1      32.574  17.604   3.539  0.00  0.00     0.038 C 
HETATM    7  C   UNK N   1      33.127  16.205   3.188  0.00  0.00     0.273 C 
HETATM    8  C   UNK N   1      31.266  16.629   7.032  0.00  0.00     0.116 C 
HETATM    9  C   UNK N   1      32.237  16.755   5.857  0.00  0.00     0.101 C 
HETATM   10  O   UNK N   1      33.375  17.483   6.250  0.00  0.00    -0.362 OA
HETATM   11  C   UNK N   1      33.471  17.369   7.641  0.00  0.00     0.179 C 
HETATM   12  S   UNK N   1      31.848  17.740   8.322  0.00  0.00    -0.135 SA
HETATM   13  C   UNK N   1      34.479  18.374   8.155  0.00  0.00     0.051 C 
ENDROOT
TORSDOF 0
ENDMDL
MODEL 7
REMARK VINA RESULT:      -4.3      7.825      9.192
REMARK  0 active torsions:
REMARK  status: ('A' for Active; 'I' for Inactive)
ROOT
HETATM    1  C   UNK N   1      34.463  12.291  15.040  0.00  0.00     0.026 C 
HETATM    2  C   UNK N   1      35.011  12.365  16.474  0.00  0.00     0.038 C 
HETATM    3  C   UNK N   1      36.010  11.207  16.706  0.00  0.00     0.273 C 
HETATM    4  N   UNK N   1      36.191  10.403  15.483  0.00  0.00     0.091 N 
HETATM    5  C   UNK N   1      36.680  11.283  14.407  0.00  0.00     0.311 C 
HETATM    6  C   UNK N   1      33.819  10.906  14.889  0.00  0.00     0.038 C 
HETATM    7  C   UNK N   1      34.894   9.815  15.092  0.00  0.00     0.273 C 
HETATM    8  C   UNK N   1      36.304  13.753  14.129  0.00  0.00     0.116 C 
HETATM    9  C   UNK N   1      35.644  12.376  14.043  0.00  0.00     0.101 C 
HETATM   10  O   UNK N   1      35.170  12.150  12.738  0.00  0.00    -0.362 OA
HETATM   11  C   UNK N   1      35.912  12.977  11.887  0.00  0.00     0.179 C 
HETATM   12  S   UNK N   1      35.909  14.625  12.605  0.00  0.00    -0.135 SA
HETATM   13  C   UNK N   1      35.250  13.014  10.527  0.00  0.00     0.051 C 
ENDROOT
TORSDOF 0
ENDMDL
MODEL 8
REMARK VINA RESULT:      -4.2     17.507     18.326
REMARK  0 active torsions:
REMARK  status: ('A' for Active; 'I' for Inactive)
ROOT
HETATM    1  C   UNK N   1      27.446  26.599  -5.175  0.00  0.00     0.026 C 
HETATM    2  C   UNK N   1      27.102  26.327  -3.702  0.00  0.00     0.038 C 
HETATM    3  C   UNK N   1      25.972  27.282  -3.251  0.00  0.00     0.273 C 
HETATM    4  N   UNK N   1      25.515  28.135  -4.363  0.00  0.00     0.091 N 
HETATM    5  C   UNK N   1      25.037  27.269  -5.456  0.00  0.00     0.311 C 
HETATM    6  C   UNK N   1      27.842  28.079  -5.265  0.00  0.00     0.038 C 
HETATM    7  C   UNK N   1      26.644  28.957  -4.840  0.00  0.00     0.273 C 
HETATM    8  C   UNK N   1      25.755  24.924  -6.008  0.00  0.00     0.116 C 
HETATM    9  C   UNK N   1      26.177  26.394  -6.036  0.00  0.00     0.101 C 
HETATM   10  O   UNK N   1      26.441  26.793  -7.360  0.00  0.00    -0.362 OA
HETATM   11  C   UNK N   1      25.735  25.921  -8.196  0.00  0.00     0.179 C 
HETATM   12  S   UNK N   1      26.086  24.247  -7.642  0.00  0.00    -0.135 SA
HETATM   13  C   UNK N   1      26.218  26.097  -9.620  0.00  0.00     0.051 C 
ENDROOT
TORSDOF 0
ENDMDL
MODEL 9
REMARK VINA RESULT:      -4.2     16.310     17.081
REMARK  0 active torsions:
REMARK  status: ('A' for Active; 'I' for Inactive)
ROOT
HETATM    1  C   UNK N   1      26.750  26.798  -5.841  0.00  0.00     0.026 C 
HETATM    2  C   UNK N   1      25.463  26.003  -6.112  0.00  0.00     0.038 C 
HETATM    3  C   UNK N   1      25.457  24.720  -5.248  0.00  0.00     0.273 C 
HETATM    4  N   UNK N   1      26.646  24.653  -4.379  0.00  0.00     0.091 N 
HETATM    5  C   UNK N   1      26.667  25.846  -3.513  0.00  0.00     0.311 C 
HETATM    6  C   UNK N   1      27.921  25.857  -6.157  0.00  0.00     0.038 C 
HETATM    7  C   UNK N   1      27.860  24.630  -5.220  0.00  0.00     0.273 C 
HETATM    8  C   UNK N   1      25.688  28.115  -3.970  0.00  0.00     0.116 C 
HETATM    9  C   UNK N   1      26.818  27.150  -4.335  0.00  0.00     0.101 C 
HETATM   10  O   UNK N   1      28.064  27.738  -4.048  0.00  0.00    -0.362 OA
HETATM   11  C   UNK N   1      27.837  28.718  -3.075  0.00  0.00     0.179 C 
HETATM   12  S   UNK N   1      26.445  29.712  -3.630  0.00  0.00    -0.135 SA
HETATM   13  C   UNK N   1      29.067  29.590  -2.951  0.00  0.00     0.051 C 
ENDROOT
TORSDOF 0
ENDMDL
