MODEL 1
REMARK VINA RESULT:      -7.2      0.000      0.000
REMARK  26 active torsions:
REMARK  status: ('A' for Active; 'I' for Inactive)
REMARK    1  A    between atoms: C_8  and  C_3 
REMARK    2  A    between atoms: O_27  and  C_3 
REMARK    3  A    between atoms: C_10  and  C_4 
REMARK    4  A    between atoms: C_11  and  C_5 
REMARK    5  A    between atoms: O_29  and  C_5 
REMARK    6  A    between atoms: C_12  and  C_6 
REMARK    7  A    between atoms: O_30  and  C_6 
REMARK    8  A    between atoms: C_9  and  N_26 
REMARK    9  A    between atoms: C_16  and  C_10 
REMARK   10  A    between atoms: C_10  and  O_31 
REMARK   11  A    between atoms: C_22  and  C_11 
REMARK   12  A    between atoms: C_11  and  O_32 
REMARK   13  A    between atoms: C_13  and  N_26 
REMARK   14  A    between atoms: C_14  and  O_33 
REMARK   15  A    between atoms: C_15  and  O_34 
REMARK   16  A    between atoms: C_22  and  C_16 
REMARK   17  A    between atoms: C_16  and  O_35 
REMARK   18  A    between atoms: C_17  and  O_36 
REMARK   19  A    between atoms: C_18  and  O_37 
REMARK   20  A    between atoms: C_19  and  O_38 
REMARK   21  A    between atoms: C_20  and  O_39 
REMARK   22  A    between atoms: C_21  and  O_40 
REMARK   23  A    between atoms: C_22  and  O_43 
REMARK   24  A    between atoms: C_23  and  O_44 
REMARK   25  A    between atoms: C_24  and  O_44 
REMARK   26  A    between atoms: C_25  and  O_43 
ROOT
HETATM    1  C   UNK N   1      26.937  19.906   5.421  0.00  0.00     0.180 C 
HETATM    2  C   UNK N   1      26.775  18.369   3.469  0.00  0.00     0.183 C 
HETATM    3  C   UNK N   1      25.295  18.896   3.390  0.00  0.00     0.204 C 
HETATM    4  C   UNK N   1      27.341  18.509   4.911  0.00  0.00     0.187 C 
HETATM    5  C   UNK N   1      24.744  19.105   4.817  0.00  0.00     0.292 C 
HETATM    6  O   UNK N   1      25.519  20.098   5.487  0.00  0.00    -0.348 OA
ENDROOT
BRANCH   4   7
HETATM    7  O   UNK N   1      28.753  18.361   5.028  0.00  0.00    -0.348 OA
BRANCH   7   8
HETATM    8  C   UNK N   1      29.191  17.042   5.345  0.00  0.00     0.292 C 
HETATM    9  C   UNK N   1      30.320  16.605   4.379  0.00  0.00     0.204 C 
HETATM   10  C   UNK N   1      31.652  17.307   4.716  0.00  0.00     0.176 C 
HETATM   11  C   UNK N   1      31.968  16.980   6.182  0.00  0.00     0.137 C 
HETATM   12  C   UNK N   1      30.804  17.478   7.058  0.00  0.00     0.145 C 
HETATM   13  C   UNK N   1      31.087  17.161   8.517  0.00  0.00     0.042 C 
HETATM   14  O   UNK N   1      29.578  16.843   6.708  0.00  0.00    -0.352 OA
BRANCH   9  15
HETATM   15  O   UNK N   1      29.948  16.854   3.056  0.00  0.00    -0.388 OA
HETATM   16  H   UNK N   1      30.217  17.273   2.224  0.00  0.00     0.210 HD
ENDBRANCH   9  15
BRANCH  10  17
HETATM   17  O   UNK N   1      32.664  16.818   3.884  0.00  0.00    -0.391 OA
HETATM   18  H   UNK N   1      32.838  17.211   3.014  0.00  0.00     0.210 HD
ENDBRANCH  10  17
BRANCH  11  19
HETATM   19  N   UNK N   1      33.299  17.413   6.665  0.00  0.00    -0.402 N 
HETATM   20  H   UNK N   1      33.510  18.410   6.675  0.00  0.00     0.154 HD
BRANCH  19  21
HETATM   21  C   UNK N   1      34.335  16.473   7.132  0.00  0.00     0.132 C 
HETATM   22  C   UNK N   1      34.828  16.777   8.534  0.00  0.00     0.008 C 
HETATM   23  C   UNK N   1      34.938  15.861   9.519  0.00  0.00    -0.027 C 
HETATM   24  C   UNK N   1      34.609  14.398   9.300  0.00  0.00     0.180 C 
HETATM   25  C   UNK N   1      34.529  14.026   7.809  0.00  0.00     0.182 C 
HETATM   26  C   UNK N   1      33.686  15.066   7.072  0.00  0.00     0.175 C 
BRANCH  23  27
HETATM   27  C   UNK N   1      35.377  16.312  10.876  0.00  0.00     0.201 C 
BRANCH  27  28
HETATM   28  O   UNK N   1      36.763  16.220  10.998  0.00  0.00    -0.397 OA
HETATM   29  H   UNK N   1      37.586  16.719  10.881  0.00  0.00     0.209 HD
ENDBRANCH  27  28
ENDBRANCH  23  27
BRANCH  24  30
HETATM   30  O   UNK N   1      33.396  14.119   9.934  0.00  0.00    -0.388 OA
HETATM   31  H   UNK N   1      32.761  13.525  10.365  0.00  0.00     0.210 HD
ENDBRANCH  24  30
BRANCH  25  32
HETATM   32  O   UNK N   1      35.812  13.980   7.255  0.00  0.00    -0.390 OA
HETATM   33  H   UNK N   1      36.569  14.084   6.657  0.00  0.00     0.210 HD
ENDBRANCH  25  32
BRANCH  26  34
HETATM   34  O   UNK N   1      33.495  14.685   5.742  0.00  0.00    -0.391 OA
HETATM   35  H   UNK N   1      34.043  13.983   5.355  0.00  0.00     0.210 HD
ENDBRANCH  26  34
ENDBRANCH  19  21
ENDBRANCH  11  19
ENDBRANCH   7   8
ENDBRANCH   4   7
BRANCH   1  36
HETATM   36  C   UNK N   1      27.523  20.196   6.794  0.00  0.00     0.198 C 
BRANCH  36  37
HETATM   37  O   UNK N   1      27.504  19.051   7.582  0.00  0.00    -0.398 OA
HETATM   38  H   UNK N   1      27.756  18.131   7.408  0.00  0.00     0.209 HD
ENDBRANCH  36  37
ENDBRANCH   1  36
BRANCH   2  39
HETATM   39  O   UNK N   1      26.820  17.028   3.083  0.00  0.00    -0.390 OA
HETATM   40  H   UNK N   1      26.764  16.063   3.158  0.00  0.00     0.210 HD
ENDBRANCH   2  39
BRANCH   3  41
HETATM   41  O   UNK N   1      25.265  20.123   2.721  0.00  0.00    -0.388 OA
HETATM   42  H   UNK N   1      24.889  20.552   1.937  0.00  0.00     0.210 HD
ENDBRANCH   3  41
BRANCH   5  43
HETATM   43  O   UNK N   1      23.391  19.525   4.816  0.00  0.00    -0.348 OA
BRANCH  43  44
HETATM   44  C   UNK N   1      22.514  18.875   3.867  0.00  0.00     0.187 C 
BRANCH  44  45
HETATM   45  C   UNK N   1      21.720  17.593   4.390  0.00  0.00     0.173 C 
BRANCH  45  46
HETATM   46  C   UNK N   1      21.855  17.443   5.910  0.00  0.00     0.198 C 
BRANCH  46  47
HETATM   47  O   UNK N   1      21.424  18.579   6.592  0.00  0.00    -0.398 OA
HETATM   48  H   UNK N   1      20.577  18.571   7.065  0.00  0.00     0.209 HD
ENDBRANCH  46  47
ENDBRANCH  45  46
BRANCH  45  49
HETATM   49  O   UNK N   1      22.175  16.402   3.840  0.00  0.00    -0.391 OA
HETATM   50  H   UNK N   1      21.827  16.059   3.001  0.00  0.00     0.210 HD
ENDBRANCH  45  49
ENDBRANCH  44  45
BRANCH  44  51
HETATM   51  C   UNK N   1      21.573  19.980   3.284  0.00  0.00     0.185 C 
BRANCH  51  52
HETATM   52  C   UNK N   1      20.734  19.541   2.042  0.00  0.00     0.210 C 
BRANCH  52  53
HETATM   53  C   UNK N   1      20.655  20.670   1.052  0.00  0.00     0.265 C 
HETATM   54  O   UNK N   1      21.386  20.705   0.074  0.00  0.00    -0.304 OA
ENDBRANCH  52  53
BRANCH  52  55
HETATM   55  O   UNK N   1      19.443  19.118   2.353  0.00  0.00    -0.386 OA
HETATM   56  H   UNK N   1      19.263  18.238   2.718  0.00  0.00     0.210 HD
ENDBRANCH  52  55
ENDBRANCH  51  52
BRANCH  51  57
HETATM   57  O   UNK N   1      22.364  21.056   2.860  0.00  0.00    -0.390 OA
HETATM   58  H   UNK N   1      22.799  21.041   1.993  0.00  0.00     0.210 HD
ENDBRANCH  51  57
ENDBRANCH  44  51
ENDBRANCH  43  44
ENDBRANCH   5  43
TORSDOF 26
ENDMDL
MODEL 2
REMARK VINA RESULT:      -7.0      1.264      2.234
REMARK  26 active torsions:
REMARK  status: ('A' for Active; 'I' for Inactive)
REMARK    1  A    between atoms: C_8  and  C_3 
REMARK    2  A    between atoms: O_27  and  C_3 
REMARK    3  A    between atoms: C_10  and  C_4 
REMARK    4  A    between atoms: C_11  and  C_5 
REMARK    5  A    between atoms: O_29  and  C_5 
REMARK    6  A    between atoms: C_12  and  C_6 
REMARK    7  A    between atoms: O_30  and  C_6 
REMARK    8  A    between atoms: C_9  and  N_26 
REMARK    9  A    between atoms: C_16  and  C_10 
REMARK   10  A    between atoms: C_10  and  O_31 
REMARK   11  A    between atoms: C_22  and  C_11 
REMARK   12  A    between atoms: C_11  and  O_32 
REMARK   13  A    between atoms: C_13  and  N_26 
REMARK   14  A    between atoms: C_14  and  O_33 
REMARK   15  A    between atoms: C_15  and  O_34 
REMARK   16  A    between atoms: C_22  and  C_16 
REMARK   17  A    between atoms: C_16  and  O_35 
REMARK   18  A    between atoms: C_17  and  O_36 
REMARK   19  A    between atoms: C_18  and  O_37 
REMARK   20  A    between atoms: C_19  and  O_38 
REMARK   21  A    between atoms: C_20  and  O_39 
REMARK   22  A    between atoms: C_21  and  O_40 
REMARK   23  A    between atoms: C_22  and  O_43 
REMARK   24  A    between atoms: C_23  and  O_44 
REMARK   25  A    between atoms: C_24  and  O_44 
REMARK   26  A    between atoms: C_25  and  O_43 
ROOT
HETATM    1  C   UNK N   1      27.045  20.335   5.480  0.00  0.00     0.180 C 
HETATM    2  C   UNK N   1      27.106  18.486   3.814  0.00  0.00     0.183 C 
HETATM    3  C   UNK N   1      25.799  19.166   3.262  0.00  0.00     0.204 C 
HETATM    4  C   UNK N   1      27.320  18.828   5.317  0.00  0.00     0.187 C 
HETATM    5  C   UNK N   1      24.962  19.709   4.440  0.00  0.00     0.292 C 
HETATM    6  O   UNK N   1      25.706  20.708   5.134  0.00  0.00    -0.348 OA
ENDROOT
BRANCH   4   7
HETATM    7  O   UNK N   1      28.617  18.532   5.828  0.00  0.00    -0.348 OA
BRANCH   7   8
HETATM    8  C   UNK N   1      28.712  17.299   6.537  0.00  0.00     0.292 C 
HETATM    9  C   UNK N   1      29.919  16.477   6.022  0.00  0.00     0.204 C 
HETATM   10  C   UNK N   1      31.255  17.061   6.527  0.00  0.00     0.176 C 
HETATM   11  C   UNK N   1      31.174  17.096   8.060  0.00  0.00     0.137 C 
HETATM   12  C   UNK N   1      29.965  17.958   8.467  0.00  0.00     0.145 C 
HETATM   13  C   UNK N   1      29.855  18.005   9.982  0.00  0.00     0.042 C 
HETATM   14  O   UNK N   1      28.746  17.420   7.962  0.00  0.00    -0.352 OA
BRANCH   9  15
HETATM   15  O   UNK N   1      29.901  16.412   4.628  0.00  0.00    -0.388 OA
HETATM   16  H   UNK N   1      29.954  16.932   3.810  0.00  0.00     0.210 HD
ENDBRANCH   9  15
BRANCH  10  17
HETATM   17  O   UNK N   1      32.310  16.240   6.119  0.00  0.00    -0.391 OA
HETATM   18  H   UNK N   1      32.151  15.405   5.651  0.00  0.00     0.210 HD
ENDBRANCH  10  17
BRANCH  11  19
HETATM   19  N   UNK N   1      32.425  17.463   8.761  0.00  0.00    -0.402 N 
HETATM   20  H   UNK N   1      32.736  18.433   8.723  0.00  0.00     0.154 HD
BRANCH  19  21
HETATM   21  C   UNK N   1      33.243  16.494   9.514  0.00  0.00     0.132 C 
HETATM   22  C   UNK N   1      32.805  15.056   9.312  0.00  0.00     0.008 C 
HETATM   23  C   UNK N   1      33.639  14.041   9.004  0.00  0.00    -0.027 C 
HETATM   24  C   UNK N   1      35.135  14.238   8.870  0.00  0.00     0.180 C 
HETATM   25  C   UNK N   1      35.614  15.566   9.483  0.00  0.00     0.182 C 
HETATM   26  C   UNK N   1      34.699  16.699   9.020  0.00  0.00     0.175 C 
BRANCH  23  27
HETATM   27  C   UNK N   1      33.061  12.681   8.768  0.00  0.00     0.201 C 
BRANCH  27  28
HETATM   28  O   UNK N   1      32.941  12.432   7.402  0.00  0.00    -0.397 OA
HETATM   29  H   UNK N   1      33.342  11.946   6.664  0.00  0.00     0.209 HD
ENDBRANCH  27  28
ENDBRANCH  23  27
BRANCH  24  30
HETATM   30  O   UNK N   1      35.467  14.186   7.514  0.00  0.00    -0.388 OA
HETATM   31  H   UNK N   1      35.954  14.486   6.729  0.00  0.00     0.210 HD
ENDBRANCH  24  30
BRANCH  25  32
HETATM   32  O   UNK N   1      35.595  15.485  10.880  0.00  0.00    -0.390 OA
HETATM   33  H   UNK N   1      35.556  15.713  11.822  0.00  0.00     0.210 HD
ENDBRANCH  25  32
BRANCH  26  34
HETATM   34  O   UNK N   1      35.185  17.930   9.464  0.00  0.00    -0.391 OA
HETATM   35  H   UNK N   1      35.443  18.045  10.392  0.00  0.00     0.210 HD
ENDBRANCH  26  34
ENDBRANCH  19  21
ENDBRANCH  11  19
ENDBRANCH   7   8
ENDBRANCH   4   7
BRANCH   1  36
HETATM   36  C   UNK N   1      27.321  20.806   6.900  0.00  0.00     0.198 C 
BRANCH  36  37
HETATM   37  O   UNK N   1      26.964  19.824   7.816  0.00  0.00    -0.398 OA
HETATM   38  H   UNK N   1      27.281  19.613   8.708  0.00  0.00     0.209 HD
ENDBRANCH  36  37
ENDBRANCH   1  36
BRANCH   2  39
HETATM   39  O   UNK N   1      27.018  17.101   3.663  0.00  0.00    -0.390 OA
HETATM   40  H   UNK N   1      26.664  16.243   3.383  0.00  0.00     0.210 HD
ENDBRANCH   2  39
BRANCH   3  41
HETATM   41  O   UNK N   1      26.139  20.238   2.431  0.00  0.00    -0.388 OA
HETATM   42  H   UNK N   1      26.789  20.952   2.340  0.00  0.00     0.210 HD
ENDBRANCH   3  41
BRANCH   5  43
HETATM   43  O   UNK N   1      23.740  20.284   4.013  0.00  0.00    -0.348 OA
BRANCH  43  44
HETATM   44  C   UNK N   1      22.695  19.362   3.620  0.00  0.00     0.187 C 
BRANCH  44  45
HETATM   45  C   UNK N   1      22.308  18.230   4.677  0.00  0.00     0.173 C 
BRANCH  45  46
HETATM   46  C   UNK N   1      21.885  16.938   3.969  0.00  0.00     0.198 C 
BRANCH  46  47
HETATM   47  O   UNK N   1      20.500  16.817   3.876  0.00  0.00    -0.398 OA
HETATM   48  H   UNK N   1      20.107  16.044   3.441  0.00  0.00     0.209 HD
ENDBRANCH  46  47
ENDBRANCH  45  46
BRANCH  45  49
HETATM   49  O   UNK N   1      21.249  18.587   5.501  0.00  0.00    -0.391 OA
HETATM   50  H   UNK N   1      21.381  18.822   6.433  0.00  0.00     0.210 HD
ENDBRANCH  45  49
ENDBRANCH  44  45
BRANCH  44  51
HETATM   51  C   UNK N   1      21.470  20.226   3.173  0.00  0.00     0.185 C 
BRANCH  51  52
HETATM   52  C   UNK N   1      20.714  19.692   1.915  0.00  0.00     0.210 C 
BRANCH  52  53
HETATM   53  C   UNK N   1      20.555  20.797   0.907  0.00  0.00     0.265 C 
HETATM   54  O   UNK N   1      21.271  20.859  -0.081  0.00  0.00    -0.304 OA
ENDBRANCH  52  53
BRANCH  52  55
HETATM   55  O   UNK N   1      19.462  19.148   2.196  0.00  0.00    -0.386 OA
HETATM   56  H   UNK N   1      19.029  18.518   1.599  0.00  0.00     0.210 HD
ENDBRANCH  52  55
ENDBRANCH  51  52
BRANCH  51  57
HETATM   57  O   UNK N   1      21.929  21.506   2.839  0.00  0.00    -0.390 OA
HETATM   58  H   UNK N   1      21.485  22.298   3.183  0.00  0.00     0.210 HD
ENDBRANCH  51  57
ENDBRANCH  44  51
ENDBRANCH  43  44
ENDBRANCH   5  43
TORSDOF 26
ENDMDL
MODEL 3
REMARK VINA RESULT:      -6.9      2.986      5.811
REMARK  26 active torsions:
REMARK  status: ('A' for Active; 'I' for Inactive)
REMARK    1  A    between atoms: C_8  and  C_3 
REMARK    2  A    between atoms: O_27  and  C_3 
REMARK    3  A    between atoms: C_10  and  C_4 
REMARK    4  A    between atoms: C_11  and  C_5 
REMARK    5  A    between atoms: O_29  and  C_5 
REMARK    6  A    between atoms: C_12  and  C_6 
REMARK    7  A    between atoms: O_30  and  C_6 
REMARK    8  A    between atoms: C_9  and  N_26 
REMARK    9  A    between atoms: C_16  and  C_10 
REMARK   10  A    between atoms: C_10  and  O_31 
REMARK   11  A    between atoms: C_22  and  C_11 
REMARK   12  A    between atoms: C_11  and  O_32 
REMARK   13  A    between atoms: C_13  and  N_26 
REMARK   14  A    between atoms: C_14  and  O_33 
REMARK   15  A    between atoms: C_15  and  O_34 
REMARK   16  A    between atoms: C_22  and  C_16 
REMARK   17  A    between atoms: C_16  and  O_35 
REMARK   18  A    between atoms: C_17  and  O_36 
REMARK   19  A    between atoms: C_18  and  O_37 
REMARK   20  A    between atoms: C_19  and  O_38 
REMARK   21  A    between atoms: C_20  and  O_39 
REMARK   22  A    between atoms: C_21  and  O_40 
REMARK   23  A    between atoms: C_22  and  O_43 
REMARK   24  A    between atoms: C_23  and  O_44 
REMARK   25  A    between atoms: C_24  and  O_44 
REMARK   26  A    between atoms: C_25  and  O_43 
ROOT
HETATM    1  C   UNK N   1      30.367  17.350   7.296  0.00  0.00     0.180 C 
HETATM    2  C   UNK N   1      31.566  16.116   5.497  0.00  0.00     0.183 C 
HETATM    3  C   UNK N   1      30.362  16.589   4.601  0.00  0.00     0.204 C 
HETATM    4  C   UNK N   1      31.158  16.062   6.996  0.00  0.00     0.187 C 
HETATM    5  C   UNK N   1      29.060  16.562   5.429  0.00  0.00     0.292 C 
HETATM    6  O   UNK N   1      29.169  17.473   6.521  0.00  0.00    -0.348 OA
ENDROOT
BRANCH   4   7
HETATM    7  O   UNK N   1      32.239  15.954   7.918  0.00  0.00    -0.348 OA
BRANCH   7   8
HETATM    8  C   UNK N   1      33.522  16.240   7.369  0.00  0.00     0.292 C 
HETATM    9  C   UNK N   1      34.323  17.158   8.326  0.00  0.00     0.204 C 
HETATM   10  C   UNK N   1      34.839  16.378   9.553  0.00  0.00     0.176 C 
HETATM   11  C   UNK N   1      35.676  15.208   9.016  0.00  0.00     0.137 C 
HETATM   12  C   UNK N   1      34.786  14.345   8.104  0.00  0.00     0.145 C 
HETATM   13  C   UNK N   1      35.593  13.182   7.551  0.00  0.00     0.042 C 
HETATM   14  O   UNK N   1      34.292  15.093   6.996  0.00  0.00    -0.352 OA
BRANCH   9  15
HETATM   15  O   UNK N   1      33.540  18.244   8.721  0.00  0.00    -0.388 OA
HETATM   16  H   UNK N   1      32.743  18.761   8.521  0.00  0.00     0.210 HD
ENDBRANCH   9  15
BRANCH  10  17
HETATM   17  O   UNK N   1      35.632  17.216  10.342  0.00  0.00    -0.391 OA
HETATM   18  H   UNK N   1      35.796  18.139  10.093  0.00  0.00     0.210 HD
ENDBRANCH  10  17
BRANCH  11  19
HETATM   19  N   UNK N   1      36.415  14.426  10.033  0.00  0.00    -0.402 N 
HETATM   20  H   UNK N   1      37.429  14.363   9.953  0.00  0.00     0.154 HD
BRANCH  19  21
HETATM   21  C   UNK N   1      35.757  13.735  11.158  0.00  0.00     0.132 C 
HETATM   22  C   UNK N   1      35.826  12.224  11.053  0.00  0.00     0.008 C 
HETATM   23  C   UNK N   1      36.215  11.407  12.055  0.00  0.00    -0.027 C 
HETATM   24  C   UNK N   1      36.588  11.933  13.426  0.00  0.00     0.180 C 
HETATM   25  C   UNK N   1      36.115  13.380  13.653  0.00  0.00     0.182 C 
HETATM   26  C   UNK N   1      36.480  14.231  12.438  0.00  0.00     0.175 C 
BRANCH  23  27
HETATM   27  C   UNK N   1      36.299   9.936  11.792  0.00  0.00     0.201 C 
BRANCH  27  28
HETATM   28  O   UNK N   1      37.629   9.537  11.670  0.00  0.00    -0.397 OA
HETATM   29  H   UNK N   1      38.542   9.865  11.691  0.00  0.00     0.209 HD
ENDBRANCH  27  28
ENDBRANCH  23  27
BRANCH  24  30
HETATM   30  O   UNK N   1      37.976  11.851  13.566  0.00  0.00    -0.388 OA
HETATM   31  H   UNK N   1      38.786  11.495  13.964  0.00  0.00     0.210 HD
ENDBRANCH  24  30
BRANCH  25  32
HETATM   32  O   UNK N   1      34.731  13.407  13.850  0.00  0.00    -0.390 OA
HETATM   33  H   UNK N   1      33.852  13.429  14.262  0.00  0.00     0.210 HD
ENDBRANCH  25  32
BRANCH  26  34
HETATM   34  O   UNK N   1      36.171  15.572  12.671  0.00  0.00    -0.391 OA
HETATM   35  H   UNK N   1      36.300  15.953  13.555  0.00  0.00     0.210 HD
ENDBRANCH  26  34
ENDBRANCH  19  21
ENDBRANCH  11  19
ENDBRANCH   7   8
ENDBRANCH   4   7
BRANCH   1  36
HETATM   36  C   UNK N   1      29.997  17.455   8.767  0.00  0.00     0.198 C 
BRANCH  36  37
HETATM   37  O   UNK N   1      30.864  18.319   9.425  0.00  0.00    -0.398 OA
HETATM   38  H   UNK N   1      31.828  18.328   9.528  0.00  0.00     0.209 HD
ENDBRANCH  36  37
ENDBRANCH   1  36
BRANCH   2  39
HETATM   39  O   UNK N   1      31.990  14.851   5.087  0.00  0.00    -0.390 OA
HETATM   40  H   UNK N   1      31.951  13.971   4.679  0.00  0.00     0.210 HD
ENDBRANCH   2  39
BRANCH   3  41
HETATM   41  O   UNK N   1      30.583  17.901   4.168  0.00  0.00    -0.388 OA
HETATM   42  H   UNK N   1      30.133  18.755   4.076  0.00  0.00     0.210 HD
ENDBRANCH   3  41
BRANCH   5  43
HETATM   43  O   UNK N   1      27.925  16.923   4.661  0.00  0.00    -0.348 OA
BRANCH  43  44
HETATM   44  C   UNK N   1      26.776  17.404   5.396  0.00  0.00     0.187 C 
BRANCH  44  45
HETATM   45  C   UNK N   1      26.439  18.958   5.258  0.00  0.00     0.173 C 
BRANCH  45  46
HETATM   46  C   UNK N   1      27.189  19.581   4.074  0.00  0.00     0.198 C 
BRANCH  46  47
HETATM   47  O   UNK N   1      28.540  19.777   4.350  0.00  0.00    -0.398 OA
HETATM   48  H   UNK N   1      29.003  20.552   3.994  0.00  0.00     0.209 HD
ENDBRANCH  46  47
ENDBRANCH  45  46
BRANCH  45  49
HETATM   49  O   UNK N   1      26.796  19.699   6.377  0.00  0.00    -0.391 OA
HETATM   50  H   UNK N   1      27.515  19.422   6.967  0.00  0.00     0.210 HD
ENDBRANCH  45  49
ENDBRANCH  44  45
BRANCH  44  51
HETATM   51  C   UNK N   1      25.571  16.482   5.012  0.00  0.00     0.185 C 
BRANCH  51  52
HETATM   52  C   UNK N   1      25.168  16.520   3.504  0.00  0.00     0.210 C 
BRANCH  52  53
HETATM   53  C   UNK N   1      24.119  15.479   3.228  0.00  0.00     0.265 C 
HETATM   54  O   UNK N   1      23.763  14.695   4.094  0.00  0.00    -0.304 OA
ENDBRANCH  52  53
BRANCH  52  55
HETATM   55  O   UNK N   1      26.236  16.334   2.628  0.00  0.00    -0.386 OA
HETATM   56  H   UNK N   1      27.136  16.154   2.943  0.00  0.00     0.210 HD
ENDBRANCH  52  55
ENDBRANCH  51  52
BRANCH  51  57
HETATM   57  O   UNK N   1      24.444  16.905   5.728  0.00  0.00    -0.390 OA
HETATM   58  H   UNK N   1      24.538  17.454   6.523  0.00  0.00     0.210 HD
ENDBRANCH  51  57
ENDBRANCH  44  51
ENDBRANCH  43  44
ENDBRANCH   5  43
TORSDOF 26
ENDMDL
MODEL 4
REMARK VINA RESULT:      -6.8      1.377      1.978
REMARK  26 active torsions:
REMARK  status: ('A' for Active; 'I' for Inactive)
REMARK    1  A    between atoms: C_8  and  C_3 
REMARK    2  A    between atoms: O_27  and  C_3 
REMARK    3  A    between atoms: C_10  and  C_4 
REMARK    4  A    between atoms: C_11  and  C_5 
REMARK    5  A    between atoms: O_29  and  C_5 
REMARK    6  A    between atoms: C_12  and  C_6 
REMARK    7  A    between atoms: O_30  and  C_6 
REMARK    8  A    between atoms: C_9  and  N_26 
REMARK    9  A    between atoms: C_16  and  C_10 
REMARK   10  A    between atoms: C_10  and  O_31 
REMARK   11  A    between atoms: C_22  and  C_11 
REMARK   12  A    between atoms: C_11  and  O_32 
REMARK   13  A    between atoms: C_13  and  N_26 
REMARK   14  A    between atoms: C_14  and  O_33 
REMARK   15  A    between atoms: C_15  and  O_34 
REMARK   16  A    between atoms: C_22  and  C_16 
REMARK   17  A    between atoms: C_16  and  O_35 
REMARK   18  A    between atoms: C_17  and  O_36 
REMARK   19  A    between atoms: C_18  and  O_37 
REMARK   20  A    between atoms: C_19  and  O_38 
REMARK   21  A    between atoms: C_20  and  O_39 
REMARK   22  A    between atoms: C_21  and  O_40 
REMARK   23  A    between atoms: C_22  and  O_43 
REMARK   24  A    between atoms: C_23  and  O_44 
REMARK   25  A    between atoms: C_24  and  O_44 
REMARK   26  A    between atoms: C_25  and  O_43 
ROOT
HETATM    1  C   UNK N   1      26.103  18.281   3.966  0.00  0.00     0.180 C 
HETATM    2  C   UNK N   1      26.138  16.507   5.711  0.00  0.00     0.183 C 
HETATM    3  C   UNK N   1      24.595  16.419   5.414  0.00  0.00     0.204 C 
HETATM    4  C   UNK N   1      26.699  17.908   5.337  0.00  0.00     0.187 C 
HETATM    5  C   UNK N   1      24.042  17.832   5.133  0.00  0.00     0.292 C 
HETATM    6  O   UNK N   1      24.673  18.371   3.973  0.00  0.00    -0.348 OA
ENDROOT
BRANCH   4   7
HETATM    7  O   UNK N   1      28.119  17.996   5.268  0.00  0.00    -0.348 OA
BRANCH   7   8
HETATM    8  C   UNK N   1      28.798  16.745   5.320  0.00  0.00     0.292 C 
HETATM    9  C   UNK N   1      29.897  16.685   4.231  0.00  0.00     0.204 C 
HETATM   10  C   UNK N   1      31.116  17.550   4.613  0.00  0.00     0.176 C 
HETATM   11  C   UNK N   1      31.608  17.047   5.978  0.00  0.00     0.137 C 
HETATM   12  C   UNK N   1      30.457  17.175   6.991  0.00  0.00     0.145 C 
HETATM   13  C   UNK N   1      30.913  16.676   8.352  0.00  0.00     0.042 C 
HETATM   14  O   UNK N   1      29.329  16.396   6.602  0.00  0.00    -0.352 OA
BRANCH   9  15
HETATM   15  O   UNK N   1      29.377  17.078   2.996  0.00  0.00    -0.388 OA
HETATM   16  H   UNK N   1      29.459  16.979   2.034  0.00  0.00     0.210 HD
ENDBRANCH   9  15
BRANCH  10  17
HETATM   17  O   UNK N   1      32.121  17.396   3.653  0.00  0.00    -0.391 OA
HETATM   18  H   UNK N   1      32.856  16.776   3.783  0.00  0.00     0.210 HD
ENDBRANCH  10  17
BRANCH  11  19
HETATM   19  N   UNK N   1      32.884  17.627   6.455  0.00  0.00    -0.402 N 
HETATM   20  H   UNK N   1      32.959  18.641   6.526  0.00  0.00     0.154 HD
BRANCH  19  21
HETATM   21  C   UNK N   1      34.052  16.811   6.835  0.00  0.00     0.132 C 
HETATM   22  C   UNK N   1      34.234  16.692   8.336  0.00  0.00     0.008 C 
HETATM   23  C   UNK N   1      34.437  15.529   8.990  0.00  0.00    -0.027 C 
HETATM   24  C   UNK N   1      34.545  14.203   8.264  0.00  0.00     0.180 C 
HETATM   25  C   UNK N   1      34.787  14.375   6.754  0.00  0.00     0.182 C 
HETATM   26  C   UNK N   1      33.816  15.416   6.199  0.00  0.00     0.175 C 
BRANCH  23  27
HETATM   27  C   UNK N   1      34.536  15.550  10.483  0.00  0.00     0.201 C 
BRANCH  27  28
HETATM   28  O   UNK N   1      33.383  15.015  11.057  0.00  0.00    -0.397 OA
HETATM   29  H   UNK N   1      32.629  14.430  10.881  0.00  0.00     0.209 HD
ENDBRANCH  27  28
ENDBRANCH  23  27
BRANCH  24  30
HETATM   30  O   UNK N   1      33.370  13.482   8.486  0.00  0.00    -0.388 OA
HETATM   31  H   UNK N   1      32.582  13.248   9.004  0.00  0.00     0.210 HD
ENDBRANCH  24  30
BRANCH  25  32
HETATM   32  O   UNK N   1      36.103  14.785   6.521  0.00  0.00    -0.390 OA
HETATM   33  H   UNK N   1      37.027  14.817   6.226  0.00  0.00     0.210 HD
ENDBRANCH  25  32
BRANCH  26  34
HETATM   34  O   UNK N   1      33.932  15.500   4.810  0.00  0.00    -0.391 OA
HETATM   35  H   UNK N   1      33.250  15.108   4.241  0.00  0.00     0.210 HD
ENDBRANCH  26  34
ENDBRANCH  19  21
ENDBRANCH  11  19
ENDBRANCH   7   8
ENDBRANCH   4   7
BRANCH   1  36
HETATM   36  C   UNK N   1      26.661  19.598   3.449  0.00  0.00     0.198 C 
BRANCH  36  37
HETATM   37  O   UNK N   1      25.634  20.507   3.224  0.00  0.00    -0.398 OA
HETATM   38  H   UNK N   1      24.802  20.447   2.730  0.00  0.00     0.209 HD
ENDBRANCH  36  37
ENDBRANCH   1  36
BRANCH   2  39
HETATM   39  O   UNK N   1      26.372  16.261   7.065  0.00  0.00    -0.390 OA
HETATM   40  H   UNK N   1      26.683  15.801   7.860  0.00  0.00     0.210 HD
ENDBRANCH   2  39
BRANCH   3  41
HETATM   41  O   UNK N   1      24.376  15.626   4.282  0.00  0.00    -0.388 OA
HETATM   42  H   UNK N   1      23.790  15.545   3.515  0.00  0.00     0.210 HD
ENDBRANCH   3  41
BRANCH   5  43
HETATM   43  O   UNK N   1      22.642  17.829   4.915  0.00  0.00    -0.348 OA
BRANCH  43  44
HETATM   44  C   UNK N   1      22.203  17.919   3.539  0.00  0.00     0.187 C 
BRANCH  44  45
HETATM   45  C   UNK N   1      21.342  16.695   2.983  0.00  0.00     0.173 C 
BRANCH  45  46
HETATM   46  C   UNK N   1      20.553  16.019   4.109  0.00  0.00     0.198 C 
BRANCH  46  47
HETATM   47  O   UNK N   1      21.361  15.215   4.910  0.00  0.00    -0.398 OA
HETATM   48  H   UNK N   1      22.217  14.901   4.579  0.00  0.00     0.209 HD
ENDBRANCH  46  47
ENDBRANCH  45  46
BRANCH  45  49
HETATM   49  O   UNK N   1      22.115  15.701   2.398  0.00  0.00    -0.391 OA
HETATM   50  H   UNK N   1      22.853  15.281   2.869  0.00  0.00     0.210 HD
ENDBRANCH  45  49
ENDBRANCH  44  45
BRANCH  44  51
HETATM   51  C   UNK N   1      21.480  19.297   3.380  0.00  0.00     0.185 C 
BRANCH  51  52
HETATM   52  C   UNK N   1      20.519  19.397   2.154  0.00  0.00     0.210 C 
BRANCH  52  53
HETATM   53  C   UNK N   1      20.762  20.685   1.417  0.00  0.00     0.265 C 
HETATM   54  O   UNK N   1      21.449  20.716   0.407  0.00  0.00    -0.304 OA
ENDBRANCH  52  53
BRANCH  52  55
HETATM   55  O   UNK N   1      19.168  19.311   2.484  0.00  0.00    -0.386 OA
HETATM   56  H   UNK N   1      18.856  18.799   3.247  0.00  0.00     0.210 HD
ENDBRANCH  52  55
ENDBRANCH  51  52
BRANCH  51  57
HETATM   57  O   UNK N   1      22.452  20.289   3.197  0.00  0.00    -0.390 OA
HETATM   58  H   UNK N   1      23.201  20.369   3.809  0.00  0.00     0.210 HD
ENDBRANCH  51  57
ENDBRANCH  44  51
ENDBRANCH  43  44
ENDBRANCH   5  43
TORSDOF 26
ENDMDL
MODEL 5
REMARK VINA RESULT:      -6.8      3.801     12.658
REMARK  26 active torsions:
REMARK  status: ('A' for Active; 'I' for Inactive)
REMARK    1  A    between atoms: C_8  and  C_3 
REMARK    2  A    between atoms: O_27  and  C_3 
REMARK    3  A    between atoms: C_10  and  C_4 
REMARK    4  A    between atoms: C_11  and  C_5 
REMARK    5  A    between atoms: O_29  and  C_5 
REMARK    6  A    between atoms: C_12  and  C_6 
REMARK    7  A    between atoms: O_30  and  C_6 
REMARK    8  A    between atoms: C_9  and  N_26 
REMARK    9  A    between atoms: C_16  and  C_10 
REMARK   10  A    between atoms: C_10  and  O_31 
REMARK   11  A    between atoms: C_22  and  C_11 
REMARK   12  A    between atoms: C_11  and  O_32 
REMARK   13  A    between atoms: C_13  and  N_26 
REMARK   14  A    between atoms: C_14  and  O_33 
REMARK   15  A    between atoms: C_15  and  O_34 
REMARK   16  A    between atoms: C_22  and  C_16 
REMARK   17  A    between atoms: C_16  and  O_35 
REMARK   18  A    between atoms: C_17  and  O_36 
REMARK   19  A    between atoms: C_18  and  O_37 
REMARK   20  A    between atoms: C_19  and  O_38 
REMARK   21  A    between atoms: C_20  and  O_39 
REMARK   22  A    between atoms: C_21  and  O_40 
REMARK   23  A    between atoms: C_22  and  O_43 
REMARK   24  A    between atoms: C_23  and  O_44 
REMARK   25  A    between atoms: C_24  and  O_44 
REMARK   26  A    between atoms: C_25  and  O_43 
ROOT
HETATM    1  C   UNK N   1      36.000  14.022   8.994  0.00  0.00     0.180 C 
HETATM    2  C   UNK N   1      34.346  15.089  10.517  0.00  0.00     0.183 C 
HETATM    3  C   UNK N   1      35.294  14.551  11.651  0.00  0.00     0.204 C 
HETATM    4  C   UNK N   1      34.492  14.243   9.220  0.00  0.00     0.187 C 
HETATM    5  C   UNK N   1      35.854  13.171  11.245  0.00  0.00     0.292 C 
HETATM    6  O   UNK N   1      36.634  13.303  10.058  0.00  0.00    -0.348 OA
ENDROOT
BRANCH   4   7
HETATM    7  O   UNK N   1      33.925  14.824   8.048  0.00  0.00    -0.348 OA
BRANCH   7   8
HETATM    8  C   UNK N   1      33.945  16.248   8.018  0.00  0.00     0.292 C 
HETATM    9  C   UNK N   1      34.123  16.751   6.564  0.00  0.00     0.204 C 
HETATM   10  C   UNK N   1      32.824  16.586   5.748  0.00  0.00     0.176 C 
HETATM   11  C   UNK N   1      31.725  17.345   6.506  0.00  0.00     0.137 C 
HETATM   12  C   UNK N   1      31.608  16.753   7.922  0.00  0.00     0.145 C 
HETATM   13  C   UNK N   1      30.530  17.490   8.699  0.00  0.00     0.042 C 
HETATM   14  O   UNK N   1      32.828  16.884   8.646  0.00  0.00    -0.352 OA
BRANCH   9  15
HETATM   15  O   UNK N   1      35.184  16.084   5.948  0.00  0.00    -0.388 OA
HETATM   16  H   UNK N   1      35.454  15.262   5.508  0.00  0.00     0.210 HD
ENDBRANCH   9  15
BRANCH  10  17
HETATM   17  O   UNK N   1      32.997  17.135   4.474  0.00  0.00    -0.391 OA
HETATM   18  H   UNK N   1      33.156  16.574   3.698  0.00  0.00     0.210 HD
ENDBRANCH  10  17
BRANCH  11  19
HETATM   19  N   UNK N   1      30.426  17.464   5.805  0.00  0.00    -0.402 N 
HETATM   20  H   UNK N   1      29.994  18.385   5.739  0.00  0.00     0.154 HD
BRANCH  19  21
HETATM   21  C   UNK N   1      29.726  16.317   5.198  0.00  0.00     0.132 C 
HETATM   22  C   UNK N   1      28.517  15.865   5.994  0.00  0.00     0.008 C 
HETATM   23  C   UNK N   1      27.296  15.640   5.464  0.00  0.00    -0.027 C 
HETATM   24  C   UNK N   1      27.022  15.780   3.981  0.00  0.00     0.180 C 
HETATM   25  C   UNK N   1      28.311  15.815   3.142  0.00  0.00     0.182 C 
HETATM   26  C   UNK N   1      29.306  16.783   3.779  0.00  0.00     0.175 C 
BRANCH  23  27
HETATM   27  C   UNK N   1      26.174  15.260   6.378  0.00  0.00     0.201 C 
BRANCH  27  28
HETATM   28  O   UNK N   1      25.137  16.187   6.291  0.00  0.00    -0.397 OA
HETATM   29  H   UNK N   1      24.211  16.340   6.538  0.00  0.00     0.209 HD
ENDBRANCH  27  28
ENDBRANCH  23  27
BRANCH  24  30
HETATM   30  O   UNK N   1      26.282  16.948   3.778  0.00  0.00    -0.388 OA
HETATM   31  H   UNK N   1      25.505  17.437   3.464  0.00  0.00     0.210 HD
ENDBRANCH  24  30
BRANCH  25  32
HETATM   32  O   UNK N   1      28.874  14.536   3.073  0.00  0.00    -0.390 OA
HETATM   33  H   UNK N   1      28.994  13.580   2.961  0.00  0.00     0.210 HD
ENDBRANCH  25  32
BRANCH  26  34
HETATM   34  O   UNK N   1      30.436  16.924   2.970  0.00  0.00    -0.391 OA
HETATM   35  H   UNK N   1      30.720  17.807   2.684  0.00  0.00     0.210 HD
ENDBRANCH  26  34
ENDBRANCH  19  21
ENDBRANCH  11  19
ENDBRANCH   7   8
ENDBRANCH   4   7
BRANCH   1  36
HETATM   36  C   UNK N   1      36.272  13.286   7.691  0.00  0.00     0.198 C 
BRANCH  36  37
HETATM   37  O   UNK N   1      36.866  14.137   6.767  0.00  0.00    -0.398 OA
HETATM   38  H   UNK N   1      37.735  14.567   6.736  0.00  0.00     0.209 HD
ENDBRANCH  36  37
ENDBRANCH   1  36
BRANCH   2  39
HETATM   39  O   UNK N   1      33.019  15.044  10.950  0.00  0.00    -0.390 OA
HETATM   40  H   UNK N   1      32.254  14.808  11.497  0.00  0.00     0.210 HD
ENDBRANCH   2  39
BRANCH   3  41
HETATM   41  O   UNK N   1      36.368  15.430  11.824  0.00  0.00    -0.388 OA
HETATM   42  H   UNK N   1      36.877  16.108  11.355  0.00  0.00     0.210 HD
ENDBRANCH   3  41
BRANCH   5  43
HETATM   43  O   UNK N   1      36.673  12.604  12.253  0.00  0.00    -0.348 OA
BRANCH  43  44
HETATM   44  C   UNK N   1      35.989  11.956  13.351  0.00  0.00     0.187 C 
BRANCH  44  45
HETATM   45  C   UNK N   1      35.447  10.479  13.083  0.00  0.00     0.173 C 
BRANCH  45  46
HETATM   46  C   UNK N   1      34.665   9.952  14.292  0.00  0.00     0.198 C 
BRANCH  46  47
HETATM   47  O   UNK N   1      33.487  10.664  14.509  0.00  0.00    -0.398 OA
HETATM   48  H   UNK N   1      32.636  10.200  14.536  0.00  0.00     0.209 HD
ENDBRANCH  46  47
ENDBRANCH  45  46
BRANCH  45  49
HETATM   49  O   UNK N   1      36.458   9.558  12.842  0.00  0.00    -0.391 OA
HETATM   50  H   UNK N   1      36.833   9.011  13.551  0.00  0.00     0.210 HD
ENDBRANCH  45  49
ENDBRANCH  44  45
BRANCH  44  51
HETATM   51  C   UNK N   1      36.936  12.044  14.593  0.00  0.00     0.185 C 
BRANCH  51  52
HETATM   52  C   UNK N   1      36.822  13.366  15.415  0.00  0.00     0.210 C 
BRANCH  52  53
HETATM   53  C   UNK N   1      35.570  13.346  16.246  0.00  0.00     0.265 C 
HETATM   54  O   UNK N   1      34.466  13.290  15.726  0.00  0.00    -0.304 OA
ENDBRANCH  52  53
BRANCH  52  55
HETATM   55  O   UNK N   1      36.831  14.520  14.634  0.00  0.00    -0.386 OA
HETATM   56  H   UNK N   1      36.131  14.713  13.991  0.00  0.00     0.210 HD
ENDBRANCH  52  55
ENDBRANCH  51  52
BRANCH  51  57
HETATM   57  O   UNK N   1      38.262  11.976  14.145  0.00  0.00    -0.390 OA
HETATM   58  H   UNK N   1      38.930  12.598  14.474  0.00  0.00     0.210 HD
ENDBRANCH  51  57
ENDBRANCH  44  51
ENDBRANCH  43  44
ENDBRANCH   5  43
TORSDOF 26
ENDMDL
MODEL 6
REMARK VINA RESULT:      -6.7      3.181     12.769
REMARK  26 active torsions:
REMARK  status: ('A' for Active; 'I' for Inactive)
REMARK    1  A    between atoms: C_8  and  C_3 
REMARK    2  A    between atoms: O_27  and  C_3 
REMARK    3  A    between atoms: C_10  and  C_4 
REMARK    4  A    between atoms: C_11  and  C_5 
REMARK    5  A    between atoms: O_29  and  C_5 
REMARK    6  A    between atoms: C_12  and  C_6 
REMARK    7  A    between atoms: O_30  and  C_6 
REMARK    8  A    between atoms: C_9  and  N_26 
REMARK    9  A    between atoms: C_16  and  C_10 
REMARK   10  A    between atoms: C_10  and  O_31 
REMARK   11  A    between atoms: C_22  and  C_11 
REMARK   12  A    between atoms: C_11  and  O_32 
REMARK   13  A    between atoms: C_13  and  N_26 
REMARK   14  A    between atoms: C_14  and  O_33 
REMARK   15  A    between atoms: C_15  and  O_34 
REMARK   16  A    between atoms: C_22  and  C_16 
REMARK   17  A    between atoms: C_16  and  O_35 
REMARK   18  A    between atoms: C_17  and  O_36 
REMARK   19  A    between atoms: C_18  and  O_37 
REMARK   20  A    between atoms: C_19  and  O_38 
REMARK   21  A    between atoms: C_20  and  O_39 
REMARK   22  A    between atoms: C_21  and  O_40 
REMARK   23  A    between atoms: C_22  and  O_43 
REMARK   24  A    between atoms: C_23  and  O_44 
REMARK   25  A    between atoms: C_24  and  O_44 
REMARK   26  A    between atoms: C_25  and  O_43 
ROOT
HETATM    1  C   UNK N   1      34.565  14.039   9.459  0.00  0.00     0.180 C 
HETATM    2  C   UNK N   1      35.574  16.283   9.837  0.00  0.00     0.183 C 
HETATM    3  C   UNK N   1      36.279  15.576  11.053  0.00  0.00     0.204 C 
HETATM    4  C   UNK N   1      34.258  15.549   9.451  0.00  0.00     0.187 C 
HETATM    5  C   UNK N   1      35.309  14.560  11.692  0.00  0.00     0.292 C 
HETATM    6  O   UNK N   1      34.979  13.550  10.740  0.00  0.00    -0.348 OA
ENDROOT
BRANCH   4   7
HETATM    7  O   UNK N   1      33.711  15.907   8.185  0.00  0.00    -0.348 OA
BRANCH   7   8
HETATM    8  C   UNK N   1      33.262  17.256   8.089  0.00  0.00     0.292 C 
HETATM    9  C   UNK N   1      33.117  17.668   6.603  0.00  0.00     0.204 C 
HETATM   10  C   UNK N   1      31.866  17.031   5.962  0.00  0.00     0.176 C 
HETATM   11  C   UNK N   1      30.663  17.460   6.815  0.00  0.00     0.137 C 
HETATM   12  C   UNK N   1      30.891  16.980   8.260  0.00  0.00     0.145 C 
HETATM   13  C   UNK N   1      29.718  17.398   9.131  0.00  0.00     0.042 C 
HETATM   14  O   UNK N   1      32.069  17.552   8.821  0.00  0.00    -0.352 OA
BRANCH   9  15
HETATM   15  O   UNK N   1      34.268  17.325   5.891  0.00  0.00    -0.388 OA
HETATM   16  H   UNK N   1      34.636  17.175   5.006  0.00  0.00     0.210 HD
ENDBRANCH   9  15
BRANCH  10  17
HETATM   17  O   UNK N   1      31.719  17.500   4.653  0.00  0.00    -0.391 OA
HETATM   18  H   UNK N   1      30.859  17.488   4.204  0.00  0.00     0.210 HD
ENDBRANCH  10  17
BRANCH  11  19
HETATM   19  N   UNK N   1      29.332  17.101   6.276  0.00  0.00    -0.402 N 
HETATM   20  H   UNK N   1      28.915  16.216   6.563  0.00  0.00     0.154 HD
BRANCH  19  21
HETATM   21  C   UNK N   1      28.578  17.960   5.344  0.00  0.00     0.132 C 
HETATM   22  C   UNK N   1      27.920  17.186   4.218  0.00  0.00     0.008 C 
HETATM   23  C   UNK N   1      26.629  17.325   3.850  0.00  0.00    -0.027 C 
HETATM   24  C   UNK N   1      25.703  18.322   4.517  0.00  0.00     0.180 C 
HETATM   25  C   UNK N   1      26.463  19.377   5.339  0.00  0.00     0.182 C 
HETATM   26  C   UNK N   1      27.514  18.686   6.207  0.00  0.00     0.175 C 
BRANCH  23  27
HETATM   27  C   UNK N   1      26.092  16.449   2.762  0.00  0.00     0.201 C 
BRANCH  27  28
HETATM   28  O   UNK N   1      25.121  15.584   3.265  0.00  0.00    -0.397 OA
HETATM   29  H   UNK N   1      24.316  15.099   3.025  0.00  0.00     0.209 HD
ENDBRANCH  27  28
ENDBRANCH  23  27
BRANCH  24  30
HETATM   30  O   UNK N   1      24.816  17.618   5.337  0.00  0.00    -0.388 OA
HETATM   31  H   UNK N   1      23.997  17.530   5.850  0.00  0.00     0.210 HD
ENDBRANCH  24  30
BRANCH  25  32
HETATM   32  O   UNK N   1      27.086  20.294   4.485  0.00  0.00    -0.390 OA
HETATM   33  H   UNK N   1      27.647  21.005   4.137  0.00  0.00     0.210 HD
ENDBRANCH  25  32
BRANCH  26  34
HETATM   34  O   UNK N   1      28.132  19.609   7.052  0.00  0.00    -0.391 OA
HETATM   35  H   UNK N   1      29.051  19.470   7.333  0.00  0.00     0.210 HD
ENDBRANCH  26  34
ENDBRANCH  19  21
ENDBRANCH  11  19
ENDBRANCH   7   8
ENDBRANCH   4   7
BRANCH   1  36
HETATM   36  C   UNK N   1      33.370  13.219   8.997  0.00  0.00     0.198 C 
BRANCH  36  37
HETATM   37  O   UNK N   1      32.183  13.836   9.374  0.00  0.00    -0.398 OA
HETATM   38  H   UNK N   1      31.269  13.518   9.435  0.00  0.00     0.209 HD
ENDBRANCH  36  37
ENDBRANCH   1  36
BRANCH   2  39
HETATM   39  O   UNK N   1      35.285  17.609  10.165  0.00  0.00    -0.390 OA
HETATM   40  H   UNK N   1      35.047  18.541  10.039  0.00  0.00     0.210 HD
ENDBRANCH   2  39
BRANCH   3  41
HETATM   41  O   UNK N   1      37.411  14.886  10.607  0.00  0.00    -0.388 OA
HETATM   42  H   UNK N   1      38.157  14.968   9.994  0.00  0.00     0.210 HD
ENDBRANCH   3  41
BRANCH   5  43
HETATM   43  O   UNK N   1      35.865  13.928  12.833  0.00  0.00    -0.348 OA
BRANCH  43  44
HETATM   44  C   UNK N   1      35.241  12.693  13.255  0.00  0.00     0.187 C 
BRANCH  44  45
HETATM   45  C   UNK N   1      36.036  11.346  12.937  0.00  0.00     0.173 C 
BRANCH  45  46
HETATM   46  C   UNK N   1      37.481  11.645  12.521  0.00  0.00     0.198 C 
BRANCH  46  47
HETATM   47  O   UNK N   1      37.573  12.053  11.191  0.00  0.00    -0.398 OA
HETATM   48  H   UNK N   1      36.947  12.704  10.838  0.00  0.00     0.209 HD
ENDBRANCH  46  47
ENDBRANCH  45  46
BRANCH  45  49
HETATM   49  O   UNK N   1      35.477  10.610  11.901  0.00  0.00    -0.391 OA
HETATM   50  H   UNK N   1      34.937   9.821  12.066  0.00  0.00     0.210 HD
ENDBRANCH  45  49
ENDBRANCH  44  45
BRANCH  44  51
HETATM   51  C   UNK N   1      34.893  12.854  14.772  0.00  0.00     0.185 C 
BRANCH  51  52
HETATM   52  C   UNK N   1      36.127  12.998  15.718  0.00  0.00     0.210 C 
BRANCH  52  53
HETATM   53  C   UNK N   1      35.685  13.503  17.063  0.00  0.00     0.265 C 
HETATM   54  O   UNK N   1      34.933  12.848  17.768  0.00  0.00    -0.304 OA
ENDBRANCH  52  53
BRANCH  52  55
HETATM   55  O   UNK N   1      37.124  13.837  15.223  0.00  0.00    -0.386 OA
HETATM   56  H   UNK N   1      38.063  13.595  15.251  0.00  0.00     0.210 HD
ENDBRANCH  52  55
ENDBRANCH  51  52
BRANCH  51  57
HETATM   57  O   UNK N   1      34.211  11.705  15.194  0.00  0.00    -0.390 OA
HETATM   58  H   UNK N   1      33.812  11.100  14.549  0.00  0.00     0.210 HD
ENDBRANCH  51  57
ENDBRANCH  44  51
ENDBRANCH  43  44
ENDBRANCH   5  43
TORSDOF 26
ENDMDL
MODEL 7
REMARK VINA RESULT:      -6.7      1.540      3.142
REMARK  26 active torsions:
REMARK  status: ('A' for Active; 'I' for Inactive)
REMARK    1  A    between atoms: C_8  and  C_3 
REMARK    2  A    between atoms: O_27  and  C_3 
REMARK    3  A    between atoms: C_10  and  C_4 
REMARK    4  A    between atoms: C_11  and  C_5 
REMARK    5  A    between atoms: O_29  and  C_5 
REMARK    6  A    between atoms: C_12  and  C_6 
REMARK    7  A    between atoms: O_30  and  C_6 
REMARK    8  A    between atoms: C_9  and  N_26 
REMARK    9  A    between atoms: C_16  and  C_10 
REMARK   10  A    between atoms: C_10  and  O_31 
REMARK   11  A    between atoms: C_22  and  C_11 
REMARK   12  A    between atoms: C_11  and  O_32 
REMARK   13  A    between atoms: C_13  and  N_26 
REMARK   14  A    between atoms: C_14  and  O_33 
REMARK   15  A    between atoms: C_15  and  O_34 
REMARK   16  A    between atoms: C_22  and  C_16 
REMARK   17  A    between atoms: C_16  and  O_35 
REMARK   18  A    between atoms: C_17  and  O_36 
REMARK   19  A    between atoms: C_18  and  O_37 
REMARK   20  A    between atoms: C_19  and  O_38 
REMARK   21  A    between atoms: C_20  and  O_39 
REMARK   22  A    between atoms: C_21  and  O_40 
REMARK   23  A    between atoms: C_22  and  O_43 
REMARK   24  A    between atoms: C_23  and  O_44 
REMARK   25  A    between atoms: C_24  and  O_44 
REMARK   26  A    between atoms: C_25  and  O_43 
ROOT
HETATM    1  C   UNK N   1      26.099  18.524   3.844  0.00  0.00     0.180 C 
HETATM    2  C   UNK N   1      25.863  16.445   5.192  0.00  0.00     0.183 C 
HETATM    3  C   UNK N   1      24.434  16.382   4.536  0.00  0.00     0.204 C 
HETATM    4  C   UNK N   1      26.398  17.905   5.222  0.00  0.00     0.187 C 
HETATM    5  C   UNK N   1      23.865  17.810   4.400  0.00  0.00     0.292 C 
HETATM    6  O   UNK N   1      24.701  18.578   3.537  0.00  0.00    -0.348 OA
ENDROOT
BRANCH   4   7
HETATM    7  O   UNK N   1      27.790  18.036   5.500  0.00  0.00    -0.348 OA
BRANCH   7   8
HETATM    8  C   UNK N   1      28.516  16.811   5.506  0.00  0.00     0.292 C 
HETATM    9  C   UNK N   1      29.599  16.823   4.399  0.00  0.00     0.204 C 
HETATM   10  C   UNK N   1      30.790  17.723   4.787  0.00  0.00     0.176 C 
HETATM   11  C   UNK N   1      31.323  17.201   6.129  0.00  0.00     0.137 C 
HETATM   12  C   UNK N   1      30.184  17.257   7.163  0.00  0.00     0.145 C 
HETATM   13  C   UNK N   1      30.682  16.738   8.502  0.00  0.00     0.042 C 
HETATM   14  O   UNK N   1      29.081  16.446   6.770  0.00  0.00    -0.352 OA
BRANCH   9  15
HETATM   15  O   UNK N   1      29.043  17.231   3.184  0.00  0.00    -0.388 OA
HETATM   16  H   UNK N   1      28.221  17.481   2.734  0.00  0.00     0.210 HD
ENDBRANCH   9  15
BRANCH  10  17
HETATM   17  O   UNK N   1      31.784  17.635   3.807  0.00  0.00    -0.391 OA
HETATM   18  H   UNK N   1      32.523  18.263   3.777  0.00  0.00     0.210 HD
ENDBRANCH  10  17
BRANCH  11  19
HETATM   19  N   UNK N   1      32.584  17.816   6.603  0.00  0.00    -0.402 N 
HETATM   20  H   UNK N   1      32.611  18.826   6.735  0.00  0.00     0.154 HD
BRANCH  19  21
HETATM   21  C   UNK N   1      33.803  17.039   6.895  0.00  0.00     0.132 C 
HETATM   22  C   UNK N   1      34.037  16.831   8.379  0.00  0.00     0.008 C 
HETATM   23  C   UNK N   1      34.319  15.639   8.947  0.00  0.00    -0.027 C 
HETATM   24  C   UNK N   1      34.472  14.372   8.130  0.00  0.00     0.180 C 
HETATM   25  C   UNK N   1      34.658  14.655   6.628  0.00  0.00     0.182 C 
HETATM   26  C   UNK N   1      33.619  15.679   6.172  0.00  0.00     0.175 C 
BRANCH  23  27
HETATM   27  C   UNK N   1      34.462  15.566  10.434  0.00  0.00     0.201 C 
BRANCH  27  28
HETATM   28  O   UNK N   1      33.335  14.978  11.006  0.00  0.00    -0.397 OA
HETATM   29  H   UNK N   1      32.952  14.125  11.263  0.00  0.00     0.209 HD
ENDBRANCH  27  28
ENDBRANCH  23  27
BRANCH  24  30
HETATM   30  O   UNK N   1      33.342  13.576   8.335  0.00  0.00    -0.388 OA
HETATM   31  H   UNK N   1      32.669  12.939   8.048  0.00  0.00     0.210 HD
ENDBRANCH  24  30
BRANCH  25  32
HETATM   32  O   UNK N   1      35.944  15.150   6.389  0.00  0.00    -0.390 OA
HETATM   33  H   UNK N   1      36.909  15.235   6.325  0.00  0.00     0.210 HD
ENDBRANCH  25  32
BRANCH  26  34
HETATM   34  O   UNK N   1      33.688  15.860   4.789  0.00  0.00    -0.391 OA
HETATM   35  H   UNK N   1      33.675  16.756   4.416  0.00  0.00     0.210 HD
ENDBRANCH  26  34
ENDBRANCH  19  21
ENDBRANCH  11  19
ENDBRANCH   7   8
ENDBRANCH   4   7
BRANCH   1  36
HETATM   36  C   UNK N   1      26.670  19.928   3.721  0.00  0.00     0.198 C 
BRANCH  36  37
HETATM   37  O   UNK N   1      28.047  19.879   3.541  0.00  0.00    -0.398 OA
HETATM   38  H   UNK N   1      28.789  19.841   4.163  0.00  0.00     0.209 HD
ENDBRANCH  36  37
ENDBRANCH   1  36
BRANCH   2  39
HETATM   39  O   UNK N   1      25.806  15.946   6.494  0.00  0.00    -0.390 OA
HETATM   40  H   UNK N   1      26.088  15.483   7.299  0.00  0.00     0.210 HD
ENDBRANCH   2  39
BRANCH   3  41
HETATM   41  O   UNK N   1      24.526  15.820   3.258  0.00  0.00    -0.388 OA
HETATM   42  H   UNK N   1      24.486  14.967   2.799  0.00  0.00     0.210 HD
ENDBRANCH   3  41
BRANCH   5  43
HETATM   43  O   UNK N   1      22.551  17.818   3.867  0.00  0.00    -0.348 OA
BRANCH  43  44
HETATM   44  C   UNK N   1      21.588  18.663   4.539  0.00  0.00     0.187 C 
BRANCH  44  45
HETATM   45  C   UNK N   1      20.771  19.683   3.623  0.00  0.00     0.173 C 
BRANCH  45  46
HETATM   46  C   UNK N   1      20.207  18.979   2.383  0.00  0.00     0.198 C 
BRANCH  46  47
HETATM   47  O   UNK N   1      18.835  18.757   2.481  0.00  0.00    -0.398 OA
HETATM   48  H   UNK N   1      18.482  17.855   2.428  0.00  0.00     0.209 HD
ENDBRANCH  46  47
ENDBRANCH  45  46
BRANCH  45  49
HETATM   49  O   UNK N   1      21.541  20.738   3.154  0.00  0.00    -0.391 OA
HETATM   50  H   UNK N   1      22.266  20.604   2.523  0.00  0.00     0.210 HD
ENDBRANCH  45  49
ENDBRANCH  44  45
BRANCH  44  51
HETATM   51  C   UNK N   1      20.663  17.721   5.379  0.00  0.00     0.185 C 
BRANCH  51  52
HETATM   52  C   UNK N   1      21.020  17.632   6.896  0.00  0.00     0.210 C 
BRANCH  52  53
HETATM   53  C   UNK N   1      20.368  16.422   7.506  0.00  0.00     0.265 C 
HETATM   54  O   UNK N   1      19.190  16.169   7.304  0.00  0.00    -0.304 OA
ENDBRANCH  52  53
BRANCH  52  55
HETATM   55  O   UNK N   1      20.658  18.761   7.629  0.00  0.00    -0.386 OA
HETATM   56  H   UNK N   1      19.744  18.921   7.913  0.00  0.00     0.210 HD
ENDBRANCH  52  55
ENDBRANCH  51  52
BRANCH  51  57
HETATM   57  O   UNK N   1      20.781  16.419   4.874  0.00  0.00    -0.390 OA
HETATM   58  H   UNK N   1      20.684  16.245   3.924  0.00  0.00     0.210 HD
ENDBRANCH  51  57
ENDBRANCH  44  51
ENDBRANCH  43  44
ENDBRANCH   5  43
TORSDOF 26
ENDMDL
MODEL 8
REMARK VINA RESULT:      -6.6      2.208      3.550
REMARK  26 active torsions:
REMARK  status: ('A' for Active; 'I' for Inactive)
REMARK    1  A    between atoms: C_8  and  C_3 
REMARK    2  A    between atoms: O_27  and  C_3 
REMARK    3  A    between atoms: C_10  and  C_4 
REMARK    4  A    between atoms: C_11  and  C_5 
REMARK    5  A    between atoms: O_29  and  C_5 
REMARK    6  A    between atoms: C_12  and  C_6 
REMARK    7  A    between atoms: O_30  and  C_6 
REMARK    8  A    between atoms: C_9  and  N_26 
REMARK    9  A    between atoms: C_16  and  C_10 
REMARK   10  A    between atoms: C_10  and  O_31 
REMARK   11  A    between atoms: C_22  and  C_11 
REMARK   12  A    between atoms: C_11  and  O_32 
REMARK   13  A    between atoms: C_13  and  N_26 
REMARK   14  A    between atoms: C_14  and  O_33 
REMARK   15  A    between atoms: C_15  and  O_34 
REMARK   16  A    between atoms: C_22  and  C_16 
REMARK   17  A    between atoms: C_16  and  O_35 
REMARK   18  A    between atoms: C_17  and  O_36 
REMARK   19  A    between atoms: C_18  and  O_37 
REMARK   20  A    between atoms: C_19  and  O_38 
REMARK   21  A    between atoms: C_20  and  O_39 
REMARK   22  A    between atoms: C_21  and  O_40 
REMARK   23  A    between atoms: C_22  and  O_43 
REMARK   24  A    between atoms: C_23  and  O_44 
REMARK   25  A    between atoms: C_24  and  O_44 
REMARK   26  A    between atoms: C_25  and  O_43 
ROOT
HETATM    1  C   UNK N   1      24.438  15.443   3.857  0.00  0.00     0.180 C 
HETATM    2  C   UNK N   1      25.033  17.583   4.981  0.00  0.00     0.183 C 
HETATM    3  C   UNK N   1      23.479  17.822   4.979  0.00  0.00     0.204 C 
HETATM    4  C   UNK N   1      25.449  16.606   3.844  0.00  0.00     0.187 C 
HETATM    5  C   UNK N   1      22.872  17.266   3.673  0.00  0.00     0.292 C 
HETATM    6  O   UNK N   1      23.091  15.859   3.606  0.00  0.00    -0.348 OA
ENDROOT
BRANCH   4   7
HETATM    7  O   UNK N   1      26.768  16.078   3.948  0.00  0.00    -0.348 OA
BRANCH   7   8
HETATM    8  C   UNK N   1      27.167  15.721   5.268  0.00  0.00     0.292 C 
HETATM    9  C   UNK N   1      28.332  14.702   5.219  0.00  0.00     0.204 C 
HETATM   10  C   UNK N   1      29.660  15.383   4.824  0.00  0.00     0.176 C 
HETATM   11  C   UNK N   1      29.900  16.508   5.841  0.00  0.00     0.137 C 
HETATM   12  C   UNK N   1      28.706  17.478   5.791  0.00  0.00     0.145 C 
HETATM   13  C   UNK N   1      28.914  18.601   6.793  0.00  0.00     0.042 C 
HETATM   14  O   UNK N   1      27.486  16.822   6.124  0.00  0.00    -0.352 OA
BRANCH   9  15
HETATM   15  O   UNK N   1      28.028  13.661   4.340  0.00  0.00    -0.388 OA
HETATM   16  H   UNK N   1      28.122  13.341   3.429  0.00  0.00     0.210 HD
ENDBRANCH   9  15
BRANCH  10  17
HETATM   17  O   UNK N   1      30.700  14.451   4.882  0.00  0.00    -0.391 OA
HETATM   18  H   UNK N   1      30.819  13.781   4.191  0.00  0.00     0.210 HD
ENDBRANCH  10  17
BRANCH  11  19
HETATM   19  N   UNK N   1      31.215  17.184   5.752  0.00  0.00    -0.402 N 
HETATM   20  H   UNK N   1      31.526  17.522   4.842  0.00  0.00     0.154 HD
BRANCH  19  21
HETATM   21  C   UNK N   1      32.097  17.393   6.915  0.00  0.00     0.132 C 
HETATM   22  C   UNK N   1      31.704  16.560   8.120  0.00  0.00     0.008 C 
HETATM   23  C   UNK N   1      32.564  15.806   8.838  0.00  0.00    -0.027 C 
HETATM   24  C   UNK N   1      34.045  15.752   8.525  0.00  0.00     0.180 C 
HETATM   25  C   UNK N   1      34.497  16.899   7.604  0.00  0.00     0.182 C 
HETATM   26  C   UNK N   1      33.524  17.024   6.433  0.00  0.00     0.175 C 
BRANCH  23  27
HETATM   27  C   UNK N   1      32.028  14.981   9.965  0.00  0.00     0.201 C 
BRANCH  27  28
HETATM   28  O   UNK N   1      32.978  14.861  10.978  0.00  0.00    -0.397 OA
HETATM   29  H   UNK N   1      33.918  14.683  11.143  0.00  0.00     0.209 HD
ENDBRANCH  27  28
ENDBRANCH  23  27
BRANCH  24  30
HETATM   30  O   UNK N   1      34.326  14.518   7.933  0.00  0.00    -0.388 OA
HETATM   31  H   UNK N   1      34.641  13.600   7.953  0.00  0.00     0.210 HD
ENDBRANCH  24  30
BRANCH  25  32
HETATM   32  O   UNK N   1      34.535  18.101   8.317  0.00  0.00    -0.390 OA
HETATM   33  H   UNK N   1      34.672  18.764   9.013  0.00  0.00     0.210 HD
ENDBRANCH  25  32
BRANCH  26  34
HETATM   34  O   UNK N   1      33.981  17.976   5.519  0.00  0.00    -0.391 OA
HETATM   35  H   UNK N   1      33.786  18.916   5.659  0.00  0.00     0.210 HD
ENDBRANCH  26  34
ENDBRANCH  19  21
ENDBRANCH  11  19
ENDBRANCH   7   8
ENDBRANCH   4   7
BRANCH   1  36
HETATM   36  C   UNK N   1      24.804  14.367   2.846  0.00  0.00     0.198 C 
BRANCH  36  37
HETATM   37  O   UNK N   1      25.366  13.269   3.486  0.00  0.00    -0.398 OA
HETATM   38  H   UNK N   1      26.049  13.187   4.170  0.00  0.00     0.209 HD
ENDBRANCH  36  37
ENDBRANCH   1  36
BRANCH   2  39
HETATM   39  O   UNK N   1      25.698  18.799   4.811  0.00  0.00    -0.390 OA
HETATM   40  H   UNK N   1      26.432  19.432   4.779  0.00  0.00     0.210 HD
ENDBRANCH   2  39
BRANCH   3  41
HETATM   41  O   UNK N   1      22.896  17.149   6.058  0.00  0.00    -0.388 OA
HETATM   42  H   UNK N   1      22.521  17.306   6.938  0.00  0.00     0.210 HD
ENDBRANCH   3  41
BRANCH   5  43
HETATM   43  O   UNK N   1      21.478  17.503   3.583  0.00  0.00    -0.348 OA
BRANCH  43  44
HETATM   44  C   UNK N   1      21.027  18.279   2.449  0.00  0.00     0.187 C 
BRANCH  44  45
HETATM   45  C   UNK N   1      20.055  17.542   1.419  0.00  0.00     0.173 C 
BRANCH  45  46
HETATM   46  C   UNK N   1      20.196  16.019   1.522  0.00  0.00     0.198 C 
BRANCH  46  47
HETATM   47  O   UNK N   1      21.423  15.569   1.037  0.00  0.00    -0.398 OA
HETATM   48  H   UNK N   1      21.872  14.823   1.464  0.00  0.00     0.209 HD
ENDBRANCH  46  47
ENDBRANCH  45  46
BRANCH  45  49
HETATM   49  O   UNK N   1      20.310  17.867   0.094  0.00  0.00    -0.391 OA
HETATM   50  H   UNK N   1      19.888  18.627  -0.338  0.00  0.00     0.210 HD
ENDBRANCH  45  49
ENDBRANCH  44  45
BRANCH  44  51
HETATM   51  C   UNK N   1      20.423  19.606   3.016  0.00  0.00     0.185 C 
BRANCH  51  52
HETATM   52  C   UNK N   1      21.054  20.914   2.442  0.00  0.00     0.210 C 
BRANCH  52  53
HETATM   53  C   UNK N   1      20.607  21.119   1.021  0.00  0.00     0.265 C 
HETATM   54  O   UNK N   1      21.313  20.786   0.082  0.00  0.00    -0.304 OA
ENDBRANCH  52  53
BRANCH  52  55
HETATM   55  O   UNK N   1      22.447  20.936   2.488  0.00  0.00    -0.386 OA
HETATM   56  H   UNK N   1      22.971  21.552   1.951  0.00  0.00     0.210 HD
ENDBRANCH  52  55
ENDBRANCH  51  52
BRANCH  51  57
HETATM   57  O   UNK N   1      20.645  19.639   4.398  0.00  0.00    -0.390 OA
HETATM   58  H   UNK N   1      21.283  19.036   4.813  0.00  0.00     0.210 HD
ENDBRANCH  51  57
ENDBRANCH  44  51
ENDBRANCH  43  44
ENDBRANCH   5  43
TORSDOF 26
ENDMDL
MODEL 9
REMARK VINA RESULT:      -6.6      4.363     12.473
REMARK  26 active torsions:
REMARK  status: ('A' for Active; 'I' for Inactive)
REMARK    1  A    between atoms: C_8  and  C_3 
REMARK    2  A    between atoms: O_27  and  C_3 
REMARK    3  A    between atoms: C_10  and  C_4 
REMARK    4  A    between atoms: C_11  and  C_5 
REMARK    5  A    between atoms: O_29  and  C_5 
REMARK    6  A    between atoms: C_12  and  C_6 
REMARK    7  A    between atoms: O_30  and  C_6 
REMARK    8  A    between atoms: C_9  and  N_26 
REMARK    9  A    between atoms: C_16  and  C_10 
REMARK   10  A    between atoms: C_10  and  O_31 
REMARK   11  A    between atoms: C_22  and  C_11 
REMARK   12  A    between atoms: C_11  and  O_32 
REMARK   13  A    between atoms: C_13  and  N_26 
REMARK   14  A    between atoms: C_14  and  O_33 
REMARK   15  A    between atoms: C_15  and  O_34 
REMARK   16  A    between atoms: C_22  and  C_16 
REMARK   17  A    between atoms: C_16  and  O_35 
REMARK   18  A    between atoms: C_17  and  O_36 
REMARK   19  A    between atoms: C_18  and  O_37 
REMARK   20  A    between atoms: C_19  and  O_38 
REMARK   21  A    between atoms: C_20  and  O_39 
REMARK   22  A    between atoms: C_21  and  O_40 
REMARK   23  A    between atoms: C_22  and  O_43 
REMARK   24  A    between atoms: C_23  and  O_44 
REMARK   25  A    between atoms: C_24  and  O_44 
REMARK   26  A    between atoms: C_25  and  O_43 
ROOT
HETATM    1  C   UNK N   1      34.583  13.929   9.173  0.00  0.00     0.180 C 
HETATM    2  C   UNK N   1      35.162  16.264   9.810  0.00  0.00     0.183 C 
HETATM    3  C   UNK N   1      35.919  15.573  11.003  0.00  0.00     0.204 C 
HETATM    4  C   UNK N   1      34.017  15.358   9.276  0.00  0.00     0.187 C 
HETATM    5  C   UNK N   1      35.112  14.349  11.487  0.00  0.00     0.292 C 
HETATM    6  O   UNK N   1      35.012  13.396  10.431  0.00  0.00    -0.348 OA
ENDROOT
BRANCH   4   7
HETATM    7  O   UNK N   1      33.479  15.739   8.013  0.00  0.00    -0.348 OA
BRANCH   7   8
HETATM    8  C   UNK N   1      33.064  17.099   7.925  0.00  0.00     0.292 C 
HETATM    9  C   UNK N   1      33.256  17.627   6.482  0.00  0.00     0.204 C 
HETATM   10  C   UNK N   1      32.179  17.065   5.530  0.00  0.00     0.176 C 
HETATM   11  C   UNK N   1      30.816  17.449   6.125  0.00  0.00     0.137 C 
HETATM   12  C   UNK N   1      30.715  16.855   7.541  0.00  0.00     0.145 C 
HETATM   13  C   UNK N   1      29.376  17.226   8.158  0.00  0.00     0.042 C 
HETATM   14  O   UNK N   1      31.738  17.360   8.394  0.00  0.00    -0.352 OA
BRANCH   9  15
HETATM   15  O   UNK N   1      34.536  17.319   6.020  0.00  0.00    -0.388 OA
HETATM   16  H   UNK N   1      35.391  16.924   6.258  0.00  0.00     0.210 HD
ENDBRANCH   9  15
BRANCH  10  17
HETATM   17  O   UNK N   1      32.329  17.635   4.263  0.00  0.00    -0.391 OA
HETATM   18  H   UNK N   1      32.963  17.280   3.619  0.00  0.00     0.210 HD
ENDBRANCH  10  17
BRANCH  11  19
HETATM   19  N   UNK N   1      29.639  17.157   5.275  0.00  0.00    -0.402 N 
HETATM   20  H   UNK N   1      28.918  17.872   5.184  0.00  0.00     0.154 HD
BRANCH  19  21
HETATM   21  C   UNK N   1      29.458  15.885   4.553  0.00  0.00     0.132 C 
HETATM   22  C   UNK N   1      28.409  14.986   5.180  0.00  0.00     0.008 C 
HETATM   23  C   UNK N   1      27.410  14.388   4.496  0.00  0.00    -0.027 C 
HETATM   24  C   UNK N   1      27.263  14.530   2.995  0.00  0.00     0.180 C 
HETATM   25  C   UNK N   1      28.538  15.069   2.323  0.00  0.00     0.182 C 
HETATM   26  C   UNK N   1      29.054  16.275   3.107  0.00  0.00     0.175 C 
BRANCH  23  27
HETATM   27  C   UNK N   1      26.405  13.579   5.252  0.00  0.00     0.201 C 
BRANCH  27  28
HETATM   28  O   UNK N   1      25.130  14.125   5.110  0.00  0.00    -0.397 OA
HETATM   29  H   UNK N   1      24.544  14.822   5.445  0.00  0.00     0.209 HD
ENDBRANCH  27  28
ENDBRANCH  23  27
BRANCH  24  30
HETATM   30  O   UNK N   1      26.184  15.380   2.736  0.00  0.00    -0.388 OA
HETATM   31  H   UNK N   1      25.739  16.087   2.243  0.00  0.00     0.210 HD
ENDBRANCH  24  30
BRANCH  25  32
HETATM   32  O   UNK N   1      29.520  14.074   2.288  0.00  0.00    -0.390 OA
HETATM   33  H   UNK N   1      30.053  13.305   2.031  0.00  0.00     0.210 HD
ENDBRANCH  25  32
BRANCH  26  34
HETATM   34  O   UNK N   1      30.139  16.857   2.448  0.00  0.00    -0.391 OA
HETATM   35  H   UNK N   1      30.869  17.240   2.961  0.00  0.00     0.210 HD
ENDBRANCH  26  34
ENDBRANCH  19  21
ENDBRANCH  11  19
ENDBRANCH   7   8
ENDBRANCH   4   7
BRANCH   1  36
HETATM   36  C   UNK N   1      33.575  12.966   8.564  0.00  0.00     0.198 C 
BRANCH  36  37
HETATM   37  O   UNK N   1      32.300  13.227   9.050  0.00  0.00    -0.398 OA
HETATM   38  H   UNK N   1      31.414  13.020   8.712  0.00  0.00     0.209 HD
ENDBRANCH  36  37
ENDBRANCH   1  36
BRANCH   2  39
HETATM   39  O   UNK N   1      34.629  17.483  10.232  0.00  0.00    -0.390 OA
HETATM   40  H   UNK N   1      34.272  18.383  10.174  0.00  0.00     0.210 HD
ENDBRANCH   2  39
BRANCH   3  41
HETATM   41  O   UNK N   1      37.175  15.132  10.574  0.00  0.00    -0.388 OA
HETATM   42  H   UNK N   1      38.093  15.046  10.875  0.00  0.00     0.210 HD
ENDBRANCH   3  41
BRANCH   5  43
HETATM   43  O   UNK N   1      35.713  13.714  12.602  0.00  0.00    -0.348 OA
BRANCH  43  44
HETATM   44  C   UNK N   1      35.577  12.276  12.676  0.00  0.00     0.187 C 
BRANCH  44  45
HETATM   45  C   UNK N   1      36.919  11.443  12.905  0.00  0.00     0.173 C 
BRANCH  45  46
HETATM   46  C   UNK N   1      37.888  11.627  11.731  0.00  0.00     0.198 C 
BRANCH  46  47
HETATM   47  O   UNK N   1      38.343  12.940  11.624  0.00  0.00    -0.398 OA
HETATM   48  H   UNK N   1      38.786  13.237  10.814  0.00  0.00     0.209 HD
ENDBRANCH  46  47
ENDBRANCH  45  46
BRANCH  45  49
HETATM   49  O   UNK N   1      36.704  10.076  13.021  0.00  0.00    -0.391 OA
HETATM   50  H   UNK N   1      36.101   9.599  12.429  0.00  0.00     0.210 HD
ENDBRANCH  45  49
ENDBRANCH  44  45
BRANCH  44  51
HETATM   51  C   UNK N   1      34.481  11.976  13.752  0.00  0.00     0.185 C 
BRANCH  51  52
HETATM   52  C   UNK N   1      34.935  12.191  15.230  0.00  0.00     0.210 C 
BRANCH  52  53
HETATM   53  C   UNK N   1      34.852  10.894  15.986  0.00  0.00     0.265 C 
HETATM   54  O   UNK N   1      35.785  10.105  15.992  0.00  0.00    -0.304 OA
ENDBRANCH  52  53
BRANCH  52  55
HETATM   55  O   UNK N   1      34.202  13.161  15.911  0.00  0.00    -0.386 OA
HETATM   56  H   UNK N   1      33.234  13.208  15.859  0.00  0.00     0.210 HD
ENDBRANCH  52  55
ENDBRANCH  51  52
BRANCH  51  57
HETATM   57  O   UNK N   1      34.116  10.627  13.648  0.00  0.00    -0.390 OA
HETATM   58  H   UNK N   1      33.183  10.363  13.662  0.00  0.00     0.210 HD
ENDBRANCH  51  57
ENDBRANCH  44  51
ENDBRANCH  43  44
ENDBRANCH   5  43
TORSDOF 26
ENDMDL
