MODEL 1
REMARK VINA RESULT:      -3.5      0.000      0.000
REMARK  3 active torsions:
REMARK  status: ('A' for Active; 'I' for Inactive)
REMARK    1  A    between atoms: O_1  and  C_5 
REMARK    2  A    between atoms: N_3  and  C_4 
REMARK    3  A    between atoms: C_4  and  C_5 
ROOT
HETATM    1  C   UNK N   1      34.211  17.143   9.076  0.00  0.00     0.222 C 
ENDROOT
BRANCH   1   2
HETATM    2  N   UNK N   1      34.924  17.209  10.344  0.00  0.00    -0.422 N 
HETATM    3  H   UNK N   1      35.049  16.364  10.902  0.00  0.00     0.150 HD
HETATM    4  H   UNK N   1      35.297  18.099  10.674  0.00  0.00     0.150 HD
ENDBRANCH   1   2
BRANCH   1   5
HETATM    5  C   UNK N   1      34.656  18.218   8.127  0.00  0.00     0.157 C 
HETATM    6  O   UNK N   1      34.410  18.143   6.932  0.00  0.00    -0.649 OA
BRANCH   5   7
HETATM    7  O   UNK N   1      35.334  19.280   8.601  0.00  0.00    -0.775 OA
HETATM    8  H   UNK N   1      36.109  19.151   9.111  0.00  0.00     0.167 HD
ENDBRANCH   5   7
ENDBRANCH   1   5
TORSDOF 3
ENDMDL
MODEL 2
REMARK VINA RESULT:      -3.5     15.374     15.632
REMARK  3 active torsions:
REMARK  status: ('A' for Active; 'I' for Inactive)
REMARK    1  A    between atoms: O_1  and  C_5 
REMARK    2  A    between atoms: N_3  and  C_4 
REMARK    3  A    between atoms: C_4  and  C_5 
ROOT
HETATM    1  C   UNK N   1      20.747  20.043   1.494  0.00  0.00     0.222 C 
ENDROOT
BRANCH   1   2
HETATM    2  N   UNK N   1      20.483  20.930   0.370  0.00  0.00    -0.422 N 
HETATM    3  H   UNK N   1      19.930  20.598  -0.421  0.00  0.00     0.150 HD
HETATM    4  H   UNK N   1      20.849  21.881   0.373  0.00  0.00     0.150 HD
ENDBRANCH   1   2
BRANCH   1   5
HETATM    5  C   UNK N   1      21.017  20.807   2.758  0.00  0.00     0.157 C 
HETATM    6  O   UNK N   1      20.349  20.615   3.763  0.00  0.00    -0.649 OA
BRANCH   5   7
HETATM    7  O   UNK N   1      22.009  21.716   2.783  0.00  0.00    -0.775 OA
HETATM    8  H   UNK N   1      22.508  21.843   3.565  0.00  0.00     0.167 HD
ENDBRANCH   5   7
ENDBRANCH   1   5
TORSDOF 3
ENDMDL
MODEL 3
REMARK VINA RESULT:      -3.3     15.795     16.119
REMARK  3 active torsions:
REMARK  status: ('A' for Active; 'I' for Inactive)
REMARK    1  A    between atoms: O_1  and  C_5 
REMARK    2  A    between atoms: N_3  and  C_4 
REMARK    3  A    between atoms: C_4  and  C_5 
ROOT
HETATM    1  C   UNK N   1      20.500  19.093   1.911  0.00  0.00     0.222 C 
ENDROOT
BRANCH   1   2
HETATM    2  N   UNK N   1      19.121  19.111   2.378  0.00  0.00    -0.422 N 
HETATM    3  H   UNK N   1      18.427  18.505   1.941  0.00  0.00     0.150 HD
HETATM    4  H   UNK N   1      18.850  19.729   3.143  0.00  0.00     0.150 HD
ENDBRANCH   1   2
BRANCH   1   5
HETATM    5  C   UNK N   1      20.881  20.382   1.243  0.00  0.00     0.157 C 
HETATM    6  O   UNK N   1      21.427  21.278   1.871  0.00  0.00    -0.649 OA
BRANCH   5   7
HETATM    7  O   UNK N   1      20.619  20.553  -0.066  0.00  0.00    -0.775 OA
HETATM    8  H   UNK N   1      20.129  21.298  -0.352  0.00  0.00     0.167 HD
ENDBRANCH   5   7
ENDBRANCH   1   5
TORSDOF 3
ENDMDL
MODEL 4
REMARK VINA RESULT:      -3.0     11.422     11.521
REMARK  3 active torsions:
REMARK  status: ('A' for Active; 'I' for Inactive)
REMARK    1  A    between atoms: O_1  and  C_5 
REMARK    2  A    between atoms: N_3  and  C_4 
REMARK    3  A    between atoms: C_4  and  C_5 
ROOT
HETATM    1  C   UNK N   1      44.329  21.801   4.105  0.00  0.00     0.222 C 
ENDROOT
BRANCH   1   2
HETATM    2  N   UNK N   1      45.724  22.209   4.179  0.00  0.00    -0.422 N 
HETATM    3  H   UNK N   1      46.328  21.831   4.909  0.00  0.00     0.150 HD
HETATM    4  H   UNK N   1      46.098  22.874   3.501  0.00  0.00     0.150 HD
ENDBRANCH   1   2
BRANCH   1   5
HETATM    5  C   UNK N   1      43.439  22.925   3.658  0.00  0.00     0.157 C 
HETATM    6  O   UNK N   1      42.622  22.762   2.764  0.00  0.00    -0.649 OA
BRANCH   5   7
HETATM    7  O   UNK N   1      43.544  24.128   4.251  0.00  0.00    -0.775 OA
HETATM    8  H   UNK N   1      42.903  24.790   4.085  0.00  0.00     0.167 HD
ENDBRANCH   5   7
ENDBRANCH   1   5
TORSDOF 3
ENDMDL
MODEL 5
REMARK VINA RESULT:      -2.8     12.231     12.628
REMARK  3 active torsions:
REMARK  status: ('A' for Active; 'I' for Inactive)
REMARK    1  A    between atoms: O_1  and  C_5 
REMARK    2  A    between atoms: N_3  and  C_4 
REMARK    3  A    between atoms: C_4  and  C_5 
ROOT
HETATM    1  C   UNK N   1      31.029  21.276  -3.850  0.00  0.00     0.222 C 
ENDROOT
BRANCH   1   2
HETATM    2  N   UNK N   1      31.566  19.959  -4.163  0.00  0.00    -0.422 N 
HETATM    3  H   UNK N   1      32.549  19.858  -4.420  0.00  0.00     0.150 HD
HETATM    4  H   UNK N   1      30.962  19.139  -4.125  0.00  0.00     0.150 HD
ENDBRANCH   1   2
BRANCH   1   5
HETATM    5  C   UNK N   1      31.602  21.826  -2.576  0.00  0.00     0.157 C 
HETATM    6  O   UNK N   1      31.087  22.784  -2.017  0.00  0.00    -0.649 OA
BRANCH   5   7
HETATM    7  O   UNK N   1      32.697  21.255  -2.041  0.00  0.00    -0.775 OA
HETATM    8  H   UNK N   1      33.461  21.771  -1.876  0.00  0.00     0.167 HD
ENDBRANCH   5   7
ENDBRANCH   1   5
TORSDOF 3
ENDMDL
MODEL 6
REMARK VINA RESULT:      -2.8      2.872      3.271
REMARK  3 active torsions:
REMARK  status: ('A' for Active; 'I' for Inactive)
REMARK    1  A    between atoms: O_1  and  C_5 
REMARK    2  A    between atoms: N_3  and  C_4 
REMARK    3  A    between atoms: C_4  and  C_5 
ROOT
HETATM    1  C   UNK N   1      34.585  15.425  10.197  0.00  0.00     0.222 C 
ENDROOT
BRANCH   1   2
HETATM    2  N   UNK N   1      34.277  14.610  11.363  0.00  0.00    -0.422 N 
HETATM    3  H   UNK N   1      34.976  13.966  11.733  0.00  0.00     0.150 HD
HETATM    4  H   UNK N   1      33.363  14.682  11.810  0.00  0.00     0.150 HD
ENDBRANCH   1   2
BRANCH   1   5
HETATM    5  C   UNK N   1      35.657  16.436  10.488  0.00  0.00     0.157 C 
HETATM    6  O   UNK N   1      35.464  17.628  10.299  0.00  0.00    -0.649 OA
BRANCH   5   7
HETATM    7  O   UNK N   1      36.845  16.023  10.964  0.00  0.00    -0.775 OA
HETATM    8  H   UNK N   1      37.413  16.629  11.397  0.00  0.00     0.167 HD
ENDBRANCH   5   7
ENDBRANCH   1   5
TORSDOF 3
ENDMDL
MODEL 7
REMARK VINA RESULT:      -2.8     11.215     11.617
REMARK  3 active torsions:
REMARK  status: ('A' for Active; 'I' for Inactive)
REMARK    1  A    between atoms: O_1  and  C_5 
REMARK    2  A    between atoms: N_3  and  C_4 
REMARK    3  A    between atoms: C_4  and  C_5 
ROOT
HETATM    1  C   UNK N   1      43.465  22.196   3.127  0.00  0.00     0.222 C 
ENDROOT
BRANCH   1   2
HETATM    2  N   UNK N   1      42.749  23.428   2.830  0.00  0.00    -0.422 N 
HETATM    3  H   UNK N   1      41.922  23.680   3.371  0.00  0.00     0.150 HD
HETATM    4  H   UNK N   1      43.075  24.041   2.082  0.00  0.00     0.150 HD
ENDBRANCH   1   2
BRANCH   1   5
HETATM    5  C   UNK N   1      44.348  22.338   4.333  0.00  0.00     0.157 C 
HETATM    6  O   UNK N   1      43.882  22.642   5.422  0.00  0.00    -0.649 OA
BRANCH   5   7
HETATM    7  O   UNK N   1      45.672  22.129   4.212  0.00  0.00    -0.775 OA
HETATM    8  H   UNK N   1      46.084  22.205   3.375  0.00  0.00     0.167 HD
ENDBRANCH   5   7
ENDBRANCH   1   5
TORSDOF 3
ENDMDL
MODEL 8
REMARK VINA RESULT:      -2.7      2.189      2.372
REMARK  3 active torsions:
REMARK  status: ('A' for Active; 'I' for Inactive)
REMARK    1  A    between atoms: O_1  and  C_5 
REMARK    2  A    between atoms: N_3  and  C_4 
REMARK    3  A    between atoms: C_4  and  C_5 
ROOT
HETATM    1  C   UNK N   1      33.477  18.044   7.524  0.00  0.00     0.222 C 
ENDROOT
BRANCH   1   2
HETATM    2  N   UNK N   1      33.949  17.446   6.284  0.00  0.00    -0.422 N 
HETATM    3  H   UNK N   1      34.833  16.935   6.269  0.00  0.00     0.150 HD
HETATM    4  H   UNK N   1      33.399  17.537   5.431  0.00  0.00     0.150 HD
ENDBRANCH   1   2
BRANCH   1   5
HETATM    5  C   UNK N   1      34.587  18.219   8.520  0.00  0.00     0.157 C 
HETATM    6  O   UNK N   1      34.805  17.371   9.374  0.00  0.00    -0.649 OA
BRANCH   5   7
HETATM    7  O   UNK N   1      35.352  19.324   8.471  0.00  0.00    -0.775 OA
HETATM    8  H   UNK N   1      35.531  19.734   7.648  0.00  0.00     0.167 HD
ENDBRANCH   5   7
ENDBRANCH   1   5
TORSDOF 3
ENDMDL
MODEL 9
REMARK VINA RESULT:      -2.6     15.363     15.600
REMARK  3 active torsions:
REMARK  status: ('A' for Active; 'I' for Inactive)
REMARK    1  A    between atoms: O_1  and  C_5 
REMARK    2  A    between atoms: N_3  and  C_4 
REMARK    3  A    between atoms: C_4  and  C_5 
ROOT
HETATM    1  C   UNK N   1      20.190  18.823   2.397  0.00  0.00     0.222 C 
ENDROOT
BRANCH   1   2
HETATM    2  N   UNK N   1      18.743  18.666   2.355  0.00  0.00    -0.422 N 
HETATM    3  H   UNK N   1      18.255  18.679   1.459  0.00  0.00     0.150 HD
HETATM    4  H   UNK N   1      18.217  18.543   3.220  0.00  0.00     0.150 HD
ENDBRANCH   1   2
BRANCH   1   5
HETATM    5  C   UNK N   1      20.635  19.580   3.615  0.00  0.00     0.157 C 
HETATM    6  O   UNK N   1      20.312  20.747   3.783  0.00  0.00    -0.649 OA
BRANCH   5   7
HETATM    7  O   UNK N   1      21.401  18.964   4.533  0.00  0.00    -0.775 OA
HETATM    8  H   UNK N   1      22.105  18.409   4.261  0.00  0.00     0.167 HD
ENDBRANCH   5   7
ENDBRANCH   1   5
TORSDOF 3
ENDMDL
