REMARK  8 active torsions:
REMARK  status: ('A' for Active; 'I' for Inactive)
REMARK    1  A    between atoms: C_1  and  O_25 
REMARK    2  A    between atoms: C_4  and  C_11 
REMARK    3  A    between atoms: C_11  and  C_14 
REMARK    4  A    between atoms: C_15  and  C_14 
REMARK    5  A    between atoms: C_19  and  O_21 
REMARK    6  A    between atoms: C_24  and  C_29 
REMARK    7  A    between atoms: C_24  and  O_25 
REMARK    8  A    between atoms: C_29  and  C_26 
ROOT
HETATM    1  C   UNK N   1      -1.018   0.152  -0.073  0.00  0.00     0.141 C 
HETATM    2  C   UNK N   1       0.402  -0.465  -0.326  0.00  0.00     0.052 C 
HETATM    3  C   UNK N   1       0.337  -1.999  -0.383  0.00  0.00    -0.055 C 
HETATM    4  C   UNK N   1       1.500  -0.130   0.719  0.00  0.00     0.004 C 
HETATM    5  C   UNK N   1      -1.836  -0.724   0.855  0.00  0.00     0.041 C 
HETATM    6  C   UNK N   1       1.586  -2.771  -0.463  0.00  0.00     0.004 C 
HETATM    7  C   UNK N   1      -0.803  -2.685  -0.190  0.00  0.00    -0.015 C 
HETATM    8  C   UNK N   1       2.871  -0.789   0.361  0.00  0.00     0.009 C 
HETATM    9  C   UNK N   1      -2.105  -1.990   0.062  0.00  0.00     0.007 C 
HETATM   10  C   UNK N   1       2.757  -2.209  -0.141  0.00  0.00    -0.022 C 
HETATM   11  C   UNK N   1      -3.044  -2.897   0.825  0.00  0.00     0.014 C 
HETATM   12  C   UNK N   1       3.690  -0.019  -0.663  0.00  0.00     0.014 C 
ENDROOT
BRANCH   4  13
HETATM   13  C   UNK N   1       1.663   1.361   1.069  0.00  0.00     0.009 C 
BRANCH  13  14
HETATM   14  C   UNK N   1       1.846   2.256  -0.154  0.00  0.00     0.033 C 
BRANCH  14  15
HETATM   15  C   UNK N   1       1.899   3.703   0.286  0.00  0.00     0.134 C 
HETATM   16  O   UNK N   1       3.157   4.232   0.056  0.00  0.00    -0.316 OA
HETATM   17  C   UNK N   1       3.390   5.569  -0.021  0.00  0.00     0.261 C 
HETATM   18  C   UNK N   1       2.256   6.564  -0.057  0.00  0.00     0.142 C 
HETATM   19  O   UNK N   1       4.538   5.971  -0.139  0.00  0.00    -0.265 OA
HETATM   20  C   UNK N   1       0.898   5.914   0.212  0.00  0.00     0.130 C 
HETATM   21  C   UNK N   1       0.822   4.527  -0.400  0.00  0.00     0.065 C 
BRANCH  20  22
HETATM   22  O   UNK N   1      -0.124   6.722  -0.285  0.00  0.00    -0.395 OA
HETATM   23  H   UNK N   1       0.007   7.618  -0.631  0.00  0.00     0.210 HD
ENDBRANCH  20  22
ENDBRANCH  14  15
ENDBRANCH  13  14
ENDBRANCH   4  13
BRANCH   1  24
HETATM   24  O   UNK N   1      -0.977   1.468   0.350  0.00  0.00    -0.315 OA
BRANCH  24  25
HETATM   25  C   UNK N   1      -2.001   2.376   0.390  0.00  0.00     0.267 C 
HETATM   26  O   UNK N   1      -1.751   3.491   0.823  0.00  0.00    -0.264 OA
BRANCH  25  27
HETATM   27  C   UNK N   1      -3.419   2.083  -0.108  0.00  0.00     0.040 C 
HETATM   28  C   UNK N   1      -3.359   1.619  -1.556  0.00  0.00     0.025 C 
HETATM   29  C   UNK N   1      -4.084   1.018   0.748  0.00  0.00     0.025 C 
BRANCH  27  30
HETATM   30  C   UNK N   1      -4.287   3.353  -0.026  0.00  0.00     0.014 C 
HETATM   31  C   UNK N   1      -5.731   3.143  -0.472  0.00  0.00     0.006 C 
ENDBRANCH  27  30
ENDBRANCH  25  27
ENDBRANCH  24  25
ENDBRANCH   1  24
TORSDOF 8
