MODEL 1
REMARK VINA RESULT:      -7.8      0.000      0.000
REMARK  12 active torsions:
REMARK  status: ('A' for Active; 'I' for Inactive)
REMARK    1  A    between atoms: C_8  and  C_9 
REMARK    2  A    between atoms: C_9  and  N_32 
REMARK    3  A    between atoms: N_32  and  C_10 
REMARK    4  A    between atoms: C_15  and  C_16 
REMARK       I    between atoms: C_16  and  N_18 
REMARK    5  A    between atoms: C_20  and  N_18 
REMARK    6  A    between atoms: C_20  and  C_24 
REMARK    7  A    between atoms: C_20  and  C_22 
REMARK    8  A    between atoms: C_22  and  O_21 
REMARK    9  A    between atoms: C_24  and  C_25 
REMARK   10  A    between atoms: C_25  and  C_26 
REMARK   11  A    between atoms: C_26  and  O_27 
REMARK       I    between atoms: C_30  and  N_31 
REMARK   12  A    between atoms: N_33  and  C_35 
ROOT
HETATM    1  N   UNK N   1      29.684  17.896   5.174  0.00  0.00    -0.388 N 
HETATM    2  H   UNK N   1      30.412  18.415   4.763  0.00  0.00     0.159 HD
ENDROOT
BRANCH   1   3
HETATM    3  C   UNK N   1      29.997  16.788   6.031  0.00  0.00     0.147 C 
BRANCH   3   4
HETATM    4  C   UNK N   1      31.114  16.004   5.356  0.00  0.00     0.128 C 
HETATM    5  N   UNK N   1      32.400  16.617   5.613  0.00  0.00    -0.309 N 
HETATM    6  C   UNK N   1      32.976  16.441   6.924  0.00  0.00     0.151 A 
HETATM    7  C   UNK N   1      32.491  15.386   7.727  0.00  0.00     0.149 A 
HETATM    8  C   UNK N   1      33.985  17.266   7.476  0.00  0.00     0.290 A 
HETATM    9  N   UNK N   1      32.982  15.189   8.973  0.00  0.00    -0.175 N 
HETATM   10  N   UNK N   1      31.506  14.500   7.217  0.00  0.00    -0.372 N 
HETATM   11  C   UNK N   1      33.950  15.990   9.480  0.00  0.00     0.680 A 
ATOM     12  HN  UNK N   1      32.616  14.425   9.541  1.00  0.00     0.186 HD
HETATM   13  N   UNK N   1      34.445  17.014   8.738  0.00  0.00    -0.154 N 
HETATM   14  N   UNK N   1      34.445  15.759  10.776  0.00  0.00    -0.234 N 
HETATM   15  H   UNK N   1      35.149  17.587   9.119  0.00  0.00     0.187 HD
HETATM   16  H   UNK N   1      35.255  16.220  11.092  0.00  0.00     0.174 HD
HETATM   17  H   UNK N   1      33.977  15.130  11.372  0.00  0.00     0.174 HD
HETATM   18  C   UNK N   1      31.110  14.556   5.828  0.00  0.00     0.148 C 
HETATM   19  H   UNK N   1      31.088  13.839   7.816  0.00  0.00     0.161 HD
HETATM   20  O   UNK N   1      34.434  18.218   6.867  0.00  0.00    -0.265 OA
BRANCH   5  21
HETATM   21  C   UNK N   1      33.012  17.292   4.592  0.00  0.00     0.356 C 
HETATM   22  O   UNK N   1      32.381  18.086   3.908  0.00  0.00    -0.283 OA
ENDBRANCH   5  21
ENDBRANCH   3   4
ENDBRANCH   1   3
BRANCH   1  23
HETATM   23  C   UNK N   1      28.340  18.247   4.919  0.00  0.00     0.028 A 
HETATM   24  C   UNK N   1      28.070  19.466   4.311  0.00  0.00     0.030 A 
HETATM   25  C   UNK N   1      26.758  19.830   4.053  0.00  0.00     0.019 A 
HETATM   26  C   UNK N   1      25.697  18.983   4.404  0.00  0.00     0.032 A 
HETATM   27  C   UNK N   1      25.960  17.766   5.038  0.00  0.00     0.019 A 
HETATM   28  C   UNK N   1      27.281  17.405   5.307  0.00  0.00     0.030 A 
BRANCH  26  29
HETATM   29  C   UNK N   1      24.362  19.299   3.891  0.00  0.00     0.252 C 
HETATM   30  N   UNK N   1      23.377  18.406   4.146  0.00  0.00    -0.343 N 
HETATM   31  H   UNK N   1      23.657  17.476   4.309  0.00  0.00     0.163 HD
HETATM   32  O   UNK N   1      24.119  20.401   3.423  0.00  0.00    -0.268 OA
BRANCH  30  33
HETATM   33  C   UNK N   1      21.964  18.676   4.206  0.00  0.00     0.183 C 
BRANCH  33  34
HETATM   34  C   UNK N   1      21.216  18.331   2.929  0.00  0.00     0.046 C 
BRANCH  34  35
HETATM   35  C   UNK N   1      20.340  19.528   2.594  0.00  0.00     0.112 C 
BRANCH  35  36
HETATM   36  C   UNK N   1      21.117  20.592   1.905  0.00  0.00     0.139 C 
HETATM   37  O   UNK N   1      21.348  20.496   0.711  0.00  0.00    -0.650 OA
BRANCH  36  38
HETATM   38  O   UNK N   1      21.587  21.644   2.600  0.00  0.00    -0.776 OA
HETATM   39  H   UNK N   1      22.046  22.387   2.260  0.00  0.00     0.167 HD
ENDBRANCH  36  38
ENDBRANCH  35  36
ENDBRANCH  34  35
ENDBRANCH  33  34
BRANCH  33  40
HETATM   40  C   UNK N   1      21.428  18.027   5.448  0.00  0.00     0.163 C 
HETATM   41  O   UNK N   1      20.931  16.913   5.374  0.00  0.00    -0.648 OA
BRANCH  40  42
HETATM   42  O   UNK N   1      21.483  18.652   6.638  0.00  0.00    -0.775 OA
HETATM   43  H   UNK N   1      22.127  18.610   7.318  0.00  0.00     0.167 HD
ENDBRANCH  40  42
ENDBRANCH  33  40
ENDBRANCH  30  33
ENDBRANCH  26  29
ENDBRANCH   1  23
TORSDOF 12
ENDMDL
MODEL 2
REMARK VINA RESULT:      -7.7      2.294      3.542
REMARK  12 active torsions:
REMARK  status: ('A' for Active; 'I' for Inactive)
REMARK    1  A    between atoms: C_8  and  C_9 
REMARK    2  A    between atoms: C_9  and  N_32 
REMARK    3  A    between atoms: N_32  and  C_10 
REMARK    4  A    between atoms: C_15  and  C_16 
REMARK       I    between atoms: C_16  and  N_18 
REMARK    5  A    between atoms: C_20  and  N_18 
REMARK    6  A    between atoms: C_20  and  C_24 
REMARK    7  A    between atoms: C_20  and  C_22 
REMARK    8  A    between atoms: C_22  and  O_21 
REMARK    9  A    between atoms: C_24  and  C_25 
REMARK   10  A    between atoms: C_25  and  C_26 
REMARK   11  A    between atoms: C_26  and  O_27 
REMARK       I    between atoms: C_30  and  N_31 
REMARK   12  A    between atoms: N_33  and  C_35 
ROOT
HETATM    1  N   UNK N   1      31.456  17.113   9.027  0.00  0.00    -0.388 N 
HETATM    2  H   UNK N   1      32.098  17.749   9.414  0.00  0.00     0.159 HD
ENDROOT
BRANCH   1   3
HETATM    3  C   UNK N   1      31.638  15.704   9.233  0.00  0.00     0.147 C 
BRANCH   3   4
HETATM    4  C   UNK N   1      32.833  15.281   8.388  0.00  0.00     0.128 C 
HETATM    5  N   UNK N   1      34.034  15.966   8.815  0.00  0.00    -0.309 N 
HETATM    6  C   UNK N   1      34.657  15.526  10.039  0.00  0.00     0.151 A 
HETATM    7  C   UNK N   1      34.331  14.241  10.526  0.00  0.00     0.149 A 
HETATM    8  C   UNK N   1      35.563  16.299  10.803  0.00  0.00     0.290 A 
HETATM    9  N   UNK N   1      34.872  13.787  11.682  0.00  0.00    -0.175 N 
HETATM   10  N   UNK N   1      33.458  13.401   9.787  0.00  0.00    -0.372 N 
HETATM   11  C   UNK N   1      35.740  14.544  12.395  0.00  0.00     0.680 A 
ATOM     12  HN  UNK N   1      34.621  12.858  12.021  1.00  0.00     0.186 HD
HETATM   13  N   UNK N   1      36.080  15.783  11.959  0.00  0.00    -0.154 N 
HETATM   14  N   UNK N   1      36.289  14.044  13.589  0.00  0.00    -0.234 N 
HETATM   15  H   UNK N   1      36.713  16.322  12.487  0.00  0.00     0.187 HD
HETATM   16  H   UNK N   1      37.040  14.507  14.027  0.00  0.00     0.174 HD
HETATM   17  H   UNK N   1      35.921  13.224  13.991  0.00  0.00     0.174 HD
HETATM   18  C   UNK N   1      33.027  13.771   8.458  0.00  0.00     0.148 C 
HETATM   19  H   UNK N   1      33.143  12.556  10.184  0.00  0.00     0.161 HD
HETATM   20  O   UNK N   1      35.871  17.429  10.475  0.00  0.00    -0.265 OA
BRANCH   5  21
HETATM   21  C   UNK N   1      34.529  16.962   8.018  0.00  0.00     0.356 C 
HETATM   22  O   UNK N   1      33.850  17.431   7.116  0.00  0.00    -0.283 OA
ENDBRANCH   5  21
ENDBRANCH   3   4
ENDBRANCH   1   3
BRANCH   1  23
HETATM   23  C   UNK N   1      30.361  17.590   8.274  0.00  0.00     0.028 A 
HETATM   24  C   UNK N   1      29.460  18.458   8.877  0.00  0.00     0.030 A 
HETATM   25  C   UNK N   1      28.378  18.937   8.155  0.00  0.00     0.019 A 
HETATM   26  C   UNK N   1      28.179  18.552   6.822  0.00  0.00     0.032 A 
HETATM   27  C   UNK N   1      29.067  17.659   6.216  0.00  0.00     0.019 A 
HETATM   28  C   UNK N   1      30.150  17.169   6.947  0.00  0.00     0.030 A 
BRANCH  26  29
HETATM   29  C   UNK N   1      27.172  19.272   6.038  0.00  0.00     0.252 C 
HETATM   30  N   UNK N   1      26.340  18.527   5.274  0.00  0.00    -0.343 N 
HETATM   31  H   UNK N   1      26.670  17.642   4.996  0.00  0.00     0.163 HD
HETATM   32  O   UNK N   1      26.981  20.465   6.216  0.00  0.00    -0.268 OA
BRANCH  30  33
HETATM   33  C   UNK N   1      25.021  18.894   4.828  0.00  0.00     0.183 C 
BRANCH  33  34
HETATM   34  C   UNK N   1      24.951  19.273   3.358  0.00  0.00     0.046 C 
BRANCH  34  35
HETATM   35  C   UNK N   1      24.205  20.595   3.278  0.00  0.00     0.112 C 
BRANCH  35  36
HETATM   36  C   UNK N   1      22.808  20.402   2.809  0.00  0.00     0.139 C 
HETATM   37  O   UNK N   1      22.523  20.629   1.644  0.00  0.00    -0.650 OA
BRANCH  36  38
HETATM   38  O   UNK N   1      21.853  20.006   3.670  0.00  0.00    -0.776 OA
HETATM   39  H   UNK N   1      20.969  20.311   3.714  0.00  0.00     0.167 HD
ENDBRANCH  36  38
ENDBRANCH  35  36
ENDBRANCH  34  35
ENDBRANCH  33  34
BRANCH  33  40
HETATM   40  C   UNK N   1      24.078  17.805   5.246  0.00  0.00     0.163 C 
HETATM   41  O   UNK N   1      24.426  16.639   5.138  0.00  0.00    -0.648 OA
BRANCH  40  42
HETATM   42  O   UNK N   1      22.857  18.092   5.734  0.00  0.00    -0.775 OA
HETATM   43  H   UNK N   1      22.406  17.752   6.482  0.00  0.00     0.167 HD
ENDBRANCH  40  42
ENDBRANCH  33  40
ENDBRANCH  30  33
ENDBRANCH  26  29
ENDBRANCH   1  23
TORSDOF 12
ENDMDL
MODEL 3
REMARK VINA RESULT:      -7.6      2.830     11.089
REMARK  12 active torsions:
REMARK  status: ('A' for Active; 'I' for Inactive)
REMARK    1  A    between atoms: C_8  and  C_9 
REMARK    2  A    between atoms: C_9  and  N_32 
REMARK    3  A    between atoms: N_32  and  C_10 
REMARK    4  A    between atoms: C_15  and  C_16 
REMARK       I    between atoms: C_16  and  N_18 
REMARK    5  A    between atoms: C_20  and  N_18 
REMARK    6  A    between atoms: C_20  and  C_24 
REMARK    7  A    between atoms: C_20  and  C_22 
REMARK    8  A    between atoms: C_22  and  O_21 
REMARK    9  A    between atoms: C_24  and  C_25 
REMARK   10  A    between atoms: C_25  and  C_26 
REMARK   11  A    between atoms: C_26  and  O_27 
REMARK       I    between atoms: C_30  and  N_31 
REMARK   12  A    between atoms: N_33  and  C_35 
ROOT
HETATM    1  N   UNK N   1      24.428  19.026   4.336  0.00  0.00    -0.388 N 
HETATM    2  H   UNK N   1      24.330  19.998   4.214  0.00  0.00     0.159 HD
ENDROOT
BRANCH   1   3
HETATM    3  C   UNK N   1      23.324  18.158   4.039  0.00  0.00     0.147 C 
BRANCH   3   4
HETATM    4  C   UNK N   1      22.051  18.944   4.321  0.00  0.00     0.128 C 
HETATM    5  N   UNK N   1      21.452  19.413   3.090  0.00  0.00    -0.309 N 
HETATM    6  C   UNK N   1      20.757  18.448   2.273  0.00  0.00     0.151 A 
HETATM    7  C   UNK N   1      20.347  17.239   2.877  0.00  0.00     0.149 A 
HETATM    8  C   UNK N   1      20.471  18.616   0.898  0.00  0.00     0.290 A 
HETATM    9  N   UNK N   1      19.709  16.290   2.151  0.00  0.00    -0.175 N 
HETATM   10  N   UNK N   1      20.570  17.025   4.262  0.00  0.00    -0.372 N 
HETATM   11  C   UNK N   1      19.443  16.475   0.836  0.00  0.00     0.680 A 
ATOM     12  HN  UNK N   1      19.424  15.421   2.602  1.00  0.00     0.186 HD
HETATM   13  N   UNK N   1      19.818  17.624   0.219  0.00  0.00    -0.154 N 
HETATM   14  N   UNK N   1      18.774  15.474   0.108  0.00  0.00    -0.234 N 
HETATM   15  H   UNK N   1      19.617  17.745  -0.737  0.00  0.00     0.187 HD
HETATM   16  H   UNK N   1      18.428  15.659  -0.795  0.00  0.00     0.174 HD
HETATM   17  H   UNK N   1      18.651  14.581   0.505  0.00  0.00     0.174 HD
HETATM   18  C   UNK N   1      21.061  18.091   5.105  0.00  0.00     0.148 C 
HETATM   19  H   UNK N   1      20.388  16.139   4.653  0.00  0.00     0.161 HD
HETATM   20  O   UNK N   1      20.819  19.611   0.291  0.00  0.00    -0.265 OA
BRANCH   5  21
HETATM   21  C   UNK N   1      21.545  20.744   2.790  0.00  0.00     0.356 C 
HETATM   22  O   UNK N   1      22.628  21.312   2.818  0.00  0.00    -0.283 OA
ENDBRANCH   5  21
ENDBRANCH   3   4
ENDBRANCH   1   3
BRANCH   1  23
HETATM   23  C   UNK N   1      25.652  18.496   4.798  0.00  0.00     0.028 A 
HETATM   24  C   UNK N   1      26.770  19.320   4.831  0.00  0.00     0.030 A 
HETATM   25  C   UNK N   1      27.981  18.818   5.279  0.00  0.00     0.019 A 
HETATM   26  C   UNK N   1      28.094  17.485   5.697  0.00  0.00     0.032 A 
HETATM   27  C   UNK N   1      26.980  16.642   5.643  0.00  0.00     0.019 A 
HETATM   28  C   UNK N   1      25.763  17.145   5.181  0.00  0.00     0.030 A 
BRANCH  26  29
HETATM   29  C   UNK N   1      29.321  17.078   6.387  0.00  0.00     0.252 C 
HETATM   30  N   UNK N   1      29.730  17.852   7.419  0.00  0.00    -0.343 N 
HETATM   31  H   UNK N   1      29.433  18.791   7.412  0.00  0.00     0.163 HD
HETATM   32  O   UNK N   1      29.836  15.995   6.157  0.00  0.00    -0.268 OA
BRANCH  30  33
HETATM   33  C   UNK N   1      30.555  17.444   8.527  0.00  0.00     0.183 C 
BRANCH  33  34
HETATM   34  C   UNK N   1      31.964  18.013   8.489  0.00  0.00     0.046 C 
BRANCH  34  35
HETATM   35  C   UNK N   1      32.843  16.969   7.819  0.00  0.00     0.112 C 
BRANCH  35  36
HETATM   36  C   UNK N   1      33.296  17.422   6.477  0.00  0.00     0.139 C 
HETATM   37  O   UNK N   1      34.462  17.741   6.307  0.00  0.00    -0.650 OA
BRANCH  36  38
HETATM   38  O   UNK N   1      32.420  17.507   5.460  0.00  0.00    -0.776 OA
HETATM   39  H   UNK N   1      31.500  17.329   5.489  0.00  0.00     0.167 HD
ENDBRANCH  36  38
ENDBRANCH  35  36
ENDBRANCH  34  35
ENDBRANCH  33  34
BRANCH  33  40
HETATM   40  C   UNK N   1      29.794  17.722   9.789  0.00  0.00     0.163 C 
HETATM   41  O   UNK N   1      29.511  18.876  10.075  0.00  0.00    -0.648 OA
BRANCH  40  42
HETATM   42  O   UNK N   1      29.422  16.724  10.611  0.00  0.00    -0.775 OA
HETATM   43  H   UNK N   1      28.569  16.430  10.865  0.00  0.00     0.167 HD
ENDBRANCH  40  42
ENDBRANCH  33  40
ENDBRANCH  30  33
ENDBRANCH  26  29
ENDBRANCH   1  23
TORSDOF 12
ENDMDL
MODEL 4
REMARK VINA RESULT:      -7.5      1.283      2.067
REMARK  12 active torsions:
REMARK  status: ('A' for Active; 'I' for Inactive)
REMARK    1  A    between atoms: C_8  and  C_9 
REMARK    2  A    between atoms: C_9  and  N_32 
REMARK    3  A    between atoms: N_32  and  C_10 
REMARK    4  A    between atoms: C_15  and  C_16 
REMARK       I    between atoms: C_16  and  N_18 
REMARK    5  A    between atoms: C_20  and  N_18 
REMARK    6  A    between atoms: C_20  and  C_24 
REMARK    7  A    between atoms: C_20  and  C_22 
REMARK    8  A    between atoms: C_22  and  O_21 
REMARK    9  A    between atoms: C_24  and  C_25 
REMARK   10  A    between atoms: C_25  and  C_26 
REMARK   11  A    between atoms: C_26  and  O_27 
REMARK       I    between atoms: C_30  and  N_31 
REMARK   12  A    between atoms: N_33  and  C_35 
ROOT
HETATM    1  N   UNK N   1      29.779  17.307   5.113  0.00  0.00    -0.388 N 
HETATM    2  H   UNK N   1      30.367  17.811   4.506  0.00  0.00     0.159 HD
ENDROOT
BRANCH   1   3
HETATM    3  C   UNK N   1      30.355  16.483   6.138  0.00  0.00     0.147 C 
BRANCH   3   4
HETATM    4  C   UNK N   1      31.568  15.795   5.527  0.00  0.00     0.128 C 
HETATM    5  N   UNK N   1      32.780  16.529   5.825  0.00  0.00    -0.309 N 
HETATM    6  C   UNK N   1      33.311  16.431   7.162  0.00  0.00     0.151 A 
HETATM    7  C   UNK N   1      32.891  15.349   7.967  0.00  0.00     0.149 A 
HETATM    8  C   UNK N   1      34.215  17.355   7.738  0.00  0.00     0.290 A 
HETATM    9  N   UNK N   1      33.342  15.220   9.237  0.00  0.00    -0.175 N 
HETATM   10  N   UNK N   1      32.015  14.366   7.435  0.00  0.00    -0.372 N 
HETATM   11  C   UNK N   1      34.210  16.116   9.766  0.00  0.00     0.680 A 
ATOM     12  HN  UNK N   1      33.024  14.435   9.805  1.00  0.00     0.186 HD
HETATM   13  N   UNK N   1      34.640  17.168   9.024  0.00  0.00    -0.154 N 
HETATM   14  N   UNK N   1      34.666  15.954  11.086  0.00  0.00    -0.234 N 
HETATM   15  H   UNK N   1      35.272  17.811   9.422  0.00  0.00     0.187 HD
HETATM   16  H   UNK N   1      35.416  16.495  11.426  0.00  0.00     0.174 HD
HETATM   17  H   UNK N   1      34.233  15.295  11.676  0.00  0.00     0.174 HD
HETATM   18  C   UNK N   1      31.677  14.361   6.030  0.00  0.00     0.148 C 
HETATM   19  H   UNK N   1      31.634  13.680   8.030  0.00  0.00     0.161 HD
HETATM   20  O   UNK N   1      34.600  18.334   7.128  0.00  0.00    -0.265 OA
BRANCH   5  21
HETATM   21  C   UNK N   1      33.371  17.241   4.816  0.00  0.00     0.356 C 
HETATM   22  O   UNK N   1      32.702  17.673   3.888  0.00  0.00    -0.283 OA
ENDBRANCH   5  21
ENDBRANCH   3   4
ENDBRANCH   1   3
BRANCH   1  23
HETATM   23  C   UNK N   1      28.377  17.401   4.972  0.00  0.00     0.028 A 
HETATM   24  C   UNK N   1      27.845  18.471   4.265  0.00  0.00     0.030 A 
HETATM   25  C   UNK N   1      26.472  18.582   4.117  0.00  0.00     0.019 A 
HETATM   26  C   UNK N   1      25.611  17.628   4.677  0.00  0.00     0.032 A 
HETATM   27  C   UNK N   1      26.138  16.562   5.411  0.00  0.00     0.019 A 
HETATM   28  C   UNK N   1      27.520  16.457   5.570  0.00  0.00     0.030 A 
BRANCH  26  29
HETATM   29  C   UNK N   1      24.200  17.656   4.285  0.00  0.00     0.252 C 
HETATM   30  N   UNK N   1      23.609  18.871   4.203  0.00  0.00    -0.343 N 
HETATM   31  H   UNK N   1      24.005  19.592   4.743  0.00  0.00     0.163 HD
HETATM   32  O   UNK N   1      23.646  16.647   3.875  0.00  0.00    -0.268 OA
BRANCH  30  33
HETATM   33  C   UNK N   1      22.461  19.218   3.405  0.00  0.00     0.183 C 
BRANCH  33  34
HETATM   34  C   UNK N   1      21.143  19.147   4.158  0.00  0.00     0.046 C 
BRANCH  34  35
HETATM   35  C   UNK N   1      20.429  17.892   3.680  0.00  0.00     0.112 C 
BRANCH  35  36
HETATM   36  C   UNK N   1      19.667  18.145   2.429  0.00  0.00     0.139 C 
HETATM   37  O   UNK N   1      20.152  17.838   1.352  0.00  0.00    -0.650 OA
BRANCH  36  38
HETATM   38  O   UNK N   1      18.459  18.735   2.479  0.00  0.00    -0.776 OA
HETATM   39  H   UNK N   1      18.255  19.574   2.843  0.00  0.00     0.167 HD
ENDBRANCH  36  38
ENDBRANCH  35  36
ENDBRANCH  34  35
ENDBRANCH  33  34
BRANCH  33  40
HETATM   40  C   UNK N   1      22.744  20.535   2.747  0.00  0.00     0.163 C 
HETATM   41  O   UNK N   1      21.841  21.351   2.628  0.00  0.00    -0.648 OA
BRANCH  40  42
HETATM   42  O   UNK N   1      23.972  20.832   2.285  0.00  0.00    -0.775 OA
HETATM   43  H   UNK N   1      24.818  20.637   2.636  0.00  0.00     0.167 HD
ENDBRANCH  40  42
ENDBRANCH  33  40
ENDBRANCH  30  33
ENDBRANCH  26  29
ENDBRANCH   1  23
TORSDOF 12
ENDMDL
MODEL 5
REMARK VINA RESULT:      -7.4      1.171      2.091
REMARK  12 active torsions:
REMARK  status: ('A' for Active; 'I' for Inactive)
REMARK    1  A    between atoms: C_8  and  C_9 
REMARK    2  A    between atoms: C_9  and  N_32 
REMARK    3  A    between atoms: N_32  and  C_10 
REMARK    4  A    between atoms: C_15  and  C_16 
REMARK       I    between atoms: C_16  and  N_18 
REMARK    5  A    between atoms: C_20  and  N_18 
REMARK    6  A    between atoms: C_20  and  C_24 
REMARK    7  A    between atoms: C_20  and  C_22 
REMARK    8  A    between atoms: C_22  and  O_21 
REMARK    9  A    between atoms: C_24  and  C_25 
REMARK   10  A    between atoms: C_25  and  C_26 
REMARK   11  A    between atoms: C_26  and  O_27 
REMARK       I    between atoms: C_30  and  N_31 
REMARK   12  A    between atoms: N_33  and  C_35 
ROOT
HETATM    1  N   UNK N   1      29.445  18.126   4.543  0.00  0.00    -0.388 N 
HETATM    2  H   UNK N   1      30.185  18.588   4.088  0.00  0.00     0.159 HD
ENDROOT
BRANCH   1   3
HETATM    3  C   UNK N   1      29.731  17.084   5.487  0.00  0.00     0.147 C 
BRANCH   3   4
HETATM    4  C   UNK N   1      30.774  16.177   4.848  0.00  0.00     0.128 C 
HETATM    5  N   UNK N   1      32.112  16.660   5.117  0.00  0.00    -0.309 N 
HETATM    6  C   UNK N   1      32.644  16.453   6.441  0.00  0.00     0.151 A 
HETATM    7  C   UNK N   1      32.041  15.469   7.255  0.00  0.00     0.149 A 
HETATM    8  C   UNK N   1      33.723  17.182   6.997  0.00  0.00     0.290 A 
HETATM    9  N   UNK N   1      32.488  15.249   8.514  0.00  0.00    -0.175 N 
HETATM   10  N   UNK N   1      30.979  14.678   6.743  0.00  0.00    -0.372 N 
HETATM   11  C   UNK N   1      33.525  15.956   9.023  0.00  0.00     0.680 A 
ATOM     12  HN  UNK N   1      32.037  14.537   9.088  1.00  0.00     0.186 HD
HETATM   13  N   UNK N   1      34.134  16.909   8.272  0.00  0.00    -0.154 N 
HETATM   14  N   UNK N   1      33.972  15.702  10.332  0.00  0.00    -0.234 N 
HETATM   15  H   UNK N   1      34.887  17.415   8.655  0.00  0.00     0.187 HD
HETATM   16  H   UNK N   1      34.820  16.085  10.654  0.00  0.00     0.174 HD
HETATM   17  H   UNK N   1      33.433  15.137  10.931  0.00  0.00     0.174 HD
HETATM   18  C   UNK N   1      30.614  14.746   5.347  0.00  0.00     0.148 C 
HETATM   19  H   UNK N   1      30.486  14.076   7.347  0.00  0.00     0.161 HD
HETATM   20  O   UNK N   1      34.277  18.070   6.379  0.00  0.00    -0.265 OA
BRANCH   5  21
HETATM   21  C   UNK N   1      32.806  17.249   4.095  0.00  0.00     0.356 C 
HETATM   22  O   UNK N   1      32.252  17.505   3.036  0.00  0.00    -0.283 OA
ENDBRANCH   5  21
ENDBRANCH   3   4
ENDBRANCH   1   3
BRANCH   1  23
HETATM   23  C   UNK N   1      28.111  18.494   4.264  0.00  0.00     0.028 A 
HETATM   24  C   UNK N   1      27.148  17.498   4.162  0.00  0.00     0.030 A 
HETATM   25  C   UNK N   1      25.833  17.838   3.887  0.00  0.00     0.019 A 
HETATM   26  C   UNK N   1      25.462  19.178   3.707  0.00  0.00     0.032 A 
HETATM   27  C   UNK N   1      26.430  20.183   3.784  0.00  0.00     0.019 A 
HETATM   28  C   UNK N   1      27.756  19.839   4.050  0.00  0.00     0.030 A 
BRANCH  26  29
HETATM   29  C   UNK N   1      24.034  19.500   3.666  0.00  0.00     0.252 C 
HETATM   30  N   UNK N   1      23.181  18.575   4.165  0.00  0.00    -0.343 N 
HETATM   31  H   UNK N   1      23.496  17.642   4.173  0.00  0.00     0.163 HD
HETATM   32  O   UNK N   1      23.656  20.622   3.368  0.00  0.00    -0.268 OA
BRANCH  30  33
HETATM   33  C   UNK N   1      21.860  18.814   4.687  0.00  0.00     0.183 C 
BRANCH  33  34
HETATM   34  C   UNK N   1      20.741  18.426   3.735  0.00  0.00     0.046 C 
BRANCH  34  35
HETATM   35  C   UNK N   1      21.017  16.999   3.289  0.00  0.00     0.112 C 
BRANCH  35  36
HETATM   36  C   UNK N   1      19.819  16.136   3.460  0.00  0.00     0.139 C 
HETATM   37  O   UNK N   1      19.717  15.106   2.813  0.00  0.00    -0.650 OA
BRANCH  36  38
HETATM   38  O   UNK N   1      18.837  16.501   4.303  0.00  0.00    -0.776 OA
HETATM   39  H   UNK N   1      18.635  16.121   5.136  0.00  0.00     0.167 HD
ENDBRANCH  36  38
ENDBRANCH  35  36
ENDBRANCH  34  35
ENDBRANCH  33  34
BRANCH  33  40
HETATM   40  C   UNK N   1      21.784  18.181   6.045  0.00  0.00     0.163 C 
HETATM   41  O   UNK N   1      21.042  18.661   6.888  0.00  0.00    -0.648 OA
BRANCH  40  42
HETATM   42  O   UNK N   1      22.520  17.096   6.348  0.00  0.00    -0.775 OA
HETATM   43  H   UNK N   1      23.061  16.556   5.805  0.00  0.00     0.167 HD
ENDBRANCH  40  42
ENDBRANCH  33  40
ENDBRANCH  30  33
ENDBRANCH  26  29
ENDBRANCH   1  23
TORSDOF 12
ENDMDL
MODEL 6
REMARK VINA RESULT:      -7.4      3.914      9.896
REMARK  12 active torsions:
REMARK  status: ('A' for Active; 'I' for Inactive)
REMARK    1  A    between atoms: C_8  and  C_9 
REMARK    2  A    between atoms: C_9  and  N_32 
REMARK    3  A    between atoms: N_32  and  C_10 
REMARK    4  A    between atoms: C_15  and  C_16 
REMARK       I    between atoms: C_16  and  N_18 
REMARK    5  A    between atoms: C_20  and  N_18 
REMARK    6  A    between atoms: C_20  and  C_24 
REMARK    7  A    between atoms: C_20  and  C_22 
REMARK    8  A    between atoms: C_22  and  O_21 
REMARK    9  A    between atoms: C_24  and  C_25 
REMARK   10  A    between atoms: C_25  and  C_26 
REMARK   11  A    between atoms: C_26  and  O_27 
REMARK       I    between atoms: C_30  and  N_31 
REMARK   12  A    between atoms: N_33  and  C_35 
ROOT
HETATM    1  N   UNK N   1      22.873  14.491   4.130  0.00  0.00    -0.388 N 
HETATM    2  H   UNK N   1      22.559  13.575   4.306  0.00  0.00     0.159 HD
ENDROOT
BRANCH   1   3
HETATM    3  C   UNK N   1      22.057  15.388   3.362  0.00  0.00     0.147 C 
BRANCH   3   4
HETATM    4  C   UNK N   1      21.191  16.158   4.350  0.00  0.00     0.128 C 
HETATM    5  N   UNK N   1      21.672  17.514   4.507  0.00  0.00    -0.309 N 
HETATM    6  C   UNK N   1      21.405  18.447   3.440  0.00  0.00     0.151 A 
HETATM    7  C   UNK N   1      20.378  18.134   2.524  0.00  0.00     0.149 A 
HETATM    8  C   UNK N   1      22.115  19.654   3.231  0.00  0.00     0.290 A 
HETATM    9  N   UNK N   1      20.100  18.965   1.491  0.00  0.00    -0.175 N 
HETATM   10  N   UNK N   1      19.603  16.957   2.700  0.00  0.00    -0.372 N 
HETATM   11  C   UNK N   1      20.791  20.117   1.313  0.00  0.00     0.680 A 
ATOM     12  HN  UNK N   1      19.358  18.720   0.836  1.00  0.00     0.186 HD
HETATM   13  N   UNK N   1      21.784  20.455   2.174  0.00  0.00    -0.154 N 
HETATM   14  N   UNK N   1      20.477  20.963   0.235  0.00  0.00    -0.234 N 
HETATM   15  H   UNK N   1      22.277  21.296   2.033  0.00  0.00     0.187 HD
HETATM   16  H   UNK N   1      20.851  21.873   0.188  0.00  0.00     0.174 HD
HETATM   17  H   UNK N   1      19.879  20.644  -0.479  0.00  0.00     0.174 HD
HETATM   18  C   UNK N   1      19.736  16.158   3.896  0.00  0.00     0.148 C 
HETATM   19  H   UNK N   1      18.968  16.683   1.998  0.00  0.00     0.161 HD
HETATM   20  O   UNK N   1      23.037  19.984   3.952  0.00  0.00    -0.265 OA
BRANCH   5  21
HETATM   21  C   UNK N   1      22.315  17.843   5.669  0.00  0.00     0.356 C 
HETATM   22  O   UNK N   1      21.709  18.387   6.581  0.00  0.00    -0.283 OA
ENDBRANCH   5  21
ENDBRANCH   3   4
ENDBRANCH   1   3
BRANCH   1  23
HETATM   23  C   UNK N   1      24.121  14.914   4.637  0.00  0.00     0.028 A 
HETATM   24  C   UNK N   1      24.962  15.653   3.815  0.00  0.00     0.030 A 
HETATM   25  C   UNK N   1      26.193  16.076   4.293  0.00  0.00     0.019 A 
HETATM   26  C   UNK N   1      26.601  15.763   5.597  0.00  0.00     0.032 A 
HETATM   27  C   UNK N   1      25.770  14.998   6.421  0.00  0.00     0.019 A 
HETATM   28  C   UNK N   1      24.537  14.563   5.936  0.00  0.00     0.030 A 
BRANCH  26  29
HETATM   29  C   UNK N   1      27.788  16.437   6.130  0.00  0.00     0.252 C 
HETATM   30  N   UNK N   1      27.584  17.574   6.835  0.00  0.00    -0.343 N 
HETATM   31  H   UNK N   1      26.756  18.070   6.643  0.00  0.00     0.163 HD
HETATM   32  O   UNK N   1      28.881  15.894   6.095  0.00  0.00    -0.268 OA
BRANCH  30  33
HETATM   33  C   UNK N   1      28.454  18.132   7.839  0.00  0.00     0.183 C 
BRANCH  33  34
HETATM   34  C   UNK N   1      28.268  19.625   8.053  0.00  0.00     0.046 C 
BRANCH  34  35
HETATM   35  C   UNK N   1      27.816  20.208   6.724  0.00  0.00     0.112 C 
BRANCH  35  36
HETATM   36  C   UNK N   1      26.550  20.974   6.870  0.00  0.00     0.139 C 
HETATM   37  O   UNK N   1      26.092  21.576   5.912  0.00  0.00    -0.650 OA
BRANCH  36  38
HETATM   38  O   UNK N   1      25.926  21.028   8.060  0.00  0.00    -0.776 OA
HETATM   39  H   UNK N   1      25.005  20.963   8.219  0.00  0.00     0.167 HD
ENDBRANCH  36  38
ENDBRANCH  35  36
ENDBRANCH  34  35
ENDBRANCH  33  34
BRANCH  33  40
HETATM   40  C   UNK N   1      28.320  17.294   9.075  0.00  0.00     0.163 C 
HETATM   41  O   UNK N   1      29.277  17.179   9.826  0.00  0.00    -0.648 OA
BRANCH  40  42
HETATM   42  O   UNK N   1      27.167  16.666   9.369  0.00  0.00    -0.775 OA
HETATM   43  H   UNK N   1      26.975  16.018  10.018  0.00  0.00     0.167 HD
ENDBRANCH  40  42
ENDBRANCH  33  40
ENDBRANCH  30  33
ENDBRANCH  26  29
ENDBRANCH   1  23
TORSDOF 12
ENDMDL
MODEL 7
REMARK VINA RESULT:      -7.4      1.840      2.615
REMARK  12 active torsions:
REMARK  status: ('A' for Active; 'I' for Inactive)
REMARK    1  A    between atoms: C_8  and  C_9 
REMARK    2  A    between atoms: C_9  and  N_32 
REMARK    3  A    between atoms: N_32  and  C_10 
REMARK    4  A    between atoms: C_15  and  C_16 
REMARK       I    between atoms: C_16  and  N_18 
REMARK    5  A    between atoms: C_20  and  N_18 
REMARK    6  A    between atoms: C_20  and  C_24 
REMARK    7  A    between atoms: C_20  and  C_22 
REMARK    8  A    between atoms: C_22  and  O_21 
REMARK    9  A    between atoms: C_24  and  C_25 
REMARK   10  A    between atoms: C_25  and  C_26 
REMARK   11  A    between atoms: C_26  and  O_27 
REMARK       I    between atoms: C_30  and  N_31 
REMARK   12  A    between atoms: N_33  and  C_35 
ROOT
HETATM    1  N   UNK N   1      28.381  18.413   4.037  0.00  0.00    -0.388 N 
HETATM    2  H   UNK N   1      28.869  18.334   3.187  0.00  0.00     0.159 HD
ENDROOT
BRANCH   1   3
HETATM    3  C   UNK N   1      29.108  18.458   5.273  0.00  0.00     0.147 C 
BRANCH   3   4
HETATM    4  C   UNK N   1      29.338  17.017   5.708  0.00  0.00     0.128 C 
HETATM    5  N   UNK N   1      30.665  16.573   5.337  0.00  0.00    -0.309 N 
HETATM    6  C   UNK N   1      31.776  17.058   6.120  0.00  0.00     0.151 A 
HETATM    7  C   UNK N   1      31.507  17.580   7.404  0.00  0.00     0.149 A 
HETATM    8  C   UNK N   1      33.123  17.066   5.685  0.00  0.00     0.290 A 
HETATM    9  N   UNK N   1      32.510  18.068   8.172  0.00  0.00    -0.175 N 
HETATM   10  N   UNK N   1      30.182  17.565   7.914  0.00  0.00    -0.372 N 
HETATM   11  C   UNK N   1      33.793  18.062   7.735  0.00  0.00     0.680 A 
ATOM     12  HN  UNK N   1      32.297  18.446   9.094  1.00  0.00     0.186 HD
HETATM   13  N   UNK N   1      34.093  17.566   6.508  0.00  0.00    -0.154 N 
HETATM   14  N   UNK N   1      34.815  18.570   8.556  0.00  0.00    -0.234 N 
HETATM   15  H   UNK N   1      35.030  17.568   6.205  0.00  0.00     0.187 HD
HETATM   16  H   UNK N   1      35.761  18.423   8.327  0.00  0.00     0.174 HD
HETATM   17  H   UNK N   1      34.584  19.078   9.368  0.00  0.00     0.174 HD
HETATM   18  C   UNK N   1      29.128  16.873   7.210  0.00  0.00     0.148 C 
HETATM   19  H   UNK N   1      29.980  18.033   8.757  0.00  0.00     0.161 HD
HETATM   20  O   UNK N   1      33.438  16.668   4.580  0.00  0.00    -0.265 OA
BRANCH   5  21
HETATM   21  C   UNK N   1      30.788  15.693   4.296  0.00  0.00     0.356 C 
HETATM   22  O   UNK N   1      30.443  16.016   3.169  0.00  0.00    -0.283 OA
ENDBRANCH   5  21
ENDBRANCH   3   4
ENDBRANCH   1   3
BRANCH   1  23
HETATM   23  C   UNK N   1      26.971  18.485   4.033  0.00  0.00     0.028 A 
HETATM   24  C   UNK N   1      26.239  17.307   4.111  0.00  0.00     0.030 A 
HETATM   25  C   UNK N   1      24.854  17.355   4.106  0.00  0.00     0.019 A 
HETATM   26  C   UNK N   1      24.181  18.582   4.020  0.00  0.00     0.032 A 
HETATM   27  C   UNK N   1      24.910  19.770   3.915  0.00  0.00     0.019 A 
HETATM   28  C   UNK N   1      26.304  19.719   3.909  0.00  0.00     0.030 A 
BRANCH  26  29
HETATM   29  C   UNK N   1      22.737  18.596   4.266  0.00  0.00     0.252 C 
HETATM   30  N   UNK N   1      21.930  18.719   3.186  0.00  0.00    -0.343 N 
HETATM   31  H   UNK N   1      22.319  19.152   2.392  0.00  0.00     0.163 HD
HETATM   32  O   UNK N   1      22.290  18.322   5.370  0.00  0.00    -0.268 OA
BRANCH  30  33
HETATM   33  C   UNK N   1      20.562  18.280   3.079  0.00  0.00     0.183 C 
BRANCH  33  34
HETATM   34  C   UNK N   1      19.618  19.338   2.533  0.00  0.00     0.046 C 
BRANCH  34  35
HETATM   35  C   UNK N   1      20.405  20.637   2.459  0.00  0.00     0.112 C 
BRANCH  35  36
HETATM   36  C   UNK N   1      20.623  21.059   1.050  0.00  0.00     0.139 C 
HETATM   37  O   UNK N   1      20.929  20.229   0.209  0.00  0.00    -0.650 OA
BRANCH  36  38
HETATM   38  O   UNK N   1      20.512  22.355   0.707  0.00  0.00    -0.776 OA
HETATM   39  H   UNK N   1      20.089  23.035   1.194  0.00  0.00     0.167 HD
ENDBRANCH  36  38
ENDBRANCH  35  36
ENDBRANCH  34  35
ENDBRANCH  33  34
BRANCH  33  40
HETATM   40  C   UNK N   1      20.557  16.980   2.331  0.00  0.00     0.163 C 
HETATM   41  O   UNK N   1      20.323  16.981   1.132  0.00  0.00    -0.648 OA
BRANCH  40  42
HETATM   42  O   UNK N   1      20.804  15.816   2.959  0.00  0.00    -0.775 OA
HETATM   43  H   UNK N   1      20.430  15.454   3.738  0.00  0.00     0.167 HD
ENDBRANCH  40  42
ENDBRANCH  33  40
ENDBRANCH  30  33
ENDBRANCH  26  29
ENDBRANCH   1  23
TORSDOF 12
ENDMDL
MODEL 8
REMARK VINA RESULT:      -7.2      2.734     11.030
REMARK  12 active torsions:
REMARK  status: ('A' for Active; 'I' for Inactive)
REMARK    1  A    between atoms: C_8  and  C_9 
REMARK    2  A    between atoms: C_9  and  N_32 
REMARK    3  A    between atoms: N_32  and  C_10 
REMARK    4  A    between atoms: C_15  and  C_16 
REMARK       I    between atoms: C_16  and  N_18 
REMARK    5  A    between atoms: C_20  and  N_18 
REMARK    6  A    between atoms: C_20  and  C_24 
REMARK    7  A    between atoms: C_20  and  C_22 
REMARK    8  A    between atoms: C_22  and  O_21 
REMARK    9  A    between atoms: C_24  and  C_25 
REMARK   10  A    between atoms: C_25  and  C_26 
REMARK   11  A    between atoms: C_26  and  O_27 
REMARK       I    between atoms: C_30  and  N_31 
REMARK   12  A    between atoms: N_33  and  C_35 
ROOT
HETATM    1  N   UNK N   1      23.435  14.970   4.473  0.00  0.00    -0.388 N 
HETATM    2  H   UNK N   1      23.117  14.124   4.861  0.00  0.00     0.159 HD
ENDROOT
BRANCH   1   3
HETATM    3  C   UNK N   1      22.720  15.563   3.379  0.00  0.00     0.147 C 
BRANCH   3   4
HETATM    4  C   UNK N   1      21.251  15.606   3.779  0.00  0.00     0.128 C 
HETATM    5  N   UNK N   1      20.909  16.892   4.348  0.00  0.00    -0.309 N 
HETATM    6  C   UNK N   1      20.767  18.007   3.444  0.00  0.00     0.151 A 
HETATM    7  C   UNK N   1      20.561  17.731   2.074  0.00  0.00     0.149 A 
HETATM    8  C   UNK N   1      20.837  19.367   3.828  0.00  0.00     0.290 A 
HETATM    9  N   UNK N   1      20.441  18.741   1.180  0.00  0.00    -0.175 N 
HETATM   10  N   UNK N   1      20.443  16.388   1.630  0.00  0.00    -0.372 N 
HETATM   11  C   UNK N   1      20.509  20.036   1.572  0.00  0.00     0.680 A 
ATOM     12  HN  UNK N   1      20.298  18.523   0.194  1.00  0.00     0.186 HD
HETATM   13  N   UNK N   1      20.703  20.343   2.880  0.00  0.00    -0.154 N 
HETATM   14  N   UNK N   1      20.376  21.064   0.622  0.00  0.00    -0.234 N 
HETATM   15  H   UNK N   1      20.748  21.289   3.150  0.00  0.00     0.187 HD
HETATM   16  H   UNK N   1      20.256  21.998   0.909  0.00  0.00     0.174 HD
HETATM   17  H   UNK N   1      20.403  20.849  -0.339  0.00  0.00     0.174 HD
HETATM   18  C   UNK N   1      20.363  15.301   2.579  0.00  0.00     0.148 C 
HETATM   19  H   UNK N   1      20.416  16.196   0.665  0.00  0.00     0.161 HD
HETATM   20  O   UNK N   1      21.046  19.694   4.981  0.00  0.00    -0.265 OA
BRANCH   5  21
HETATM   21  C   UNK N   1      20.705  16.970   5.698  0.00  0.00     0.356 C 
HETATM   22  O   UNK N   1      21.613  16.722   6.478  0.00  0.00    -0.283 OA
ENDBRANCH   5  21
ENDBRANCH   3   4
ENDBRANCH   1   3
BRANCH   1  23
HETATM   23  C   UNK N   1      24.589  15.593   4.996  0.00  0.00     0.028 A 
HETATM   24  C   UNK N   1      25.344  14.917   5.945  0.00  0.00     0.030 A 
HETATM   25  C   UNK N   1      26.479  15.513   6.472  0.00  0.00     0.019 A 
HETATM   26  C   UNK N   1      26.873  16.794   6.061  0.00  0.00     0.032 A 
HETATM   27  C   UNK N   1      26.104  17.491   5.125  0.00  0.00     0.019 A 
HETATM   28  C   UNK N   1      24.955  16.895   4.603  0.00  0.00     0.030 A 
BRANCH  26  29
HETATM   29  C   UNK N   1      28.200  17.270   6.459  0.00  0.00     0.252 C 
HETATM   30  N   UNK N   1      29.268  16.650   5.903  0.00  0.00    -0.343 N 
HETATM   31  H   UNK N   1      29.127  15.729   5.585  0.00  0.00     0.163 HD
HETATM   32  O   UNK N   1      28.325  18.293   7.114  0.00  0.00    -0.268 OA
BRANCH  30  33
HETATM   33  C   UNK N   1      30.587  17.200   5.727  0.00  0.00     0.183 C 
BRANCH  33  34
HETATM   34  C   UNK N   1      31.664  16.488   6.528  0.00  0.00     0.046 C 
BRANCH  34  35
HETATM   35  C   UNK N   1      32.380  17.551   7.346  0.00  0.00     0.112 C 
BRANCH  35  36
HETATM   36  C   UNK N   1      33.756  17.792   6.835  0.00  0.00     0.139 C 
HETATM   37  O   UNK N   1      34.043  17.469   5.694  0.00  0.00    -0.650 OA
BRANCH  36  38
HETATM   38  O   UNK N   1      34.688  18.339   7.635  0.00  0.00    -0.776 OA
HETATM   39  H   UNK N   1      35.619  18.295   7.533  0.00  0.00     0.167 HD
ENDBRANCH  36  38
ENDBRANCH  35  36
ENDBRANCH  34  35
ENDBRANCH  33  34
BRANCH  33  40
HETATM   40  C   UNK N   1      30.850  17.291   4.253  0.00  0.00     0.163 C 
HETATM   41  O   UNK N   1      30.154  16.649   3.481  0.00  0.00    -0.648 OA
BRANCH  40  42
HETATM   42  O   UNK N   1      31.840  18.063   3.769  0.00  0.00    -0.775 OA
HETATM   43  H   UNK N   1      31.826  18.948   3.460  0.00  0.00     0.167 HD
ENDBRANCH  40  42
ENDBRANCH  33  40
ENDBRANCH  30  33
ENDBRANCH  26  29
ENDBRANCH   1  23
TORSDOF 12
ENDMDL
MODEL 9
REMARK VINA RESULT:      -7.2      2.354      3.982
REMARK  12 active torsions:
REMARK  status: ('A' for Active; 'I' for Inactive)
REMARK    1  A    between atoms: C_8  and  C_9 
REMARK    2  A    between atoms: C_9  and  N_32 
REMARK    3  A    between atoms: N_32  and  C_10 
REMARK    4  A    between atoms: C_15  and  C_16 
REMARK       I    between atoms: C_16  and  N_18 
REMARK    5  A    between atoms: C_20  and  N_18 
REMARK    6  A    between atoms: C_20  and  C_24 
REMARK    7  A    between atoms: C_20  and  C_22 
REMARK    8  A    between atoms: C_22  and  O_21 
REMARK    9  A    between atoms: C_24  and  C_25 
REMARK   10  A    between atoms: C_25  and  C_26 
REMARK   11  A    between atoms: C_26  and  O_27 
REMARK       I    between atoms: C_30  and  N_31 
REMARK   12  A    between atoms: N_33  and  C_35 
ROOT
HETATM    1  N   UNK N   1      31.116  17.592   8.379  0.00  0.00    -0.388 N 
HETATM    2  H   UNK N   1      31.748  18.278   8.691  0.00  0.00     0.159 HD
ENDROOT
BRANCH   1   3
HETATM    3  C   UNK N   1      31.345  16.213   8.703  0.00  0.00     0.147 C 
BRANCH   3   4
HETATM    4  C   UNK N   1      32.553  15.760   7.893  0.00  0.00     0.128 C 
HETATM    5  N   UNK N   1      33.770  16.349   8.411  0.00  0.00    -0.309 N 
HETATM    6  C   UNK N   1      34.304  15.810   9.638  0.00  0.00     0.151 A 
HETATM    7  C   UNK N   1      33.880  14.525  10.041  0.00  0.00     0.149 A 
HETATM    8  C   UNK N   1      35.215  16.487  10.483  0.00  0.00     0.290 A 
HETATM    9  N   UNK N   1      34.335  13.980  11.194  0.00  0.00    -0.175 N 
HETATM   10  N   UNK N   1      32.997  13.778   9.217  0.00  0.00    -0.372 N 
HETATM   11  C   UNK N   1      35.209  14.647  11.986  0.00  0.00     0.680 A 
ATOM     12  HN  UNK N   1      34.014  13.053  11.472  1.00  0.00     0.186 HD
HETATM   13  N   UNK N   1      35.643  15.883  11.633  0.00  0.00    -0.154 N 
HETATM   14  N   UNK N   1      35.669  14.054  13.176  0.00  0.00    -0.234 N 
HETATM   15  H   UNK N   1      36.280  16.355  12.218  0.00  0.00     0.187 HD
HETATM   16  H   UNK N   1      36.423  14.448  13.672  0.00  0.00     0.174 HD
HETATM   17  H   UNK N   1      35.233  13.239  13.517  0.00  0.00     0.174 HD
HETATM   18  C   UNK N   1      32.655  14.240   7.892  0.00  0.00     0.148 C 
HETATM   19  H   UNK N   1      32.614  12.935   9.554  0.00  0.00     0.161 HD
HETATM   20  O   UNK N   1      35.605  17.611  10.230  0.00  0.00    -0.265 OA
BRANCH   5  21
HETATM   21  C   UNK N   1      34.362  17.351   7.692  0.00  0.00     0.356 C 
HETATM   22  O   UNK N   1      33.762  17.895   6.777  0.00  0.00    -0.283 OA
ENDBRANCH   5  21
ENDBRANCH   3   4
ENDBRANCH   1   3
BRANCH   1  23
HETATM   23  C   UNK N   1      29.988  17.971   7.618  0.00  0.00     0.028 A 
HETATM   24  C   UNK N   1      29.022  18.776   8.207  0.00  0.00     0.030 A 
HETATM   25  C   UNK N   1      27.907  19.157   7.478  0.00  0.00     0.019 A 
HETATM   26  C   UNK N   1      27.740  18.736   6.151  0.00  0.00     0.032 A 
HETATM   27  C   UNK N   1      28.696  17.906   5.560  0.00  0.00     0.019 A 
HETATM   28  C   UNK N   1      29.813  17.513   6.298  0.00  0.00     0.030 A 
BRANCH  26  29
HETATM   29  C   UNK N   1      26.682  19.363   5.356  0.00  0.00     0.252 C 
HETATM   30  N   UNK N   1      26.377  18.783   4.171  0.00  0.00    -0.343 N 
HETATM   31  H   UNK N   1      27.085  18.243   3.749  0.00  0.00     0.163 HD
HETATM   32  O   UNK N   1      25.989  20.251   5.829  0.00  0.00    -0.268 OA
BRANCH  30  33
HETATM   33  C   UNK N   1      25.124  18.871   3.466  0.00  0.00     0.183 C 
BRANCH  33  34
HETATM   34  C   UNK N   1      23.943  18.302   4.234  0.00  0.00     0.046 C 
BRANCH  34  35
HETATM   35  C   UNK N   1      24.057  16.787   4.158  0.00  0.00     0.112 C 
BRANCH  35  36
HETATM   36  C   UNK N   1      24.361  16.199   5.490  0.00  0.00     0.139 C 
HETATM   37  O   UNK N   1      25.521  16.092   5.854  0.00  0.00    -0.650 OA
BRANCH  36  38
HETATM   38  O   UNK N   1      23.365  15.760   6.280  0.00  0.00    -0.776 OA
HETATM   39  H   UNK N   1      23.228  14.885   6.585  0.00  0.00     0.167 HD
ENDBRANCH  36  38
ENDBRANCH  35  36
ENDBRANCH  34  35
ENDBRANCH  33  34
BRANCH  33  40
HETATM   40  C   UNK N   1      24.957  20.289   3.008  0.00  0.00     0.163 C 
HETATM   41  O   UNK N   1      25.796  20.781   2.268  0.00  0.00    -0.648 OA
BRANCH  40  42
HETATM   42  O   UNK N   1      23.903  21.027   3.400  0.00  0.00    -0.775 OA
HETATM   43  H   UNK N   1      23.053  20.765   3.696  0.00  0.00     0.167 HD
ENDBRANCH  40  42
ENDBRANCH  33  40
ENDBRANCH  30  33
ENDBRANCH  26  29
ENDBRANCH   1  23
TORSDOF 12
ENDMDL
