MODEL 1
REMARK VINA RESULT:      -7.0      0.000      0.000
REMARK  5 active torsions:
REMARK  status: ('A' for Active; 'I' for Inactive)
REMARK    1  A    between atoms: C_3  and  O_24 
REMARK    2  A    between atoms: C_22  and  C_9 
REMARK    3  A    between atoms: C_14  and  C_16 
REMARK    4  A    between atoms: C_21  and  C_22 
REMARK    5  A    between atoms: C_22  and  O_23 
ROOT
HETATM    1  C   UNK N   1      37.519  12.132  12.990  0.00  0.00     0.033 A 
HETATM    2  C   UNK N   1      36.484  12.123  13.931  0.00  0.00     0.039 A 
HETATM    3  C   UNK N   1      35.374  12.967  13.766  0.00  0.00     0.069 A 
HETATM    4  C   UNK N   1      35.315  13.809  12.659  0.00  0.00     0.051 A 
HETATM    5  C   UNK N   1      36.338  13.833  11.700  0.00  0.00     0.002 A 
HETATM    6  C   UNK N   1      37.453  12.978  11.880  0.00  0.00     0.043 A 
HETATM    7  N   UNK N   1      38.463  12.975  10.969  0.00  0.00    -0.365 N 
ATOM      8  HN  UNK N   1      39.261  12.355  11.113  1.00  0.00     0.165 HD
HETATM    9  C   UNK N   1      36.289  14.681  10.562  0.00  0.00    -0.014 A 
HETATM   10  C   UNK N   1      37.356  14.633   9.654  0.00  0.00     0.027 A 
HETATM   11  C   UNK N   1      38.436  13.777   9.875  0.00  0.00     0.089 A 
ENDROOT
BRANCH   9  12
HETATM   12  C   UNK N   1      35.127  15.626  10.251  0.00  0.00     0.185 C 
BRANCH  12  13
HETATM   13  C   UNK N   1      35.136  16.179   8.805  0.00  0.00     0.256 C 
HETATM   14  C   UNK N   1      34.554  17.618   8.805  0.00  0.00     0.044 C 
HETATM   15  C   UNK N   1      33.227  17.651   8.050  0.00  0.00    -0.001 C 
HETATM   16  C   UNK N   1      33.541  17.290   6.591  0.00  0.00     0.040 C 
HETATM   17  C   UNK N   1      32.321  16.560   8.645  0.00  0.00     0.035 C 
HETATM   18  C   UNK N   1      34.267  15.914   6.551  0.00  0.00     0.282 C 
HETATM   19  N   UNK N   1      34.343  15.306   7.896  0.00  0.00     0.096 N 
HETATM   20  C   UNK N   1      32.960  15.175   8.404  0.00  0.00     0.273 C 
BRANCH  16  21
HETATM   21  C   UNK N   1      32.282  17.356   5.762  0.00  0.00    -0.030 C 
HETATM   22  C   UNK N   1      32.291  17.446   4.431  0.00  0.00     0.007 C 
ENDBRANCH  16  21
ENDBRANCH  12  13
BRANCH  12  23
HETATM   23  O   UNK N   1      35.013  16.678  11.166  0.00  0.00    -0.389 OA
HETATM   24  H   UNK N   1      35.604  16.722  11.933  0.00  0.00     0.210 HD
ENDBRANCH  12  23
ENDBRANCH   9  12
BRANCH   3  25
HETATM   25  O   UNK N   1      34.350  12.988  14.653  0.00  0.00    -0.356 OA
HETATM   26  C   UNK N   1      34.530  12.944  16.016  0.00  0.00     0.210 C 
ENDBRANCH   3  25
TORSDOF 5
ENDMDL
MODEL 2
REMARK VINA RESULT:      -6.7      6.051      9.132
REMARK  5 active torsions:
REMARK  status: ('A' for Active; 'I' for Inactive)
REMARK    1  A    between atoms: C_3  and  O_24 
REMARK    2  A    between atoms: C_22  and  C_9 
REMARK    3  A    between atoms: C_14  and  C_16 
REMARK    4  A    between atoms: C_21  and  C_22 
REMARK    5  A    between atoms: C_22  and  O_23 
ROOT
HETATM    1  C   UNK N   1      32.876  17.761   7.995  0.00  0.00     0.033 A 
HETATM    2  C   UNK N   1      33.458  17.573   6.737  0.00  0.00     0.039 A 
HETATM    3  C   UNK N   1      32.652  17.274   5.626  0.00  0.00     0.069 A 
HETATM    4  C   UNK N   1      31.274  17.167   5.790  0.00  0.00     0.051 A 
HETATM    5  C   UNK N   1      30.668  17.355   7.040  0.00  0.00     0.002 A 
HETATM    6  C   UNK N   1      31.492  17.655   8.153  0.00  0.00     0.043 A 
HETATM    7  N   UNK N   1      30.938  17.844   9.380  0.00  0.00    -0.365 N 
ATOM      8  HN  UNK N   1      31.544  18.057  10.173  1.00  0.00     0.165 HD
HETATM    9  C   UNK N   1      29.263  17.258   7.222  0.00  0.00    -0.014 A 
HETATM   10  C   UNK N   1      28.746  17.466   8.508  0.00  0.00     0.027 A 
HETATM   11  C   UNK N   1      29.598  17.755   9.576  0.00  0.00     0.089 A 
ENDROOT
BRANCH   9  12
HETATM   12  C   UNK N   1      28.274  16.964   6.092  0.00  0.00     0.185 C 
BRANCH  12  13
HETATM   13  C   UNK N   1      27.000  17.843   6.129  0.00  0.00     0.256 C 
HETATM   14  C   UNK N   1      25.936  17.240   5.173  0.00  0.00     0.044 C 
HETATM   15  C   UNK N   1      25.689  18.180   3.996  0.00  0.00    -0.001 C 
HETATM   16  C   UNK N   1      25.094  19.470   4.579  0.00  0.00     0.040 C 
HETATM   17  C   UNK N   1      27.052  18.507   3.363  0.00  0.00     0.035 C 
HETATM   18  C   UNK N   1      26.060  20.035   5.660  0.00  0.00     0.282 C 
HETATM   19  N   UNK N   1      27.308  19.244   5.732  0.00  0.00     0.096 N 
HETATM   20  C   UNK N   1      27.926  19.263   4.389  0.00  0.00     0.273 C 
BRANCH  16  21
HETATM   21  C   UNK N   1      24.768  20.436   3.467  0.00  0.00    -0.030 C 
HETATM   22  C   UNK N   1      23.610  20.418   2.804  0.00  0.00     0.007 C 
ENDBRANCH  16  21
ENDBRANCH  12  13
BRANCH  12  23
HETATM   23  O   UNK N   1      27.923  15.614   6.005  0.00  0.00    -0.389 OA
HETATM   24  H   UNK N   1      28.227  14.987   6.679  0.00  0.00     0.210 HD
ENDBRANCH  12  23
ENDBRANCH   9  12
BRANCH   3  25
HETATM   25  O   UNK N   1      33.176  17.086   4.390  0.00  0.00    -0.356 OA
HETATM   26  C   UNK N   1      32.427  17.124   3.237  0.00  0.00     0.210 C 
ENDBRANCH   3  25
TORSDOF 5
ENDMDL
MODEL 3
REMARK VINA RESULT:      -6.6     15.829     19.714
REMARK  5 active torsions:
REMARK  status: ('A' for Active; 'I' for Inactive)
REMARK    1  A    between atoms: C_3  and  O_24 
REMARK    2  A    between atoms: C_22  and  C_9 
REMARK    3  A    between atoms: C_14  and  C_16 
REMARK    4  A    between atoms: C_21  and  C_22 
REMARK    5  A    between atoms: C_22  and  O_23 
ROOT
HETATM    1  C   UNK N   1      24.966  27.101  -5.529  0.00  0.00     0.033 A 
HETATM    2  C   UNK N   1      25.293  27.968  -4.482  0.00  0.00     0.039 A 
HETATM    3  C   UNK N   1      26.322  27.635  -3.586  0.00  0.00     0.069 A 
HETATM    4  C   UNK N   1      27.010  26.436  -3.751  0.00  0.00     0.051 A 
HETATM    5  C   UNK N   1      26.702  25.552  -4.795  0.00  0.00     0.002 A 
HETATM    6  C   UNK N   1      25.661  25.899  -5.691  0.00  0.00     0.043 A 
HETATM    7  N   UNK N   1      25.337  25.066  -6.715  0.00  0.00    -0.365 N 
ATOM      8  HN  UNK N   1      24.583  25.328  -7.351  1.00  0.00     0.165 HD
HETATM    9  C   UNK N   1      27.400  24.329  -4.980  0.00  0.00    -0.014 A 
HETATM   10  C   UNK N   1      27.026  23.511  -6.055  0.00  0.00     0.027 A 
HETATM   11  C   UNK N   1      25.991  23.893  -6.910  0.00  0.00     0.089 A 
ENDROOT
BRANCH   9  12
HETATM   12  C   UNK N   1      28.555  23.863  -4.093  0.00  0.00     0.185 C 
BRANCH  12  13
HETATM   13  C   UNK N   1      29.453  22.784  -4.747  0.00  0.00     0.256 C 
HETATM   14  C   UNK N   1      29.754  21.672  -3.707  0.00  0.00     0.044 C 
HETATM   15  C   UNK N   1      31.238  21.671  -3.348  0.00  0.00    -0.001 C 
HETATM   16  C   UNK N   1      32.002  21.311  -4.630  0.00  0.00     0.040 C 
HETATM   17  C   UNK N   1      31.620  23.101  -2.931  0.00  0.00     0.035 C 
HETATM   18  C   UNK N   1      31.615  22.315  -5.755  0.00  0.00     0.282 C 
HETATM   19  N   UNK N   1      30.725  23.379  -5.242  0.00  0.00     0.096 N 
HETATM   20  C   UNK N   1      31.431  24.054  -4.132  0.00  0.00     0.273 C 
BRANCH  16  21
HETATM   21  C   UNK N   1      33.482  21.235  -4.344  0.00  0.00    -0.030 C 
HETATM   22  C   UNK N   1      34.042  20.227  -3.674  0.00  0.00     0.007 C 
ENDBRANCH  16  21
ENDBRANCH  12  13
BRANCH  12  23
HETATM   23  O   UNK N   1      28.140  23.438  -2.827  0.00  0.00    -0.389 OA
HETATM   24  H   UNK N   1      28.574  22.683  -2.400  0.00  0.00     0.210 HD
ENDBRANCH  12  23
ENDBRANCH   9  12
BRANCH   3  25
HETATM   25  O   UNK N   1      26.670  28.448  -2.560  0.00  0.00    -0.356 OA
HETATM   26  C   UNK N   1      27.882  29.095  -2.484  0.00  0.00     0.210 C 
ENDBRANCH   3  25
TORSDOF 5
ENDMDL
MODEL 4
REMARK VINA RESULT:      -6.5     17.521     20.383
REMARK  5 active torsions:
REMARK  status: ('A' for Active; 'I' for Inactive)
REMARK    1  A    between atoms: C_3  and  O_24 
REMARK    2  A    between atoms: C_22  and  C_9 
REMARK    3  A    between atoms: C_14  and  C_16 
REMARK    4  A    between atoms: C_21  and  C_22 
REMARK    5  A    between atoms: C_22  and  O_23 
ROOT
HETATM    1  C   UNK N   1      29.750  20.728  -6.791  0.00  0.00     0.033 A 
HETATM    2  C   UNK N   1      28.826  20.607  -7.833  0.00  0.00     0.039 A 
HETATM    3  C   UNK N   1      27.755  21.510  -7.934  0.00  0.00     0.069 A 
HETATM    4  C   UNK N   1      27.625  22.524  -6.989  0.00  0.00     0.051 A 
HETATM    5  C   UNK N   1      28.541  22.667  -5.937  0.00  0.00     0.002 A 
HETATM    6  C   UNK N   1      29.616  21.749  -5.846  0.00  0.00     0.043 A 
HETATM    7  N   UNK N   1      30.523  21.859  -4.839  0.00  0.00    -0.365 N 
ATOM      8  HN  UNK N   1      31.291  21.188  -4.785  1.00  0.00     0.165 HD
HETATM    9  C   UNK N   1      28.426  23.701  -4.970  0.00  0.00    -0.014 A 
HETATM   10  C   UNK N   1      29.392  23.769  -3.956  0.00  0.00     0.027 A 
HETATM   11  C   UNK N   1      30.431  22.838  -3.904  0.00  0.00     0.089 A 
ENDROOT
BRANCH   9  12
HETATM   12  C   UNK N   1      27.325  24.762  -4.981  0.00  0.00     0.185 C 
BRANCH  12  13
HETATM   13  C   UNK N   1      27.635  25.998  -4.102  0.00  0.00     0.256 C 
HETATM   14  C   UNK N   1      26.374  26.365  -3.274  0.00  0.00     0.044 C 
HETATM   15  C   UNK N   1      25.819  27.713  -3.726  0.00  0.00    -0.001 C 
HETATM   16  C   UNK N   1      26.892  28.763  -3.403  0.00  0.00     0.040 C 
HETATM   17  C   UNK N   1      25.627  27.655  -5.251  0.00  0.00     0.035 C 
HETATM   18  C   UNK N   1      28.227  28.356  -4.093  0.00  0.00     0.282 C 
HETATM   19  N   UNK N   1      28.051  27.156  -4.940  0.00  0.00     0.096 N 
HETATM   20  C   UNK N   1      27.000  27.463  -5.933  0.00  0.00     0.273 C 
BRANCH  16  21
HETATM   21  C   UNK N   1      26.394  30.139  -3.771  0.00  0.00    -0.030 C 
HETATM   22  C   UNK N   1      27.154  31.047  -4.384  0.00  0.00     0.007 C 
ENDBRANCH  16  21
ENDBRANCH  12  13
BRANCH  12  23
HETATM   23  O   UNK N   1      26.064  24.251  -4.661  0.00  0.00    -0.389 OA
HETATM   24  H   UNK N   1      25.776  24.206  -3.737  0.00  0.00     0.210 HD
ENDBRANCH  12  23
ENDBRANCH   9  12
BRANCH   3  25
HETATM   25  O   UNK N   1      26.839  21.428  -8.929  0.00  0.00    -0.356 OA
HETATM   26  C   UNK N   1      25.485  21.350  -8.705  0.00  0.00     0.210 C 
ENDBRANCH   3  25
TORSDOF 5
ENDMDL
MODEL 5
REMARK VINA RESULT:      -6.4      2.486      3.798
REMARK  5 active torsions:
REMARK  status: ('A' for Active; 'I' for Inactive)
REMARK    1  A    between atoms: C_3  and  O_24 
REMARK    2  A    between atoms: C_22  and  C_9 
REMARK    3  A    between atoms: C_14  and  C_16 
REMARK    4  A    between atoms: C_21  and  C_22 
REMARK    5  A    between atoms: C_22  and  O_23 
ROOT
HETATM    1  C   UNK N   1      35.056  12.088  15.978  0.00  0.00     0.033 A 
HETATM    2  C   UNK N   1      35.913  13.137  16.326  0.00  0.00     0.039 A 
HETATM    3  C   UNK N   1      36.593  13.852  15.327  0.00  0.00     0.069 A 
HETATM    4  C   UNK N   1      36.406  13.506  13.992  0.00  0.00     0.051 A 
HETATM    5  C   UNK N   1      35.549  12.461  13.619  0.00  0.00     0.002 A 
HETATM    6  C   UNK N   1      34.870  11.747  14.636  0.00  0.00     0.043 A 
HETATM    7  N   UNK N   1      34.031  10.728  14.310  0.00  0.00    -0.365 N 
ATOM      8  HN  UNK N   1      33.550  10.221  15.054  1.00  0.00     0.165 HD
HETATM    9  C   UNK N   1      35.342  12.102  12.260  0.00  0.00    -0.014 A 
HETATM   10  C   UNK N   1      34.463  11.046  11.982  0.00  0.00     0.027 A 
HETATM   11  C   UNK N   1      33.819  10.368  13.018  0.00  0.00     0.089 A 
ENDROOT
BRANCH   9  12
HETATM   12  C   UNK N   1      36.000  12.816  11.078  0.00  0.00     0.185 C 
BRANCH  12  13
HETATM   13  C   UNK N   1      34.993  13.416  10.067  0.00  0.00     0.256 C 
HETATM   14  C   UNK N   1      35.773  14.148   8.943  0.00  0.00     0.044 C 
HETATM   15  C   UNK N   1      35.511  15.651   9.010  0.00  0.00    -0.001 C 
HETATM   16  C   UNK N   1      34.015  15.850   8.726  0.00  0.00     0.040 C 
HETATM   17  C   UNK N   1      35.807  16.115  10.446  0.00  0.00     0.035 C 
HETATM   18  C   UNK N   1      33.186  15.008   9.740  0.00  0.00     0.282 C 
HETATM   19  N   UNK N   1      34.060  14.359  10.741  0.00  0.00     0.096 N 
HETATM   20  C   UNK N   1      34.827  15.426  11.421  0.00  0.00     0.273 C 
BRANCH  16  21
HETATM   21  C   UNK N   1      33.684  17.323   8.720  0.00  0.00    -0.030 C 
HETATM   22  C   UNK N   1      33.964  18.126   7.693  0.00  0.00     0.007 C 
ENDBRANCH  16  21
ENDBRANCH  12  13
BRANCH  12  23
HETATM   23  O   UNK N   1      36.937  12.023  10.408  0.00  0.00    -0.389 OA
HETATM   24  H   UNK N   1      36.718  11.632   9.548  0.00  0.00     0.210 HD
ENDBRANCH  12  23
ENDBRANCH   9  12
BRANCH   3  25
HETATM   25  O   UNK N   1      37.431  14.875  15.622  0.00  0.00    -0.356 OA
HETATM   26  C   UNK N   1      37.236  15.733  16.679  0.00  0.00     0.210 C 
ENDBRANCH   3  25
TORSDOF 5
ENDMDL
MODEL 6
REMARK VINA RESULT:      -6.4     11.418     15.332
REMARK  5 active torsions:
REMARK  status: ('A' for Active; 'I' for Inactive)
REMARK    1  A    between atoms: C_3  and  O_24 
REMARK    2  A    between atoms: C_22  and  C_9 
REMARK    3  A    between atoms: C_14  and  C_16 
REMARK    4  A    between atoms: C_21  and  C_22 
REMARK    5  A    between atoms: C_22  and  O_23 
ROOT
HETATM    1  C   UNK N   1      24.337  20.693   2.940  0.00  0.00     0.033 A 
HETATM    2  C   UNK N   1      25.513  20.097   3.405  0.00  0.00     0.039 A 
HETATM    3  C   UNK N   1      25.465  18.850   4.050  0.00  0.00     0.069 A 
HETATM    4  C   UNK N   1      24.236  18.218   4.222  0.00  0.00     0.051 A 
HETATM    5  C   UNK N   1      23.044  18.794   3.761  0.00  0.00     0.002 A 
HETATM    6  C   UNK N   1      23.107  20.052   3.113  0.00  0.00     0.043 A 
HETATM    7  N   UNK N   1      21.970  20.640   2.654  0.00  0.00    -0.365 N 
ATOM      8  HN  UNK N   1      22.031  21.548   2.191  1.00  0.00     0.165 HD
HETATM    9  C   UNK N   1      21.785  18.157   3.922  0.00  0.00    -0.014 A 
HETATM   10  C   UNK N   1      20.647  18.807   3.425  0.00  0.00     0.027 A 
HETATM   11  C   UNK N   1      20.757  20.049   2.797  0.00  0.00     0.089 A 
ENDROOT
BRANCH   9  12
HETATM   12  C   UNK N   1      21.597  16.790   4.581  0.00  0.00     0.185 C 
BRANCH  12  13
HETATM   13  C   UNK N   1      21.645  16.827   6.128  0.00  0.00     0.256 C 
HETATM   14  C   UNK N   1      22.516  15.650   6.641  0.00  0.00     0.044 C 
HETATM   15  C   UNK N   1      21.653  14.646   7.401  0.00  0.00    -0.001 C 
HETATM   16  C   UNK N   1      21.110  15.377   8.637  0.00  0.00     0.040 C 
HETATM   17  C   UNK N   1      20.471  14.262   6.495  0.00  0.00     0.035 C 
HETATM   18  C   UNK N   1      20.352  16.658   8.180  0.00  0.00     0.282 C 
HETATM   19  N   UNK N   1      20.275  16.740   6.705  0.00  0.00     0.096 N 
HETATM   20  C   UNK N   1      19.605  15.512   6.226  0.00  0.00     0.273 C 
BRANCH  16  21
HETATM   21  C   UNK N   1      20.286  14.431   9.476  0.00  0.00    -0.030 C 
HETATM   22  C   UNK N   1      20.815  13.410  10.151  0.00  0.00     0.007 C 
ENDBRANCH  16  21
ENDBRANCH  12  13
BRANCH  12  23
HETATM   23  O   UNK N   1      22.481  15.820   4.098  0.00  0.00    -0.389 OA
HETATM   24  H   UNK N   1      23.432  16.003   4.061  0.00  0.00     0.210 HD
ENDBRANCH  12  23
ENDBRANCH   9  12
BRANCH   3  25
HETATM   25  O   UNK N   1      26.581  18.238   4.514  0.00  0.00    -0.356 OA
HETATM   26  C   UNK N   1      27.851  18.721   4.304  0.00  0.00     0.210 C 
ENDBRANCH   3  25
TORSDOF 5
ENDMDL
MODEL 7
REMARK VINA RESULT:      -6.3     11.621     14.132
REMARK  5 active torsions:
REMARK  status: ('A' for Active; 'I' for Inactive)
REMARK    1  A    between atoms: C_3  and  O_24 
REMARK    2  A    between atoms: C_22  and  C_9 
REMARK    3  A    between atoms: C_14  and  C_16 
REMARK    4  A    between atoms: C_21  and  C_22 
REMARK    5  A    between atoms: C_22  and  O_23 
ROOT
HETATM    1  C   UNK N   1      21.868  12.843  10.022  0.00  0.00     0.033 A 
HETATM    2  C   UNK N   1      20.629  13.471  10.187  0.00  0.00     0.039 A 
HETATM    3  C   UNK N   1      20.246  14.513   9.327  0.00  0.00     0.069 A 
HETATM    4  C   UNK N   1      21.111  14.912   8.312  0.00  0.00     0.051 A 
HETATM    5  C   UNK N   1      22.356  14.296   8.124  0.00  0.00     0.002 A 
HETATM    6  C   UNK N   1      22.731  13.248   8.999  0.00  0.00     0.043 A 
HETATM    7  N   UNK N   1      23.931  12.628   8.846  0.00  0.00    -0.365 N 
ATOM      8  HN  UNK N   1      24.188  11.875   9.485  1.00  0.00     0.165 HD
HETATM    9  C   UNK N   1      23.245  14.688   7.088  0.00  0.00    -0.014 A 
HETATM   10  C   UNK N   1      24.467  14.011   6.974  0.00  0.00     0.027 A 
HETATM   11  C   UNK N   1      24.795  12.986   7.863  0.00  0.00     0.089 A 
ENDROOT
BRANCH   9  12
HETATM   12  C   UNK N   1      22.938  15.788   6.070  0.00  0.00     0.185 C 
BRANCH  12  13
HETATM   13  C   UNK N   1      22.710  15.266   4.631  0.00  0.00     0.256 C 
HETATM   14  C   UNK N   1      22.972  16.416   3.622  0.00  0.00     0.044 C 
HETATM   15  C   UNK N   1      21.674  16.811   2.922  0.00  0.00    -0.001 C 
HETATM   16  C   UNK N   1      21.223  15.590   2.108  0.00  0.00     0.040 C 
HETATM   17  C   UNK N   1      20.623  17.096   4.008  0.00  0.00     0.035 C 
HETATM   18  C   UNK N   1      21.092  14.363   3.057  0.00  0.00     0.282 C 
HETATM   19  N   UNK N   1      21.324  14.746   4.466  0.00  0.00     0.096 N 
HETATM   20  C   UNK N   1      20.347  15.803   4.807  0.00  0.00     0.273 C 
BRANCH  16  21
HETATM   21  C   UNK N   1      19.968  15.920   1.337  0.00  0.00    -0.030 C 
HETATM   22  C   UNK N   1      19.936  16.812   0.347  0.00  0.00     0.007 C 
ENDBRANCH  16  21
ENDBRANCH  12  13
BRANCH  12  23
HETATM   23  O   UNK N   1      23.890  16.812   6.063  0.00  0.00    -0.389 OA
HETATM   24  H   UNK N   1      24.599  16.824   6.724  0.00  0.00     0.210 HD
ENDBRANCH  12  23
ENDBRANCH   9  12
BRANCH   3  25
HETATM   25  O   UNK N   1      19.055  15.146   9.453  0.00  0.00    -0.356 OA
HETATM   26  C   UNK N   1      18.834  16.434   9.025  0.00  0.00     0.210 C 
ENDBRANCH   3  25
TORSDOF 5
ENDMDL
MODEL 8
REMARK VINA RESULT:      -6.3     10.971     15.012
REMARK  5 active torsions:
REMARK  status: ('A' for Active; 'I' for Inactive)
REMARK    1  A    between atoms: C_3  and  O_24 
REMARK    2  A    between atoms: C_22  and  C_9 
REMARK    3  A    between atoms: C_14  and  C_16 
REMARK    4  A    between atoms: C_21  and  C_22 
REMARK    5  A    between atoms: C_22  and  O_23 
ROOT
HETATM    1  C   UNK N   1      24.759  20.493   2.667  0.00  0.00     0.033 A 
HETATM    2  C   UNK N   1      25.909  20.030   3.313  0.00  0.00     0.039 A 
HETATM    3  C   UNK N   1      25.799  19.161   4.411  0.00  0.00     0.069 A 
HETATM    4  C   UNK N   1      24.537  18.768   4.847  0.00  0.00     0.051 A 
HETATM    5  C   UNK N   1      23.369  19.218   4.214  0.00  0.00     0.002 A 
HETATM    6  C   UNK N   1      23.494  20.094   3.108  0.00  0.00     0.043 A 
HETATM    7  N   UNK N   1      22.383  20.549   2.470  0.00  0.00    -0.365 N 
ATOM      8  HN  UNK N   1      22.489  21.182   1.676  1.00  0.00     0.165 HD
HETATM    9  C   UNK N   1      22.075  18.820   4.643  0.00  0.00    -0.014 A 
HETATM   10  C   UNK N   1      20.965  19.316   3.945  0.00  0.00     0.027 A 
HETATM   11  C   UNK N   1      21.137  20.182   2.864  0.00  0.00     0.089 A 
ENDROOT
BRANCH   9  12
HETATM   12  C   UNK N   1      21.819  17.860   5.805  0.00  0.00     0.185 C 
BRANCH  12  13
HETATM   13  C   UNK N   1      20.994  16.608   5.417  0.00  0.00     0.256 C 
HETATM   14  C   UNK N   1      20.164  16.143   6.643  0.00  0.00     0.044 C 
HETATM   15  C   UNK N   1      20.661  14.785   7.133  0.00  0.00    -0.001 C 
HETATM   16  C   UNK N   1      20.396  13.783   6.001  0.00  0.00     0.040 C 
HETATM   17  C   UNK N   1      22.179  14.893   7.352  0.00  0.00     0.035 C 
HETATM   18  C   UNK N   1      21.087  14.288   4.700  0.00  0.00     0.282 C 
HETATM   19  N   UNK N   1      21.883  15.508   4.953  0.00  0.00     0.096 N 
HETATM   20  C   UNK N   1      22.873  15.184   6.003  0.00  0.00     0.273 C 
BRANCH  16  21
HETATM   21  C   UNK N   1      20.811  12.398   6.431  0.00  0.00    -0.030 C 
HETATM   22  C   UNK N   1      21.373  11.517   5.602  0.00  0.00     0.007 C 
ENDBRANCH  16  21
ENDBRANCH  12  13
BRANCH  12  23
HETATM   23  O   UNK N   1      21.247  18.484   6.919  0.00  0.00    -0.389 OA
HETATM   24  H   UNK N   1      20.373  18.899   6.849  0.00  0.00     0.210 HD
ENDBRANCH  12  23
ENDBRANCH   9  12
BRANCH   3  25
HETATM   25  O   UNK N   1      26.888  18.688   5.063  0.00  0.00    -0.356 OA
HETATM   26  C   UNK N   1      27.604  19.427   5.976  0.00  0.00     0.210 C 
ENDBRANCH   3  25
TORSDOF 5
ENDMDL
MODEL 9
REMARK VINA RESULT:      -6.3      7.222     10.326
REMARK  5 active torsions:
REMARK  status: ('A' for Active; 'I' for Inactive)
REMARK    1  A    between atoms: C_3  and  O_24 
REMARK    2  A    between atoms: C_22  and  C_9 
REMARK    3  A    between atoms: C_14  and  C_16 
REMARK    4  A    between atoms: C_21  and  C_22 
REMARK    5  A    between atoms: C_22  and  O_23 
ROOT
HETATM    1  C   UNK N   1      26.787  20.861   6.782  0.00  0.00     0.033 A 
HETATM    2  C   UNK N   1      26.514  21.144   5.440  0.00  0.00     0.039 A 
HETATM    3  C   UNK N   1      26.882  20.231   4.438  0.00  0.00     0.069 A 
HETATM    4  C   UNK N   1      27.520  19.046   4.795  0.00  0.00     0.051 A 
HETATM    5  C   UNK N   1      27.802  18.740   6.134  0.00  0.00     0.002 A 
HETATM    6  C   UNK N   1      27.426  19.669   7.134  0.00  0.00     0.043 A 
HETATM    7  N   UNK N   1      27.683  19.404   8.443  0.00  0.00    -0.365 N 
ATOM      8  HN  UNK N   1      27.409  20.084   9.152  1.00  0.00     0.165 HD
HETATM    9  C   UNK N   1      28.445  17.531   6.514  0.00  0.00    -0.014 A 
HETATM   10  C   UNK N   1      28.681  17.308   7.877  0.00  0.00     0.027 A 
HETATM   11  C   UNK N   1      28.297  18.256   8.827  0.00  0.00     0.089 A 
ENDROOT
BRANCH   9  12
HETATM   12  C   UNK N   1      28.872  16.445   5.526  0.00  0.00     0.185 C 
BRANCH  12  13
HETATM   13  C   UNK N   1      29.958  16.900   4.522  0.00  0.00     0.256 C 
HETATM   14  C   UNK N   1      30.015  15.896   3.340  0.00  0.00     0.044 C 
HETATM   15  C   UNK N   1      31.346  15.148   3.347  0.00  0.00    -0.001 C 
HETATM   16  C   UNK N   1      32.442  16.195   3.103  0.00  0.00     0.040 C 
HETATM   17  C   UNK N   1      31.540  14.547   4.749  0.00  0.00     0.035 C 
HETATM   18  C   UNK N   1      32.329  17.313   4.180  0.00  0.00     0.282 C 
HETATM   19  N   UNK N   1      31.289  16.991   5.181  0.00  0.00     0.096 N 
HETATM   20  C   UNK N   1      31.641  15.688   5.786  0.00  0.00     0.273 C 
BRANCH  16  21
HETATM   21  C   UNK N   1      33.792  15.523   3.039  0.00  0.00    -0.030 C 
HETATM   22  C   UNK N   1      34.029  14.435   2.306  0.00  0.00     0.007 C 
ENDBRANCH  16  21
ENDBRANCH  12  13
BRANCH  12  23
HETATM   23  O   UNK N   1      27.797  15.870   4.841  0.00  0.00    -0.389 OA
HETATM   24  H   UNK N   1      27.674  14.908   4.846  0.00  0.00     0.210 HD
ENDBRANCH  12  23
ENDBRANCH   9  12
BRANCH   3  25
HETATM   25  O   UNK N   1      26.634  20.466   3.127  0.00  0.00    -0.356 OA
HETATM   26  C   UNK N   1      25.369  20.502   2.591  0.00  0.00     0.210 C 
ENDBRANCH   3  25
TORSDOF 5
ENDMDL
