MODEL 1
REMARK VINA RESULT:      -7.1      0.000      0.000
REMARK  10 active torsions:
REMARK  status: ('A' for Active; 'I' for Inactive)
REMARK    1  A    between atoms: C_2  and  C_1 
REMARK       I    between atoms: N_4  and  C_2 
REMARK    2  A    between atoms: O_18  and  C_3 
REMARK    3  A    between atoms: C_7  and  N_4 
REMARK    4  A    between atoms: C_9  and  O_20 
REMARK    5  A    between atoms: N_16  and  C_10 
REMARK    6  A    between atoms: C_27  and  N_11 
REMARK    7  A    between atoms: O_29  and  C_21 
REMARK    8  A    between atoms: C_28  and  C_27 
REMARK    9  A    between atoms: C_30  and  C_28 
REMARK   10  A    between atoms: C_30  and  O_29 
ROOT
HETATM    1  C   UNK N   1      26.238  25.004  -5.440  0.00  0.00     0.117 C 
HETATM    2  C   UNK N   1      26.632  23.837  -6.333  0.00  0.00     0.171 C 
HETATM    3  N   UNK N   1      28.627  24.229  -4.856  0.00  0.00     0.091 N 
HETATM    4  C   UNK N   1      28.084  23.419  -5.971  0.00  0.00     0.306 C 
HETATM    5  C   UNK N   1      26.374  24.692  -3.952  0.00  0.00     0.058 C 
HETATM    6  C   UNK N   1      27.772  24.134  -3.668  0.00  0.00     0.274 C 
ENDROOT
BRANCH   1   7
HETATM    7  N   UNK N   1      25.021  25.700  -5.758  0.00  0.00    -0.350 N 
HETATM    8  C   UNK N   1      24.944  27.063  -5.704  0.00  0.00     0.254 C 
HETATM    9  O   UNK N   1      23.846  27.578  -5.787  0.00  0.00    -0.268 OA
HETATM   10  H   UNK N   1      24.225  25.183  -6.020  0.00  0.00     0.163 HD
BRANCH   8  11
HETATM   11  C   UNK N   1      26.173  27.925  -5.492  0.00  0.00     0.067 A 
HETATM   12  C   UNK N   1      27.197  28.072  -6.471  0.00  0.00     0.086 A 
HETATM   13  C   UNK N   1      28.263  28.952  -6.229  0.00  0.00     0.068 A 
HETATM   14  C   UNK N   1      28.357  29.661  -5.029  0.00  0.00     0.050 A 
HETATM   15  C   UNK N   1      27.379  29.493  -4.048  0.00  0.00     0.061 A 
HETATM   16  C   UNK N   1      26.309  28.641  -4.289  0.00  0.00     0.046 A 
HETATM   17 Cl   UNK N   1      27.460  30.350  -2.518  0.00  0.00    -0.082 Cl
BRANCH  12  18
HETATM   18  O   UNK N   1      27.158  27.440  -7.662  0.00  0.00    -0.355 OA
HETATM   19  C   UNK N   1      28.203  26.665  -8.102  0.00  0.00     0.210 C 
ENDBRANCH  12  18
BRANCH  14  20
HETATM   20  N   UNK N   1      29.439  30.540  -4.818  0.00  0.00    -0.398 N 
HETATM   21  H   UNK N   1      30.363  30.226  -4.954  0.00  0.00     0.156 HD
HETATM   22  H   UNK N   1      29.272  31.468  -4.536  0.00  0.00     0.156 HD
ENDBRANCH  14  20
ENDBRANCH   8  11
ENDBRANCH   1   7
BRANCH   2  23
HETATM   23  O   UNK N   1      25.762  22.763  -6.124  0.00  0.00    -0.387 OA
HETATM   24  C   UNK N   1      25.684  22.096  -7.348  0.00  0.00     0.202 C 
ENDBRANCH   2  23
BRANCH   3  25
HETATM   25  C   UNK N   1      30.022  23.951  -4.501  0.00  0.00     0.274 C 
BRANCH  25  26
HETATM   26  C   UNK N   1      30.342  24.048  -3.012  0.00  0.00     0.057 C 
BRANCH  26  27
HETATM   27  C   UNK N   1      30.323  22.707  -2.303  0.00  0.00     0.177 C 
BRANCH  27  28
HETATM   28  O   UNK N   1      31.627  22.289  -2.208  0.00  0.00    -0.351 OA
BRANCH  28  29
HETATM   29  C   UNK N   1      32.176  21.367  -3.028  0.00  0.00     0.068 A 
HETATM   30  C   UNK N   1      31.428  20.719  -4.027  0.00  0.00     0.040 A 
HETATM   31  C   UNK N   1      32.044  19.787  -4.870  0.00  0.00     0.045 A 
HETATM   32  C   UNK N   1      33.407  19.510  -4.729  0.00  0.00     0.116 A 
HETATM   33  C   UNK N   1      34.150  20.149  -3.734  0.00  0.00     0.045 A 
HETATM   34  F   UNK N   1      34.010  18.623  -5.555  0.00  0.00    -0.206 F 
HETATM   35  C   UNK N   1      33.534  21.069  -2.883  0.00  0.00     0.040 A 
ENDBRANCH  28  29
ENDBRANCH  27  28
ENDBRANCH  26  27
ENDBRANCH  25  26
ENDBRANCH   3  25
TORSDOF 10
ENDMDL
MODEL 2
REMARK VINA RESULT:      -7.1     13.576     15.374
REMARK  10 active torsions:
REMARK  status: ('A' for Active; 'I' for Inactive)
REMARK    1  A    between atoms: C_2  and  C_1 
REMARK       I    between atoms: N_4  and  C_2 
REMARK    2  A    between atoms: O_18  and  C_3 
REMARK    3  A    between atoms: C_7  and  N_4 
REMARK    4  A    between atoms: C_9  and  O_20 
REMARK    5  A    between atoms: N_16  and  C_10 
REMARK    6  A    between atoms: C_27  and  N_11 
REMARK    7  A    between atoms: O_29  and  C_21 
REMARK    8  A    between atoms: C_28  and  C_27 
REMARK    9  A    between atoms: C_30  and  C_28 
REMARK   10  A    between atoms: C_30  and  O_29 
ROOT
HETATM    1  C   UNK N   1      22.465  18.376   3.998  0.00  0.00     0.117 C 
HETATM    2  C   UNK N   1      22.106  17.021   3.406  0.00  0.00     0.171 C 
HETATM    3  N   UNK N   1      22.229  16.635   5.886  0.00  0.00     0.091 N 
HETATM    4  C   UNK N   1      22.001  15.997   4.570  0.00  0.00     0.306 C 
HETATM    5  C   UNK N   1      21.481  18.843   5.066  0.00  0.00     0.058 C 
HETATM    6  C   UNK N   1      21.289  17.738   6.110  0.00  0.00     0.274 C 
ENDROOT
BRANCH   1   7
HETATM    7  N   UNK N   1      22.839  19.420   3.084  0.00  0.00    -0.350 N 
HETATM    8  C   UNK N   1      24.085  19.980   3.110  0.00  0.00     0.254 C 
HETATM    9  O   UNK N   1      24.275  20.986   2.455  0.00  0.00    -0.268 OA
HETATM   10  H   UNK N   1      22.181  19.739   2.424  0.00  0.00     0.163 HD
BRANCH   8  11
HETATM   11  C   UNK N   1      25.198  19.412   3.969  0.00  0.00     0.067 A 
HETATM   12  C   UNK N   1      25.793  18.140   3.729  0.00  0.00     0.086 A 
HETATM   13  C   UNK N   1      26.872  17.722   4.521  0.00  0.00     0.068 A 
HETATM   14  C   UNK N   1      27.353  18.515   5.565  0.00  0.00     0.050 A 
HETATM   15  C   UNK N   1      26.751  19.745   5.833  0.00  0.00     0.061 A 
HETATM   16  C   UNK N   1      25.696  20.177   5.040  0.00  0.00     0.046 A 
HETATM   17 Cl   UNK N   1      27.309  20.772   7.143  0.00  0.00    -0.082 Cl
BRANCH  12  18
HETATM   18  O   UNK N   1      25.398  17.334   2.722  0.00  0.00    -0.355 OA
HETATM   19  C   UNK N   1      25.663  15.986   2.731  0.00  0.00     0.210 C 
ENDBRANCH  12  18
BRANCH  14  20
HETATM   20  N   UNK N   1      28.442  18.067   6.341  0.00  0.00    -0.398 N 
HETATM   21  H   UNK N   1      29.181  17.575   5.915  0.00  0.00     0.156 HD
HETATM   22  H   UNK N   1      28.463  18.247   7.309  0.00  0.00     0.156 HD
ENDBRANCH  14  20
ENDBRANCH   8  11
ENDBRANCH   1   7
BRANCH   2  23
HETATM   23  O   UNK N   1      20.882  17.105   2.735  0.00  0.00    -0.387 OA
HETATM   24  C   UNK N   1      20.262  15.869   2.923  0.00  0.00     0.202 C 
ENDBRANCH   2  23
BRANCH   3  25
HETATM   25  C   UNK N   1      22.225  15.724   7.035  0.00  0.00     0.274 C 
BRANCH  25  26
HETATM   26  C   UNK N   1      20.878  15.076   7.342  0.00  0.00     0.057 C 
BRANCH  26  27
HETATM   27  C   UNK N   1      20.847  13.586   7.058  0.00  0.00     0.177 C 
BRANCH  27  28
HETATM   28  O   UNK N   1      20.669  12.955   8.264  0.00  0.00    -0.351 OA
BRANCH  28  29
HETATM   29  C   UNK N   1      21.685  12.622   9.089  0.00  0.00     0.068 A 
HETATM   30  C   UNK N   1      22.973  12.333   8.605  0.00  0.00     0.040 A 
HETATM   31  C   UNK N   1      24.002  12.015   9.499  0.00  0.00     0.045 A 
HETATM   32  C   UNK N   1      23.754  12.000  10.874  0.00  0.00     0.116 A 
HETATM   33  C   UNK N   1      22.474  12.283  11.356  0.00  0.00     0.045 A 
HETATM   34  F   UNK N   1      24.752  11.711  11.742  0.00  0.00    -0.206 F 
HETATM   35  C   UNK N   1      21.443  12.586  10.465  0.00  0.00     0.040 A 
ENDBRANCH  28  29
ENDBRANCH  27  28
ENDBRANCH  26  27
ENDBRANCH  25  26
ENDBRANCH   3  25
TORSDOF 10
ENDMDL
MODEL 3
REMARK VINA RESULT:      -7.1     13.484     15.666
REMARK  10 active torsions:
REMARK  status: ('A' for Active; 'I' for Inactive)
REMARK    1  A    between atoms: C_2  and  C_1 
REMARK       I    between atoms: N_4  and  C_2 
REMARK    2  A    between atoms: O_18  and  C_3 
REMARK    3  A    between atoms: C_7  and  N_4 
REMARK    4  A    between atoms: C_9  and  O_20 
REMARK    5  A    between atoms: N_16  and  C_10 
REMARK    6  A    between atoms: C_27  and  N_11 
REMARK    7  A    between atoms: O_29  and  C_21 
REMARK    8  A    between atoms: C_28  and  C_27 
REMARK    9  A    between atoms: C_30  and  C_28 
REMARK   10  A    between atoms: C_30  and  O_29 
ROOT
HETATM    1  C   UNK N   1      20.982  16.428   4.203  0.00  0.00     0.117 C 
HETATM    2  C   UNK N   1      21.766  17.732   4.212  0.00  0.00     0.171 C 
HETATM    3  N   UNK N   1      23.508  15.927   4.062  0.00  0.00     0.091 N 
HETATM    4  C   UNK N   1      23.280  17.387   4.154  0.00  0.00     0.306 C 
HETATM    5  C   UNK N   1      21.307  15.542   3.005  0.00  0.00     0.058 C 
HETATM    6  C   UNK N   1      22.824  15.358   2.896  0.00  0.00     0.274 C 
ENDROOT
BRANCH   1   7
HETATM    7  N   UNK N   1      19.574  16.501   4.482  0.00  0.00    -0.350 N 
HETATM    8  C   UNK N   1      19.041  15.944   5.610  0.00  0.00     0.254 C 
HETATM    9  O   UNK N   1      17.830  15.862   5.691  0.00  0.00    -0.268 OA
HETATM   10  H   UNK N   1      18.980  16.962   3.846  0.00  0.00     0.163 HD
BRANCH   8  11
HETATM   11  C   UNK N   1      19.915  15.387   6.717  0.00  0.00     0.067 A 
HETATM   12  C   UNK N   1      20.204  16.104   7.913  0.00  0.00     0.086 A 
HETATM   13  C   UNK N   1      20.957  15.486   8.923  0.00  0.00     0.068 A 
HETATM   14  C   UNK N   1      21.456  14.192   8.764  0.00  0.00     0.050 A 
HETATM   15  C   UNK N   1      21.211  13.497   7.580  0.00  0.00     0.061 A 
HETATM   16  C   UNK N   1      20.449  14.093   6.583  0.00  0.00     0.046 A 
HETATM   17 Cl   UNK N   1      21.830  11.873   7.324  0.00  0.00    -0.082 Cl
BRANCH  12  18
HETATM   18  O   UNK N   1      19.733  17.346   8.146  0.00  0.00    -0.355 OA
HETATM   19  C   UNK N   1      18.737  17.579   9.063  0.00  0.00     0.210 C 
ENDBRANCH  12  18
BRANCH  14  20
HETATM   20  N   UNK N   1      22.206  13.598   9.800  0.00  0.00    -0.398 N 
HETATM   21  H   UNK N   1      22.222  12.618   9.898  0.00  0.00     0.156 HD
HETATM   22  H   UNK N   1      22.714  14.164  10.426  0.00  0.00     0.156 HD
ENDBRANCH  14  20
ENDBRANCH   8  11
ENDBRANCH   1   7
BRANCH   2  23
HETATM   23  O   UNK N   1      21.413  18.507   3.103  0.00  0.00    -0.387 OA
HETATM   24  C   UNK N   1      21.013  19.742   3.617  0.00  0.00     0.202 C 
ENDBRANCH   2  23
BRANCH   3  25
HETATM   25  C   UNK N   1      24.912  15.508   4.080  0.00  0.00     0.274 C 
BRANCH  25  26
HETATM   26  C   UNK N   1      25.738  15.958   2.879  0.00  0.00     0.057 C 
BRANCH  26  27
HETATM   27  C   UNK N   1      27.104  16.500   3.256  0.00  0.00     0.177 C 
BRANCH  27  28
HETATM   28  O   UNK N   1      27.023  16.909   4.564  0.00  0.00    -0.351 OA
BRANCH  28  29
HETATM   29  C   UNK N   1      27.157  18.195   4.953  0.00  0.00     0.068 A 
HETATM   30  C   UNK N   1      26.822  19.268   4.108  0.00  0.00     0.040 A 
HETATM   31  C   UNK N   1      26.956  20.586   4.561  0.00  0.00     0.045 A 
HETATM   32  C   UNK N   1      27.408  20.836   5.860  0.00  0.00     0.116 A 
HETATM   33  C   UNK N   1      27.746  19.772   6.699  0.00  0.00     0.045 A 
HETATM   34  F   UNK N   1      27.521  22.108   6.308  0.00  0.00    -0.206 F 
HETATM   35  C   UNK N   1      27.627  18.457   6.243  0.00  0.00     0.040 A 
ENDBRANCH  28  29
ENDBRANCH  27  28
ENDBRANCH  26  27
ENDBRANCH  25  26
ENDBRANCH   3  25
TORSDOF 10
ENDMDL
MODEL 4
REMARK VINA RESULT:      -7.1     15.896     19.620
REMARK  10 active torsions:
REMARK  status: ('A' for Active; 'I' for Inactive)
REMARK    1  A    between atoms: C_2  and  C_1 
REMARK       I    between atoms: N_4  and  C_2 
REMARK    2  A    between atoms: O_18  and  C_3 
REMARK    3  A    between atoms: C_7  and  N_4 
REMARK    4  A    between atoms: C_9  and  O_20 
REMARK    5  A    between atoms: N_16  and  C_10 
REMARK    6  A    between atoms: C_27  and  N_11 
REMARK    7  A    between atoms: O_29  and  C_21 
REMARK    8  A    between atoms: C_28  and  C_27 
REMARK    9  A    between atoms: C_30  and  C_28 
REMARK   10  A    between atoms: C_30  and  O_29 
ROOT
HETATM    1  C   UNK N   1      34.975  15.904   9.683  0.00  0.00     0.117 C 
HETATM    2  C   UNK N   1      34.664  15.394  11.082  0.00  0.00     0.171 C 
HETATM    3  N   UNK N   1      34.142  13.466   9.557  0.00  0.00     0.091 N 
HETATM    4  C   UNK N   1      34.140  13.936  10.961  0.00  0.00     0.306 C 
HETATM    5  C   UNK N   1      35.960  15.017   8.927  0.00  0.00     0.058 C 
HETATM    6  C   UNK N   1      35.482  13.562   8.969  0.00  0.00     0.274 C 
ENDROOT
BRANCH   1   7
HETATM    7  N   UNK N   1      35.255  17.306   9.536  0.00  0.00    -0.350 N 
HETATM    8  C   UNK N   1      34.583  18.076   8.629  0.00  0.00     0.254 C 
HETATM    9  O   UNK N   1      34.999  19.198   8.411  0.00  0.00    -0.268 OA
HETATM   10  H   UNK N   1      35.946  17.720  10.101  0.00  0.00     0.163 HD
BRANCH   8  11
HETATM   11  C   UNK N   1      33.386  17.548   7.863  0.00  0.00     0.067 A 
HETATM   12  C   UNK N   1      33.503  16.813   6.649  0.00  0.00     0.086 A 
HETATM   13  C   UNK N   1      32.350  16.291   6.043  0.00  0.00     0.068 A 
HETATM   14  C   UNK N   1      31.084  16.508   6.592  0.00  0.00     0.050 A 
HETATM   15  C   UNK N   1      30.956  17.261   7.759  0.00  0.00     0.061 A 
HETATM   16  C   UNK N   1      32.094  17.763   8.377  0.00  0.00     0.046 A 
HETATM   17 Cl   UNK N   1      29.385  17.576   8.479  0.00  0.00    -0.082 Cl
BRANCH  12  18
HETATM   18  O   UNK N   1      34.694  16.541   6.078  0.00  0.00    -0.355 OA
HETATM   19  C   UNK N   1      34.935  15.347   5.444  0.00  0.00     0.210 C 
ENDBRANCH  12  18
BRANCH  14  20
HETATM   20  N   UNK N   1      29.945  15.967   5.960  0.00  0.00    -0.398 N 
HETATM   21  H   UNK N   1      29.318  16.558   5.484  0.00  0.00     0.156 HD
HETATM   22  H   UNK N   1      29.777  14.997   5.995  0.00  0.00     0.156 HD
ENDBRANCH  14  20
ENDBRANCH   8  11
ENDBRANCH   1   7
BRANCH   2  23
HETATM   23  O   UNK N   1      35.822  15.419  11.865  0.00  0.00    -0.387 OA
HETATM   24  C   UNK N   1      35.733  14.310  12.707  0.00  0.00     0.202 C 
ENDBRANCH   2  23
BRANCH   3  25
HETATM   25  C   UNK N   1      33.589  12.126   9.343  0.00  0.00     0.274 C 
BRANCH  25  26
HETATM   26  C   UNK N   1      34.429  10.982   9.904  0.00  0.00     0.057 C 
BRANCH  26  27
HETATM   27  C   UNK N   1      33.718  10.184  10.981  0.00  0.00     0.177 C 
BRANCH  27  28
HETATM   28  O   UNK N   1      34.682   9.754  11.859  0.00  0.00    -0.351 OA
BRANCH  28  29
HETATM   29  C   UNK N   1      34.901  10.325  13.063  0.00  0.00     0.068 A 
HETATM   30  C   UNK N   1      33.848  10.644  13.939  0.00  0.00     0.040 A 
HETATM   31  C   UNK N   1      34.125  11.214  15.188  0.00  0.00     0.045 A 
HETATM   32  C   UNK N   1      35.448  11.452  15.570  0.00  0.00     0.116 A 
HETATM   33  C   UNK N   1      36.494  11.140  14.700  0.00  0.00     0.045 A 
HETATM   34  F   UNK N   1      35.719  11.986  16.785  0.00  0.00    -0.206 F 
HETATM   35  C   UNK N   1      36.219  10.585  13.448  0.00  0.00     0.040 A 
ENDBRANCH  28  29
ENDBRANCH  27  28
ENDBRANCH  26  27
ENDBRANCH  25  26
ENDBRANCH   3  25
TORSDOF 10
ENDMDL
MODEL 5
REMARK VINA RESULT:      -6.9     15.956     19.629
REMARK  10 active torsions:
REMARK  status: ('A' for Active; 'I' for Inactive)
REMARK    1  A    between atoms: C_2  and  C_1 
REMARK       I    between atoms: N_4  and  C_2 
REMARK    2  A    between atoms: O_18  and  C_3 
REMARK    3  A    between atoms: C_7  and  N_4 
REMARK    4  A    between atoms: C_9  and  O_20 
REMARK    5  A    between atoms: N_16  and  C_10 
REMARK    6  A    between atoms: C_27  and  N_11 
REMARK    7  A    between atoms: O_29  and  C_21 
REMARK    8  A    between atoms: C_28  and  C_27 
REMARK    9  A    between atoms: C_30  and  C_28 
REMARK   10  A    between atoms: C_30  and  O_29 
ROOT
HETATM    1  C   UNK N   1      34.818  15.894   9.586  0.00  0.00     0.117 C 
HETATM    2  C   UNK N   1      34.490  15.326  10.959  0.00  0.00     0.171 C 
HETATM    3  N   UNK N   1      34.042  13.446   9.354  0.00  0.00     0.091 N 
HETATM    4  C   UNK N   1      34.002  13.863  10.774  0.00  0.00     0.306 C 
HETATM    5  C   UNK N   1      35.837  15.058   8.819  0.00  0.00     0.058 C 
HETATM    6  C   UNK N   1      35.391  13.593   8.797  0.00  0.00     0.274 C 
ENDROOT
BRANCH   1   7
HETATM    7  N   UNK N   1      35.069  17.307   9.496  0.00  0.00    -0.350 N 
HETATM    8  C   UNK N   1      34.558  18.059   8.477  0.00  0.00     0.254 C 
HETATM    9  O   UNK N   1      34.966  19.196   8.343  0.00  0.00    -0.268 OA
HETATM   10  H   UNK N   1      35.622  17.741  10.185  0.00  0.00     0.163 HD
BRANCH   8  11
HETATM   11  C   UNK N   1      33.551  17.494   7.493  0.00  0.00     0.067 A 
HETATM   12  C   UNK N   1      32.143  17.571   7.693  0.00  0.00     0.086 A 
HETATM   13  C   UNK N   1      31.277  17.095   6.697  0.00  0.00     0.068 A 
HETATM   14  C   UNK N   1      31.771  16.515   5.527  0.00  0.00     0.050 A 
HETATM   15  C   UNK N   1      33.149  16.399   5.340  0.00  0.00     0.061 A 
HETATM   16  C   UNK N   1      34.013  16.888   6.311  0.00  0.00     0.046 A 
HETATM   17 Cl   UNK N   1      33.819  15.664   3.893  0.00  0.00    -0.082 Cl
BRANCH  12  18
HETATM   18  O   UNK N   1      31.596  18.142   8.785  0.00  0.00    -0.355 OA
HETATM   19  C   UNK N   1      30.237  18.160   8.987  0.00  0.00     0.210 C 
ENDBRANCH  12  18
BRANCH  14  20
HETATM   20  N   UNK N   1      30.874  16.049   4.543  0.00  0.00    -0.398 N 
HETATM   21  H   UNK N   1      30.602  16.641   3.805  0.00  0.00     0.156 HD
HETATM   22  H   UNK N   1      30.520  15.132   4.596  0.00  0.00     0.156 HD
ENDBRANCH  14  20
ENDBRANCH   8  11
ENDBRANCH   1   7
BRANCH   2  23
HETATM   23  O   UNK N   1      35.632  15.348  11.766  0.00  0.00    -0.387 OA
HETATM   24  C   UNK N   1      35.540  14.218  12.581  0.00  0.00     0.202 C 
ENDBRANCH   2  23
BRANCH   3  25
HETATM   25  C   UNK N   1      33.524  12.103   9.079  0.00  0.00     0.274 C 
BRANCH  25  26
HETATM   26  C   UNK N   1      34.393  10.956   9.588  0.00  0.00     0.057 C 
BRANCH  26  27
HETATM   27  C   UNK N   1      33.765  10.187  10.735  0.00  0.00     0.177 C 
BRANCH  27  28
HETATM   28  O   UNK N   1      34.789   9.813  11.570  0.00  0.00    -0.351 OA
BRANCH  28  29
HETATM   29  C   UNK N   1      34.715   9.880  12.917  0.00  0.00     0.068 A 
HETATM   30  C   UNK N   1      33.822  10.746  13.571  0.00  0.00     0.040 A 
HETATM   31  C   UNK N   1      33.763  10.766  14.970  0.00  0.00     0.045 A 
HETATM   32  C   UNK N   1      34.582   9.914  15.716  0.00  0.00     0.116 A 
HETATM   33  C   UNK N   1      35.473   9.056  15.068  0.00  0.00     0.045 A 
HETATM   34  F   UNK N   1      34.514   9.917  17.068  0.00  0.00    -0.206 F 
HETATM   35  C   UNK N   1      35.543   9.045  13.673  0.00  0.00     0.040 A 
ENDBRANCH  28  29
ENDBRANCH  27  28
ENDBRANCH  26  27
ENDBRANCH  25  26
ENDBRANCH   3  25
TORSDOF 10
ENDMDL
MODEL 6
REMARK VINA RESULT:      -6.8     13.718     15.819
REMARK  10 active torsions:
REMARK  status: ('A' for Active; 'I' for Inactive)
REMARK    1  A    between atoms: C_2  and  C_1 
REMARK       I    between atoms: N_4  and  C_2 
REMARK    2  A    between atoms: O_18  and  C_3 
REMARK    3  A    between atoms: C_7  and  N_4 
REMARK    4  A    between atoms: C_9  and  O_20 
REMARK    5  A    between atoms: N_16  and  C_10 
REMARK    6  A    between atoms: C_27  and  N_11 
REMARK    7  A    between atoms: O_29  and  C_21 
REMARK    8  A    between atoms: C_28  and  C_27 
REMARK    9  A    between atoms: C_30  and  C_28 
REMARK   10  A    between atoms: C_30  and  O_29 
ROOT
HETATM    1  C   UNK N   1      21.223  16.939   4.619  0.00  0.00     0.117 C 
HETATM    2  C   UNK N   1      21.764  18.361   4.624  0.00  0.00     0.171 C 
HETATM    3  N   UNK N   1      23.785  16.895   4.904  0.00  0.00     0.091 N 
HETATM    4  C   UNK N   1      23.303  18.293   4.826  0.00  0.00     0.306 C 
HETATM    5  C   UNK N   1      21.884  16.050   3.570  0.00  0.00     0.058 C 
HETATM    6  C   UNK N   1      23.408  16.137   3.706  0.00  0.00     0.274 C 
ENDROOT
BRANCH   1   7
HETATM    7  N   UNK N   1      19.796  16.773   4.676  0.00  0.00    -0.350 N 
HETATM    8  C   UNK N   1      19.207  15.988   5.626  0.00  0.00     0.254 C 
HETATM    9  O   UNK N   1      18.026  15.728   5.503  0.00  0.00    -0.268 OA
HETATM   10  H   UNK N   1      19.231  17.235   4.015  0.00  0.00     0.163 HD
BRANCH   8  11
HETATM   11  C   UNK N   1      19.996  15.402   6.781  0.00  0.00     0.067 A 
HETATM   12  C   UNK N   1      20.201  16.091   8.011  0.00  0.00     0.086 A 
HETATM   13  C   UNK N   1      20.875  15.447   9.059  0.00  0.00     0.068 A 
HETATM   14  C   UNK N   1      21.380  14.154   8.908  0.00  0.00     0.050 A 
HETATM   15  C   UNK N   1      21.219  13.487   7.693  0.00  0.00     0.061 A 
HETATM   16  C   UNK N   1      20.533  14.108   6.657  0.00  0.00     0.046 A 
HETATM   17 Cl   UNK N   1      21.848  11.866   7.448  0.00  0.00    -0.082 Cl
BRANCH  12  18
HETATM   18  O   UNK N   1      19.718  17.330   8.237  0.00  0.00    -0.355 OA
HETATM   19  C   UNK N   1      18.673  17.551   9.100  0.00  0.00     0.210 C 
ENDBRANCH  12  18
BRANCH  14  20
HETATM   20  N   UNK N   1      22.050  13.534   9.982  0.00  0.00    -0.398 N 
HETATM   21  H   UNK N   1      22.868  13.939  10.353  0.00  0.00     0.156 HD
HETATM   22  H   UNK N   1      21.700  12.696  10.362  0.00  0.00     0.156 HD
ENDBRANCH  14  20
ENDBRANCH   8  11
ENDBRANCH   1   7
BRANCH   2  23
HETATM   23  O   UNK N   1      21.471  18.986   3.408  0.00  0.00    -0.387 OA
HETATM   24  C   UNK N   1      22.529  19.864   3.170  0.00  0.00     0.202 C 
ENDBRANCH   2  23
BRANCH   3  25
HETATM   25  C   UNK N   1      25.218  16.739   5.171  0.00  0.00     0.274 C 
BRANCH  25  26
HETATM   26  C   UNK N   1      26.134  17.043   3.989  0.00  0.00     0.057 C 
BRANCH  26  27
HETATM   27  C   UNK N   1      27.134  18.149   4.270  0.00  0.00     0.177 C 
BRANCH  27  28
HETATM   28  O   UNK N   1      27.131  18.352   5.628  0.00  0.00    -0.351 OA
BRANCH  28  29
HETATM   29  C   UNK N   1      28.199  18.116   6.420  0.00  0.00     0.068 A 
HETATM   30  C   UNK N   1      29.304  17.368   5.976  0.00  0.00     0.040 A 
HETATM   31  C   UNK N   1      30.401  17.169   6.824  0.00  0.00     0.045 A 
HETATM   32  C   UNK N   1      30.405  17.726   8.105  0.00  0.00     0.116 A 
HETATM   33  C   UNK N   1      29.306  18.466   8.549  0.00  0.00     0.045 A 
HETATM   34  F   UNK N   1      31.472  17.551   8.920  0.00  0.00    -0.206 F 
HETATM   35  C   UNK N   1      28.205  18.654   7.710  0.00  0.00     0.040 A 
ENDBRANCH  28  29
ENDBRANCH  27  28
ENDBRANCH  26  27
ENDBRANCH  25  26
ENDBRANCH   3  25
TORSDOF 10
ENDMDL
MODEL 7
REMARK VINA RESULT:      -6.8     13.681     15.980
REMARK  10 active torsions:
REMARK  status: ('A' for Active; 'I' for Inactive)
REMARK    1  A    between atoms: C_2  and  C_1 
REMARK       I    between atoms: N_4  and  C_2 
REMARK    2  A    between atoms: O_18  and  C_3 
REMARK    3  A    between atoms: C_7  and  N_4 
REMARK    4  A    between atoms: C_9  and  O_20 
REMARK    5  A    between atoms: N_16  and  C_10 
REMARK    6  A    between atoms: C_27  and  N_11 
REMARK    7  A    between atoms: O_29  and  C_21 
REMARK    8  A    between atoms: C_28  and  C_27 
REMARK    9  A    between atoms: C_30  and  C_28 
REMARK   10  A    between atoms: C_30  and  O_29 
ROOT
HETATM    1  C   UNK N   1      25.515  17.193   4.244  0.00  0.00     0.117 C 
HETATM    2  C   UNK N   1      25.874  15.837   3.654  0.00  0.00     0.171 C 
HETATM    3  N   UNK N   1      25.055  15.340   5.978  0.00  0.00     0.091 N 
HETATM    4  C   UNK N   1      25.610  14.754   4.736  0.00  0.00     0.306 C 
HETATM    5  C   UNK N   1      24.082  17.261   4.764  0.00  0.00     0.058 C 
HETATM    6  C   UNK N   1      23.819  16.082   5.706  0.00  0.00     0.274 C 
ENDROOT
BRANCH   1   7
HETATM    7  N   UNK N   1      25.897  18.361   3.499  0.00  0.00    -0.350 N 
HETATM    8  C   UNK N   1      26.885  19.197   3.939  0.00  0.00     0.254 C 
HETATM    9  O   UNK N   1      27.024  20.265   3.376  0.00  0.00    -0.268 OA
HETATM   10  H   UNK N   1      25.437  18.564   2.652  0.00  0.00     0.163 HD
BRANCH   8  11
HETATM   11  C   UNK N   1      27.756  18.847   5.129  0.00  0.00     0.067 A 
HETATM   12  C   UNK N   1      27.570  19.415   6.422  0.00  0.00     0.086 A 
HETATM   13  C   UNK N   1      28.369  18.978   7.490  0.00  0.00     0.068 A 
HETATM   14  C   UNK N   1      29.368  18.021   7.301  0.00  0.00     0.050 A 
HETATM   15  C   UNK N   1      29.584  17.488   6.030  0.00  0.00     0.061 A 
HETATM   16  C   UNK N   1      28.783  17.898   4.972  0.00  0.00     0.046 A 
HETATM   17 Cl   UNK N   1      30.837  16.293   5.738  0.00  0.00    -0.082 Cl
BRANCH  12  18
HETATM   18  O   UNK N   1      26.608  20.323   6.683  0.00  0.00    -0.355 OA
HETATM   19  C   UNK N   1      26.830  21.671   6.539  0.00  0.00     0.210 C 
ENDBRANCH  12  18
BRANCH  14  20
HETATM   20  N   UNK N   1      30.151  17.601   8.396  0.00  0.00    -0.398 N 
HETATM   21  H   UNK N   1      30.943  18.122   8.663  0.00  0.00     0.156 HD
HETATM   22  H   UNK N   1      29.906  16.788   8.893  0.00  0.00     0.156 HD
ENDBRANCH  14  20
ENDBRANCH   8  11
ENDBRANCH   1   7
BRANCH   2  23
HETATM   23  O   UNK N   1      25.085  15.585   2.527  0.00  0.00    -0.387 OA
HETATM   24  C   UNK N   1      25.981  15.311   1.493  0.00  0.00     0.202 C 
ENDBRANCH   2  23
BRANCH   3  25
HETATM   25  C   UNK N   1      24.848  14.397   7.080  0.00  0.00     0.274 C 
BRANCH  25  26
HETATM   26  C   UNK N   1      24.640  12.945   6.659  0.00  0.00     0.057 C 
BRANCH  26  27
HETATM   27  C   UNK N   1      23.401  12.313   7.265  0.00  0.00     0.177 C 
BRANCH  27  28
HETATM   28  O   UNK N   1      22.991  13.139   8.283  0.00  0.00    -0.351 OA
BRANCH  28  29
HETATM   29  C   UNK N   1      22.970  12.767   9.581  0.00  0.00     0.068 A 
HETATM   30  C   UNK N   1      21.770  12.672  10.309  0.00  0.00     0.040 A 
HETATM   31  C   UNK N   1      21.794  12.260  11.647  0.00  0.00     0.045 A 
HETATM   32  C   UNK N   1      23.008  11.928  12.255  0.00  0.00     0.116 A 
HETATM   33  C   UNK N   1      24.200  12.026  11.535  0.00  0.00     0.045 A 
HETATM   34  F   UNK N   1      23.031  11.511  13.543  0.00  0.00    -0.206 F 
HETATM   35  C   UNK N   1      24.180  12.450  10.205  0.00  0.00     0.040 A 
ENDBRANCH  28  29
ENDBRANCH  27  28
ENDBRANCH  26  27
ENDBRANCH  25  26
ENDBRANCH   3  25
TORSDOF 10
ENDMDL
MODEL 8
REMARK VINA RESULT:      -6.8     12.351     16.406
REMARK  10 active torsions:
REMARK  status: ('A' for Active; 'I' for Inactive)
REMARK    1  A    between atoms: C_2  and  C_1 
REMARK       I    between atoms: N_4  and  C_2 
REMARK    2  A    between atoms: O_18  and  C_3 
REMARK    3  A    between atoms: C_7  and  N_4 
REMARK    4  A    between atoms: C_9  and  O_20 
REMARK    5  A    between atoms: N_16  and  C_10 
REMARK    6  A    between atoms: C_27  and  N_11 
REMARK    7  A    between atoms: O_29  and  C_21 
REMARK    8  A    between atoms: C_28  and  C_27 
REMARK    9  A    between atoms: C_30  and  C_28 
REMARK   10  A    between atoms: C_30  and  O_29 
ROOT
HETATM    1  C   UNK N   1      33.119  15.373   4.971  0.00  0.00     0.117 C 
HETATM    2  C   UNK N   1      32.131  14.293   4.554  0.00  0.00     0.171 C 
HETATM    3  N   UNK N   1      30.772  15.942   5.876  0.00  0.00     0.091 N 
HETATM    4  C   UNK N   1      30.740  14.657   5.141  0.00  0.00     0.306 C 
HETATM    5  C   UNK N   1      32.685  16.775   4.553  0.00  0.00     0.058 C 
HETATM    6  C   UNK N   1      31.248  17.031   5.018  0.00  0.00     0.274 C 
ENDROOT
BRANCH   1   7
HETATM    7  N   UNK N   1      34.514  15.123   4.732  0.00  0.00    -0.350 N 
HETATM    8  C   UNK N   1      35.408  15.033   5.761  0.00  0.00     0.254 C 
HETATM    9  O   UNK N   1      36.594  15.021   5.490  0.00  0.00    -0.268 OA
HETATM   10  H   UNK N   1      34.831  15.013   3.807  0.00  0.00     0.163 HD
BRANCH   8  11
HETATM   11  C   UNK N   1      34.961  15.006   7.209  0.00  0.00     0.067 A 
HETATM   12  C   UNK N   1      34.632  16.182   7.943  0.00  0.00     0.086 A 
HETATM   13  C   UNK N   1      34.150  16.065   9.255  0.00  0.00     0.068 A 
HETATM   14  C   UNK N   1      34.019  14.817   9.869  0.00  0.00     0.050 A 
HETATM   15  C   UNK N   1      34.377  13.663   9.172  0.00  0.00     0.061 A 
HETATM   16  C   UNK N   1      34.834  13.768   7.865  0.00  0.00     0.046 A 
HETATM   17 Cl   UNK N   1      34.245  12.072   9.904  0.00  0.00    -0.082 Cl
BRANCH  12  18
HETATM   18  O   UNK N   1      34.707  17.416   7.406  0.00  0.00    -0.355 OA
HETATM   19  C   UNK N   1      33.936  18.454   7.870  0.00  0.00     0.210 C 
ENDBRANCH  12  18
BRANCH  14  20
HETATM   20  N   UNK N   1      33.528  14.733  11.188  0.00  0.00    -0.398 N 
HETATM   21  H   UNK N   1      34.143  14.531  11.931  0.00  0.00     0.156 HD
HETATM   22  H   UNK N   1      32.571  14.878  11.367  0.00  0.00     0.156 HD
ENDBRANCH  14  20
ENDBRANCH   8  11
ENDBRANCH   1   7
BRANCH   2  23
HETATM   23  O   UNK N   1      32.057  14.230   3.159  0.00  0.00    -0.387 OA
HETATM   24  C   UNK N   1      31.930  12.876   2.848  0.00  0.00     0.202 C 
ENDBRANCH   2  23
BRANCH   3  25
HETATM   25  C   UNK N   1      29.516  16.323   6.530  0.00  0.00     0.274 C 
BRANCH  25  26
HETATM   26  C   UNK N   1      29.651  17.371   7.630  0.00  0.00     0.057 C 
BRANCH  26  27
HETATM   27  C   UNK N   1      28.363  18.124   7.907  0.00  0.00     0.177 C 
BRANCH  27  28
HETATM   28  O   UNK N   1      28.469  19.338   7.274  0.00  0.00    -0.351 OA
BRANCH  28  29
HETATM   29  C   UNK N   1      27.761  19.669   6.173  0.00  0.00     0.068 A 
HETATM   30  C   UNK N   1      26.545  20.370   6.252  0.00  0.00     0.040 A 
HETATM   31  C   UNK N   1      25.856  20.712   5.082  0.00  0.00     0.045 A 
HETATM   32  C   UNK N   1      26.386  20.371   3.834  0.00  0.00     0.116 A 
HETATM   33  C   UNK N   1      27.592  19.672   3.754  0.00  0.00     0.045 A 
HETATM   34  F   UNK N   1      25.732  20.718   2.700  0.00  0.00    -0.206 F 
HETATM   35  C   UNK N   1      28.273  19.317   4.921  0.00  0.00     0.040 A 
ENDBRANCH  28  29
ENDBRANCH  27  28
ENDBRANCH  26  27
ENDBRANCH  25  26
ENDBRANCH   3  25
TORSDOF 10
ENDMDL
MODEL 9
REMARK VINA RESULT:      -6.7     15.008     17.009
REMARK  10 active torsions:
REMARK  status: ('A' for Active; 'I' for Inactive)
REMARK    1  A    between atoms: C_2  and  C_1 
REMARK       I    between atoms: N_4  and  C_2 
REMARK    2  A    between atoms: O_18  and  C_3 
REMARK    3  A    between atoms: C_7  and  N_4 
REMARK    4  A    between atoms: C_9  and  O_20 
REMARK    5  A    between atoms: N_16  and  C_10 
REMARK    6  A    between atoms: C_27  and  N_11 
REMARK    7  A    between atoms: O_29  and  C_21 
REMARK    8  A    between atoms: C_28  and  C_27 
REMARK    9  A    between atoms: C_30  and  C_28 
REMARK   10  A    between atoms: C_30  and  O_29 
ROOT
HETATM    1  C   UNK N   1      20.793  16.174   3.178  0.00  0.00     0.117 C 
HETATM    2  C   UNK N   1      19.688  15.546   4.015  0.00  0.00     0.171 C 
HETATM    3  N   UNK N   1      21.825  14.632   4.969  0.00  0.00     0.091 N 
HETATM    4  C   UNK N   1      20.347  14.605   5.060  0.00  0.00     0.306 C 
HETATM    5  C   UNK N   1      21.833  16.912   4.016  0.00  0.00     0.058 C 
HETATM    6  C   UNK N   1      22.341  15.994   5.133  0.00  0.00     0.274 C 
ENDROOT
BRANCH   1   7
HETATM    7  N   UNK N   1      20.402  16.901   2.002  0.00  0.00    -0.350 N 
HETATM    8  C   UNK N   1      20.249  16.278   0.796  0.00  0.00     0.254 C 
HETATM    9  O   UNK N   1      20.115  16.971  -0.194  0.00  0.00    -0.268 OA
HETATM   10  H   UNK N   1      20.240  17.870   2.067  0.00  0.00     0.163 HD
BRANCH   8  11
HETATM   11  C   UNK N   1      20.300  14.769   0.664  0.00  0.00     0.067 A 
HETATM   12  C   UNK N   1      21.517  14.029   0.665  0.00  0.00     0.086 A 
HETATM   13  C   UNK N   1      21.474  12.627   0.618  0.00  0.00     0.068 A 
HETATM   14  C   UNK N   1      20.259  11.944   0.537  0.00  0.00     0.050 A 
HETATM   15  C   UNK N   1      19.063  12.661   0.496  0.00  0.00     0.061 A 
HETATM   16  C   UNK N   1      19.096  14.048   0.563  0.00  0.00     0.046 A 
HETATM   17 Cl   UNK N   1      17.511  11.849   0.378  0.00  0.00    -0.082 Cl
BRANCH  12  18
HETATM   18  O   UNK N   1      22.725  14.621   0.768  0.00  0.00    -0.355 OA
HETATM   19  C   UNK N   1      23.607  14.290   1.768  0.00  0.00     0.210 C 
ENDBRANCH  12  18
BRANCH  14  20
HETATM   20  N   UNK N   1      20.250  10.534   0.496  0.00  0.00    -0.398 N 
HETATM   21  H   UNK N   1      19.834  10.066  -0.265  0.00  0.00     0.156 HD
HETATM   22  H   UNK N   1      20.660  10.018   1.227  0.00  0.00     0.156 HD
ENDBRANCH  14  20
ENDBRANCH   8  11
ENDBRANCH   1   7
BRANCH   2  23
HETATM   23  O   UNK N   1      18.960  16.546   4.667  0.00  0.00    -0.387 OA
HETATM   24  C   UNK N   1      18.678  16.041   5.937  0.00  0.00     0.202 C 
ENDBRANCH   2  23
BRANCH   3  25
HETATM   25  C   UNK N   1      22.526  13.712   5.870  0.00  0.00     0.274 C 
BRANCH  25  26
HETATM   26  C   UNK N   1      24.021  13.973   6.027  0.00  0.00     0.057 C 
BRANCH  26  27
HETATM   27  C   UNK N   1      24.428  14.306   7.450  0.00  0.00     0.177 C 
BRANCH  27  28
HETATM   28  O   UNK N   1      24.688  13.114   8.079  0.00  0.00    -0.351 OA
BRANCH  28  29
HETATM   29  C   UNK N   1      24.129  12.753   9.254  0.00  0.00     0.068 A 
HETATM   30  C   UNK N   1      24.902  12.311  10.342  0.00  0.00     0.040 A 
HETATM   31  C   UNK N   1      24.281  11.969  11.550  0.00  0.00     0.045 A 
HETATM   32  C   UNK N   1      22.894  12.082  11.679  0.00  0.00     0.116 A 
HETATM   33  C   UNK N   1      22.124  12.516  10.598  0.00  0.00     0.045 A 
HETATM   34  F   UNK N   1      22.293  11.770  12.851  0.00  0.00    -0.206 F 
HETATM   35  C   UNK N   1      22.740  12.844   9.388  0.00  0.00     0.040 A 
ENDBRANCH  28  29
ENDBRANCH  27  28
ENDBRANCH  26  27
ENDBRANCH  25  26
ENDBRANCH   3  25
TORSDOF 10
ENDMDL
