REMARK  11 active torsions:
REMARK  status: ('A' for Active; 'I' for Inactive)
REMARK    1  A    between atoms: C_6  and  N_1 
REMARK    2  A    between atoms: C_8  and  N_1 
REMARK    3  A    between atoms: C_7  and  N_2 
REMARK    4  A    between atoms: C_5  and  N_2 
REMARK    5  A    between atoms: C_10  and  O_3 
REMARK    6  A    between atoms: C_9  and  O_4 
REMARK    7  A    between atoms: C_5  and  C_9 
REMARK    8  A    between atoms: C_11  and  C_5 
REMARK    9  A    between atoms: C_6  and  C_10 
REMARK   10  A    between atoms: C_12  and  C_6 
REMARK   11  A    between atoms: C_8  and  C_7 
ROOT
HETATM    1  C   UNK N   1       8.090  -8.898   0.437  0.00  0.00     0.133 C 
ENDROOT
BRANCH   1   2
HETATM    2  N   UNK N   1       6.928  -9.277  -0.347  0.00  0.00    -0.413 N 
HETATM    3  H   UNK N   1       6.923  -9.942  -1.121  0.00  0.00     0.153 HD
BRANCH   2   4
HETATM    4  C   UNK N   1       5.768  -8.548   0.157  0.00  0.00     0.099 C 
BRANCH   4   5
HETATM    5  C   UNK N   1       5.724  -7.141  -0.438  0.00  0.00     0.188 C 
BRANCH   5   6
HETATM    6  O   UNK N   1       6.675  -6.322   0.170  0.00  0.00    -0.399 OA
HETATM    7  H   UNK N   1       7.499  -6.610   0.593  0.00  0.00     0.209 HD
ENDBRANCH   5   6
ENDBRANCH   4   5
BRANCH   4   8
HETATM    8  C   UNK N   1       4.513  -9.309  -0.239  0.00  0.00     0.022 C 
HETATM    9  C   UNK N   1       3.275  -8.682   0.379  0.00  0.00     0.007 C 
ENDBRANCH   4   8
ENDBRANCH   2   4
ENDBRANCH   1   2
BRANCH   1  10
HETATM   10  C   UNK N   1       9.067  -8.140  -0.443  0.00  0.00     0.133 C 
BRANCH  10  11
HETATM   11  N   UNK N   1      10.204  -7.717   0.355  0.00  0.00    -0.413 N 
HETATM   12  H   UNK N   1      10.171  -7.068   1.141  0.00  0.00     0.153 HD
BRANCH  11  13
HETATM   13  C   UNK N   1      11.401  -8.374  -0.158  0.00  0.00     0.099 C 
BRANCH  13  14
HETATM   14  C   UNK N   1      11.524  -9.781   0.424  0.00  0.00     0.188 C 
BRANCH  14  15
HETATM   15  O   UNK N   1      10.592 -10.638  -0.161  0.00  0.00    -0.399 OA
HETATM   16  H   UNK N   1       9.751 -10.374  -0.568  0.00  0.00     0.209 HD
ENDBRANCH  14  15
ENDBRANCH  13  14
BRANCH  13  17
HETATM   17  C   UNK N   1      12.612  -7.547   0.244  0.00  0.00     0.022 C 
HETATM   18  C   UNK N   1      13.883  -8.096  -0.380  0.00  0.00     0.007 C 
ENDBRANCH  13  17
ENDBRANCH  11  13
ENDBRANCH  10  11
ENDBRANCH   1  10
TORSDOF 11
