MODEL 1
REMARK VINA RESULT:      -5.7      0.000      0.000
REMARK  9 active torsions:
REMARK  status: ('A' for Active; 'I' for Inactive)
REMARK    1  A    between atoms: C_7  and  C_4 
REMARK    2  A    between atoms: C_7  and  C_8 
REMARK    3  A    between atoms: C_7  and  C_15 
REMARK    4  A    between atoms: C_7  and  O_16 
REMARK    5  A    between atoms: C_8  and  C_9 
REMARK    6  A    between atoms: C_15  and  C_20 
REMARK    7  A    between atoms: O_16  and  C_17 
REMARK    8  A    between atoms: C_17  and  C_18 
REMARK    9  A    between atoms: C_20  and  N_21 
ROOT
HETATM    1  C   UNK N   1      28.153  23.970  -5.554  0.00  0.00     0.106 C 
ENDROOT
BRANCH   1   2
HETATM    2  C   UNK N   1      29.195  23.607  -4.487  0.00  0.00    -0.022 A 
HETATM    3  C   UNK N   1      30.574  23.606  -4.756  0.00  0.00     0.010 A 
HETATM    4  C   UNK N   1      31.489  23.209  -3.778  0.00  0.00     0.001 A 
HETATM    5  C   UNK N   1      31.039  22.828  -2.512  0.00  0.00     0.000 A 
HETATM    6  C   UNK N   1      29.674  22.841  -2.224  0.00  0.00     0.001 A 
HETATM    7  C   UNK N   1      28.757  23.217  -3.207  0.00  0.00     0.010 A 
ENDBRANCH   1   2
BRANCH   1   8
HETATM    8  C   UNK N   1      26.762  24.072  -4.870  0.00  0.00     0.082 C 
BRANCH   8   9
HETATM    9  C   UNK N   1      26.214  25.466  -4.717  0.00  0.00    -0.055 A 
HETATM   10  C   UNK N   1      26.630  26.295  -3.669  0.00  0.00     0.007 A 
HETATM   11  C   UNK N   1      26.131  27.597  -3.562  0.00  0.00     0.001 A 
HETATM   12  C   UNK N   1      25.205  28.071  -4.496  0.00  0.00     0.000 A 
HETATM   13  C   UNK N   1      24.770  27.239  -5.531  0.00  0.00     0.001 A 
HETATM   14  C   UNK N   1      25.272  25.941  -5.639  0.00  0.00     0.007 A 
ENDBRANCH   8   9
ENDBRANCH   1   8
BRANCH   1  15
HETATM   15  C   UNK N   1      28.091  22.993  -6.785  0.00  0.00     0.050 C 
HETATM   16  C   UNK N   1      28.960  21.751  -6.683  0.00  0.00     0.015 C 
BRANCH  15  17
HETATM   17  C   UNK N   1      26.666  22.527  -7.116  0.00  0.00     0.279 C 
BRANCH  17  18
HETATM   18  N   UNK N   1      26.359  22.664  -8.531  0.00  0.00     0.080 N 
HETATM   19  C   UNK N   1      25.368  23.716  -8.655  0.00  0.00     0.309 C 
HETATM   20  C   UNK N   1      25.729  21.432  -8.971  0.00  0.00     0.309 C 
ENDBRANCH  17  18
ENDBRANCH  15  17
ENDBRANCH   1  15
BRANCH   1  21
HETATM   21  O   UNK N   1      28.454  25.244  -6.028  0.00  0.00    -0.304 OA
BRANCH  21  22
HETATM   22  C   UNK N   1      28.783  25.555  -7.315  0.00  0.00     0.259 C 
HETATM   23  O   UNK N   1      29.826  25.163  -7.812  0.00  0.00    -0.265 OA
BRANCH  22  24
HETATM   24  C   UNK N   1      27.857  26.414  -8.113  0.00  0.00     0.106 C 
HETATM   25  C   UNK N   1      27.843  27.831  -7.569  0.00  0.00     0.015 C 
ENDBRANCH  22  24
ENDBRANCH  21  22
ENDBRANCH   1  21
TORSDOF 9
ENDMDL
MODEL 2
REMARK VINA RESULT:      -5.5      1.276      1.932
REMARK  9 active torsions:
REMARK  status: ('A' for Active; 'I' for Inactive)
REMARK    1  A    between atoms: C_7  and  C_4 
REMARK    2  A    between atoms: C_7  and  C_8 
REMARK    3  A    between atoms: C_7  and  C_15 
REMARK    4  A    between atoms: C_7  and  O_16 
REMARK    5  A    between atoms: C_8  and  C_9 
REMARK    6  A    between atoms: C_15  and  C_20 
REMARK    7  A    between atoms: O_16  and  C_17 
REMARK    8  A    between atoms: C_17  and  C_18 
REMARK    9  A    between atoms: C_20  and  N_21 
ROOT
HETATM    1  C   UNK N   1      27.885  23.818  -5.408  0.00  0.00     0.106 C 
ENDROOT
BRANCH   1   2
HETATM    2  C   UNK N   1      28.991  23.195  -4.546  0.00  0.00    -0.022 A 
HETATM    3  C   UNK N   1      29.952  22.319  -5.077  0.00  0.00     0.010 A 
HETATM    4  C   UNK N   1      30.907  21.723  -4.250  0.00  0.00     0.001 A 
HETATM    5  C   UNK N   1      30.925  22.011  -2.883  0.00  0.00     0.000 A 
HETATM    6  C   UNK N   1      29.989  22.893  -2.344  0.00  0.00     0.001 A 
HETATM    7  C   UNK N   1      29.022  23.474  -3.166  0.00  0.00     0.010 A 
ENDBRANCH   1   2
BRANCH   1   8
HETATM    8  C   UNK N   1      26.646  24.078  -4.507  0.00  0.00     0.082 C 
BRANCH   8   9
HETATM    9  C   UNK N   1      26.149  25.499  -4.481  0.00  0.00    -0.055 A 
HETATM   10  C   UNK N   1      26.470  26.357  -3.423  0.00  0.00     0.007 A 
HETATM   11  C   UNK N   1      26.023  27.682  -3.432  0.00  0.00     0.001 A 
HETATM   12  C   UNK N   1      25.244  28.152  -4.495  0.00  0.00     0.000 A 
HETATM   13  C   UNK N   1      24.904  27.293  -5.542  0.00  0.00     0.001 A 
HETATM   14  C   UNK N   1      25.353  25.971  -5.534  0.00  0.00     0.007 A 
ENDBRANCH   8   9
ENDBRANCH   1   8
BRANCH   1  15
HETATM   15  C   UNK N   1      27.477  22.981  -6.676  0.00  0.00     0.050 C 
HETATM   16  C   UNK N   1      26.017  22.566  -6.748  0.00  0.00     0.015 C 
BRANCH  15  17
HETATM   17  C   UNK N   1      27.818  23.683  -7.999  0.00  0.00     0.279 C 
BRANCH  17  18
HETATM   18  N   UNK N   1      26.626  24.055  -8.744  0.00  0.00     0.080 N 
HETATM   19  C   UNK N   1      26.732  23.445 -10.056  0.00  0.00     0.309 C 
HETATM   20  C   UNK N   1      26.655  25.495  -8.940  0.00  0.00     0.309 C 
ENDBRANCH  17  18
ENDBRANCH  15  17
ENDBRANCH   1  15
BRANCH   1  21
HETATM   21  O   UNK N   1      28.329  25.065  -5.838  0.00  0.00    -0.304 OA
BRANCH  21  22
HETATM   22  C   UNK N   1      29.595  25.552  -5.687  0.00  0.00     0.259 C 
HETATM   23  O   UNK N   1      30.485  25.247  -6.464  0.00  0.00    -0.265 OA
BRANCH  22  24
HETATM   24  C   UNK N   1      29.893  26.453  -4.534  0.00  0.00     0.106 C 
HETATM   25  C   UNK N   1      31.272  26.160  -3.971  0.00  0.00     0.015 C 
ENDBRANCH  22  24
ENDBRANCH  21  22
ENDBRANCH   1  21
TORSDOF 9
ENDMDL
MODEL 3
REMARK VINA RESULT:      -5.4     11.965     13.767
REMARK  9 active torsions:
REMARK  status: ('A' for Active; 'I' for Inactive)
REMARK    1  A    between atoms: C_7  and  C_4 
REMARK    2  A    between atoms: C_7  and  C_8 
REMARK    3  A    between atoms: C_7  and  C_15 
REMARK    4  A    between atoms: C_7  and  O_16 
REMARK    5  A    between atoms: C_8  and  C_9 
REMARK    6  A    between atoms: C_15  and  C_20 
REMARK    7  A    between atoms: O_16  and  C_17 
REMARK    8  A    between atoms: C_17  and  C_18 
REMARK    9  A    between atoms: C_20  and  N_21 
ROOT
HETATM    1  C   UNK N   1      29.096  16.991   4.869  0.00  0.00     0.106 C 
ENDROOT
BRANCH   1   2
HETATM    2  C   UNK N   1      30.561  16.671   4.546  0.00  0.00    -0.022 A 
HETATM    3  C   UNK N   1      31.100  15.383   4.701  0.00  0.00     0.010 A 
HETATM    4  C   UNK N   1      32.454  15.143   4.456  0.00  0.00     0.001 A 
HETATM    5  C   UNK N   1      33.284  16.185   4.034  0.00  0.00     0.000 A 
HETATM    6  C   UNK N   1      32.760  17.466   3.857  0.00  0.00     0.001 A 
HETATM    7  C   UNK N   1      31.411  17.711   4.121  0.00  0.00     0.010 A 
ENDBRANCH   1   2
BRANCH   1   8
HETATM    8  C   UNK N   1      28.736  16.330   6.228  0.00  0.00     0.082 C 
BRANCH   8   9
HETATM    9  C   UNK N   1      29.127  17.111   7.454  0.00  0.00    -0.055 A 
HETATM   10  C   UNK N   1      30.464  17.437   7.706  0.00  0.00     0.007 A 
HETATM   11  C   UNK N   1      30.804  18.189   8.836  0.00  0.00     0.001 A 
HETATM   12  C   UNK N   1      29.807  18.608   9.724  0.00  0.00     0.000 A 
HETATM   13  C   UNK N   1      28.474  18.266   9.487  0.00  0.00     0.001 A 
HETATM   14  C   UNK N   1      28.135  17.518   8.357  0.00  0.00     0.007 A 
ENDBRANCH   8   9
ENDBRANCH   1   8
BRANCH   1  15
HETATM   15  C   UNK N   1      28.062  16.571   3.761  0.00  0.00     0.050 C 
HETATM   16  C   UNK N   1      28.638  15.808   2.580  0.00  0.00     0.015 C 
BRANCH  15  17
HETATM   17  C   UNK N   1      26.889  15.745   4.310  0.00  0.00     0.279 C 
BRANCH  17  18
HETATM   18  N   UNK N   1      25.605  16.372   4.043  0.00  0.00     0.080 N 
HETATM   19  C   UNK N   1      24.874  16.404   5.296  0.00  0.00     0.309 C 
HETATM   20  C   UNK N   1      24.865  15.505   3.142  0.00  0.00     0.309 C 
ENDBRANCH  17  18
ENDBRANCH  15  17
ENDBRANCH   1  15
BRANCH   1  21
HETATM   21  O   UNK N   1      28.991  18.366   5.059  0.00  0.00    -0.304 OA
BRANCH  21  22
HETATM   22  C   UNK N   1      27.924  19.138   4.704  0.00  0.00     0.259 C 
HETATM   23  O   UNK N   1      27.776  19.519   3.554  0.00  0.00    -0.265 OA
BRANCH  22  24
HETATM   24  C   UNK N   1      26.939  19.541   5.752  0.00  0.00     0.106 C 
HETATM   25  C   UNK N   1      27.448  20.741   6.529  0.00  0.00     0.015 C 
ENDBRANCH  22  24
ENDBRANCH  21  22
ENDBRANCH   1  21
TORSDOF 9
ENDMDL
MODEL 4
REMARK VINA RESULT:      -5.3     12.232     13.830
REMARK  9 active torsions:
REMARK  status: ('A' for Active; 'I' for Inactive)
REMARK    1  A    between atoms: C_7  and  C_4 
REMARK    2  A    between atoms: C_7  and  C_8 
REMARK    3  A    between atoms: C_7  and  C_15 
REMARK    4  A    between atoms: C_7  and  O_16 
REMARK    5  A    between atoms: C_8  and  C_9 
REMARK    6  A    between atoms: C_15  and  C_20 
REMARK    7  A    between atoms: O_16  and  C_17 
REMARK    8  A    between atoms: C_17  and  C_18 
REMARK    9  A    between atoms: C_20  and  N_21 
ROOT
HETATM    1  C   UNK N   1      29.143  16.890   5.328  0.00  0.00     0.106 C 
ENDROOT
BRANCH   1   2
HETATM    2  C   UNK N   1      29.100  17.195   6.831  0.00  0.00    -0.022 A 
HETATM    3  C   UNK N   1      27.919  17.089   7.585  0.00  0.00     0.010 A 
HETATM    4  C   UNK N   1      27.905  17.435   8.938  0.00  0.00     0.001 A 
HETATM    5  C   UNK N   1      29.077  17.873   9.561  0.00  0.00     0.000 A 
HETATM    6  C   UNK N   1      30.262  17.965   8.830  0.00  0.00     0.001 A 
HETATM    7  C   UNK N   1      30.272  17.640   7.473  0.00  0.00     0.010 A 
ENDBRANCH   1   2
BRANCH   1   8
HETATM    8  C   UNK N   1      29.077  18.234   4.551  0.00  0.00     0.082 C 
BRANCH   8   9
HETATM    9  C   UNK N   1      28.034  19.209   5.027  0.00  0.00    -0.055 A 
HETATM   10  C   UNK N   1      28.385  20.320   5.804  0.00  0.00     0.007 A 
HETATM   11  C   UNK N   1      27.405  21.231   6.212  0.00  0.00     0.001 A 
HETATM   12  C   UNK N   1      26.068  21.027   5.855  0.00  0.00     0.000 A 
HETATM   13  C   UNK N   1      25.710  19.908   5.099  0.00  0.00     0.001 A 
HETATM   14  C   UNK N   1      26.690  19.002   4.689  0.00  0.00     0.007 A 
ENDBRANCH   8   9
ENDBRANCH   1   8
BRANCH   1  15
HETATM   15  C   UNK N   1      28.030  15.903   4.816  0.00  0.00     0.050 C 
HETATM   16  C   UNK N   1      27.690  16.006   3.339  0.00  0.00     0.015 C 
BRANCH  15  17
HETATM   17  C   UNK N   1      28.347  14.430   5.110  0.00  0.00     0.279 C 
BRANCH  17  18
HETATM   18  N   UNK N   1      27.257  13.548   4.723  0.00  0.00     0.080 N 
HETATM   19  C   UNK N   1      26.283  13.572   5.797  0.00  0.00     0.309 C 
HETATM   20  C   UNK N   1      27.782  12.195   4.656  0.00  0.00     0.309 C 
ENDBRANCH  17  18
ENDBRANCH  15  17
ENDBRANCH   1  15
BRANCH   1  21
HETATM   21  O   UNK N   1      30.384  16.328   5.041  0.00  0.00    -0.304 OA
BRANCH  21  22
HETATM   22  C   UNK N   1      31.188  16.671   3.994  0.00  0.00     0.259 C 
HETATM   23  O   UNK N   1      31.088  16.113   2.913  0.00  0.00    -0.265 OA
BRANCH  22  24
HETATM   24  C   UNK N   1      32.224  17.729   4.189  0.00  0.00     0.106 C 
HETATM   25  C   UNK N   1      33.241  17.293   5.228  0.00  0.00     0.015 C 
ENDBRANCH  22  24
ENDBRANCH  21  22
ENDBRANCH   1  21
TORSDOF 9
ENDMDL
MODEL 5
REMARK VINA RESULT:      -5.3      1.511      4.074
REMARK  9 active torsions:
REMARK  status: ('A' for Active; 'I' for Inactive)
REMARK    1  A    between atoms: C_7  and  C_4 
REMARK    2  A    between atoms: C_7  and  C_8 
REMARK    3  A    between atoms: C_7  and  C_15 
REMARK    4  A    between atoms: C_7  and  O_16 
REMARK    5  A    between atoms: C_8  and  C_9 
REMARK    6  A    between atoms: C_15  and  C_20 
REMARK    7  A    between atoms: O_16  and  C_17 
REMARK    8  A    between atoms: C_17  and  C_18 
REMARK    9  A    between atoms: C_20  and  N_21 
ROOT
HETATM    1  C   UNK N   1      28.488  24.058  -5.635  0.00  0.00     0.106 C 
ENDROOT
BRANCH   1   2
HETATM    2  C   UNK N   1      28.124  22.870  -6.536  0.00  0.00    -0.022 A 
HETATM    3  C   UNK N   1      29.090  21.972  -7.020  0.00  0.00     0.010 A 
HETATM    4  C   UNK N   1      28.729  20.939  -7.889  0.00  0.00     0.001 A 
HETATM    5  C   UNK N   1      27.395  20.779  -8.269  0.00  0.00     0.000 A 
HETATM    6  C   UNK N   1      26.421  21.651  -7.782  0.00  0.00     0.001 A 
HETATM    7  C   UNK N   1      26.783  22.696  -6.930  0.00  0.00     0.010 A 
ENDBRANCH   1   2
BRANCH   1   8
HETATM    8  C   UNK N   1      27.394  24.202  -4.542  0.00  0.00     0.082 C 
BRANCH   8   9
HETATM    9  C   UNK N   1      26.640  25.505  -4.545  0.00  0.00    -0.055 A 
HETATM   10  C   UNK N   1      26.996  26.546  -3.680  0.00  0.00     0.007 A 
HETATM   11  C   UNK N   1      26.302  27.761  -3.719  0.00  0.00     0.001 A 
HETATM   12  C   UNK N   1      25.243  27.934  -4.615  0.00  0.00     0.000 A 
HETATM   13  C   UNK N   1      24.871  26.889  -5.465  0.00  0.00     0.001 A 
HETATM   14  C   UNK N   1      25.566  25.679  -5.428  0.00  0.00     0.007 A 
ENDBRANCH   8   9
ENDBRANCH   1   8
BRANCH   1  15
HETATM   15  C   UNK N   1      28.699  25.424  -6.386  0.00  0.00     0.050 C 
HETATM   16  C   UNK N   1      30.080  26.043  -6.248  0.00  0.00     0.015 C 
BRANCH  15  17
HETATM   17  C   UNK N   1      28.382  25.346  -7.886  0.00  0.00     0.279 C 
BRANCH  17  18
HETATM   18  N   UNK N   1      27.520  26.434  -8.321  0.00  0.00     0.080 N 
HETATM   19  C   UNK N   1      26.400  25.839  -9.025  0.00  0.00     0.309 C 
HETATM   20  C   UNK N   1      28.259  27.225  -9.291  0.00  0.00     0.309 C 
ENDBRANCH  17  18
ENDBRANCH  15  17
ENDBRANCH   1  15
BRANCH   1  21
HETATM   21  O   UNK N   1      29.670  23.743  -4.971  0.00  0.00    -0.304 OA
BRANCH  21  22
HETATM   22  C   UNK N   1      29.846  23.744  -3.618  0.00  0.00     0.259 C 
HETATM   23  O   UNK N   1      30.127  24.770  -3.020  0.00  0.00    -0.265 OA
BRANCH  22  24
HETATM   24  C   UNK N   1      29.718  22.458  -2.869  0.00  0.00     0.106 C 
HETATM   25  C   UNK N   1      30.420  21.336  -3.611  0.00  0.00     0.015 C 
ENDBRANCH  22  24
ENDBRANCH  21  22
ENDBRANCH   1  21
TORSDOF 9
ENDMDL
MODEL 6
REMARK VINA RESULT:      -5.2     11.888     14.296
REMARK  9 active torsions:
REMARK  status: ('A' for Active; 'I' for Inactive)
REMARK    1  A    between atoms: C_7  and  C_4 
REMARK    2  A    between atoms: C_7  and  C_8 
REMARK    3  A    between atoms: C_7  and  C_15 
REMARK    4  A    between atoms: C_7  and  O_16 
REMARK    5  A    between atoms: C_8  and  C_9 
REMARK    6  A    between atoms: C_15  and  C_20 
REMARK    7  A    between atoms: O_16  and  C_17 
REMARK    8  A    between atoms: C_17  and  C_18 
REMARK    9  A    between atoms: C_20  and  N_21 
ROOT
HETATM    1  C   UNK N   1      29.215  16.667   5.836  0.00  0.00     0.106 C 
ENDROOT
BRANCH   1   2
HETATM    2  C   UNK N   1      27.791  16.205   5.501  0.00  0.00    -0.022 A 
HETATM    3  C   UNK N   1      27.354  16.022   4.178  0.00  0.00     0.010 A 
HETATM    4  C   UNK N   1      26.031  15.661   3.909  0.00  0.00     0.001 A 
HETATM    5  C   UNK N   1      25.134  15.458   4.960  0.00  0.00     0.000 A 
HETATM    6  C   UNK N   1      25.558  15.617   6.280  0.00  0.00     0.001 A 
HETATM    7  C   UNK N   1      26.874  15.999   6.549  0.00  0.00     0.010 A 
ENDBRANCH   1   2
BRANCH   1   8
HETATM    8  C   UNK N   1      29.449  18.056   5.182  0.00  0.00     0.082 C 
BRANCH   8   9
HETATM    9  C   UNK N   1      28.320  19.041   5.327  0.00  0.00    -0.055 A 
HETATM   10  C   UNK N   1      27.970  19.560   6.579  0.00  0.00     0.007 A 
HETATM   11  C   UNK N   1      26.936  20.496   6.688  0.00  0.00     0.001 A 
HETATM   12  C   UNK N   1      26.241  20.908   5.547  0.00  0.00     0.000 A 
HETATM   13  C   UNK N   1      26.573  20.376   4.298  0.00  0.00     0.001 A 
HETATM   14  C   UNK N   1      27.607  19.445   4.189  0.00  0.00     0.007 A 
ENDBRANCH   8   9
ENDBRANCH   1   8
BRANCH   1  15
HETATM   15  C   UNK N   1      30.355  15.665   5.425  0.00  0.00     0.050 C 
HETATM   16  C   UNK N   1      29.912  14.234   5.169  0.00  0.00     0.015 C 
BRANCH  15  17
HETATM   17  C   UNK N   1      31.149  16.125   4.193  0.00  0.00     0.279 C 
BRANCH  17  18
HETATM   18  N   UNK N   1      32.585  16.032   4.401  0.00  0.00     0.080 N 
HETATM   19  C   UNK N   1      33.022  17.302   4.950  0.00  0.00     0.309 C 
HETATM   20  C   UNK N   1      33.215  15.893   3.099  0.00  0.00     0.309 C 
ENDBRANCH  17  18
ENDBRANCH  15  17
ENDBRANCH   1  15
BRANCH   1  21
HETATM   21  O   UNK N   1      29.287  16.862   7.213  0.00  0.00    -0.304 OA
BRANCH  21  22
HETATM   22  C   UNK N   1      30.434  17.028   7.933  0.00  0.00     0.259 C 
HETATM   23  O   UNK N   1      31.279  16.149   7.985  0.00  0.00    -0.265 OA
BRANCH  22  24
HETATM   24  C   UNK N   1      30.639  18.300   8.689  0.00  0.00     0.106 C 
HETATM   25  C   UNK N   1      29.543  18.487   9.722  0.00  0.00     0.015 C 
ENDBRANCH  22  24
ENDBRANCH  21  22
ENDBRANCH   1  21
TORSDOF 9
ENDMDL
MODEL 7
REMARK VINA RESULT:      -5.2      1.840      4.294
REMARK  9 active torsions:
REMARK  status: ('A' for Active; 'I' for Inactive)
REMARK    1  A    between atoms: C_7  and  C_4 
REMARK    2  A    between atoms: C_7  and  C_8 
REMARK    3  A    between atoms: C_7  and  C_15 
REMARK    4  A    between atoms: C_7  and  O_16 
REMARK    5  A    between atoms: C_8  and  C_9 
REMARK    6  A    between atoms: C_15  and  C_20 
REMARK    7  A    between atoms: O_16  and  C_17 
REMARK    8  A    between atoms: C_17  and  C_18 
REMARK    9  A    between atoms: C_20  and  N_21 
ROOT
HETATM    1  C   UNK N   1      28.566  24.959  -5.156  0.00  0.00     0.106 C 
ENDROOT
BRANCH   1   2
HETATM    2  C   UNK N   1      29.496  24.118  -4.271  0.00  0.00    -0.022 A 
HETATM    3  C   UNK N   1      30.793  23.759  -4.675  0.00  0.00     0.010 A 
HETATM    4  C   UNK N   1      31.587  22.939  -3.869  0.00  0.00     0.001 A 
HETATM    5  C   UNK N   1      31.103  22.485  -2.641  0.00  0.00     0.000 A 
HETATM    6  C   UNK N   1      29.824  22.848  -2.218  0.00  0.00     0.001 A 
HETATM    7  C   UNK N   1      29.021  23.650  -3.031  0.00  0.00     0.010 A 
ENDBRANCH   1   2
BRANCH   1   8
HETATM    8  C   UNK N   1      28.725  24.487  -6.627  0.00  0.00     0.082 C 
BRANCH   8   9
HETATM    9  C   UNK N   1      27.506  23.851  -7.240  0.00  0.00    -0.055 A 
HETATM   10  C   UNK N   1      27.183  22.513  -6.983  0.00  0.00     0.007 A 
HETATM   11  C   UNK N   1      26.030  21.949  -7.539  0.00  0.00     0.001 A 
HETATM   12  C   UNK N   1      25.201  22.718  -8.362  0.00  0.00     0.000 A 
HETATM   13  C   UNK N   1      25.531  24.046  -8.638  0.00  0.00     0.001 A 
HETATM   14  C   UNK N   1      26.681  24.610  -8.081  0.00  0.00     0.007 A 
ENDBRANCH   8   9
ENDBRANCH   1   8
BRANCH   1  15
HETATM   15  C   UNK N   1      28.774  26.515  -5.052  0.00  0.00     0.050 C 
HETATM   16  C   UNK N   1      29.733  26.979  -3.967  0.00  0.00     0.015 C 
BRANCH  15  17
HETATM   17  C   UNK N   1      29.234  27.153  -6.371  0.00  0.00     0.279 C 
BRANCH  17  18
HETATM   18  N   UNK N   1      28.157  27.865  -7.039  0.00  0.00     0.080 N 
HETATM   19  C   UNK N   1      28.481  27.905  -8.453  0.00  0.00     0.309 C 
HETATM   20  C   UNK N   1      28.167  29.238  -6.562  0.00  0.00     0.309 C 
ENDBRANCH  17  18
ENDBRANCH  15  17
ENDBRANCH   1  15
BRANCH   1  21
HETATM   21  O   UNK N   1      27.254  24.674  -4.789  0.00  0.00    -0.304 OA
BRANCH  21  22
HETATM   22  C   UNK N   1      26.350  25.575  -4.307  0.00  0.00     0.259 C 
HETATM   23  O   UNK N   1      26.322  25.869  -3.123  0.00  0.00    -0.265 OA
BRANCH  22  24
HETATM   24  C   UNK N   1      25.364  26.187  -5.248  0.00  0.00     0.106 C 
HETATM   25  C   UNK N   1      25.183  27.663  -4.943  0.00  0.00     0.015 C 
ENDBRANCH  22  24
ENDBRANCH  21  22
ENDBRANCH   1  21
TORSDOF 9
ENDMDL
MODEL 8
REMARK VINA RESULT:      -5.2      2.271      5.821
REMARK  9 active torsions:
REMARK  status: ('A' for Active; 'I' for Inactive)
REMARK    1  A    between atoms: C_7  and  C_4 
REMARK    2  A    between atoms: C_7  and  C_8 
REMARK    3  A    between atoms: C_7  and  C_15 
REMARK    4  A    between atoms: C_7  and  O_16 
REMARK    5  A    between atoms: C_8  and  C_9 
REMARK    6  A    between atoms: C_15  and  C_20 
REMARK    7  A    between atoms: O_16  and  C_17 
REMARK    8  A    between atoms: C_17  and  C_18 
REMARK    9  A    between atoms: C_20  and  N_21 
ROOT
HETATM    1  C   UNK N   1      27.970  24.999  -5.418  0.00  0.00     0.106 C 
ENDROOT
BRANCH   1   2
HETATM    2  C   UNK N   1      27.196  26.228  -4.923  0.00  0.00    -0.022 A 
HETATM    3  C   UNK N   1      26.958  27.344  -5.742  0.00  0.00     0.010 A 
HETATM    4  C   UNK N   1      26.304  28.471  -5.237  0.00  0.00     0.001 A 
HETATM    5  C   UNK N   1      25.862  28.488  -3.912  0.00  0.00     0.000 A 
HETATM    6  C   UNK N   1      26.075  27.380  -3.091  0.00  0.00     0.001 A 
HETATM    7  C   UNK N   1      26.747  26.261  -3.589  0.00  0.00     0.010 A 
ENDBRANCH   1   2
BRANCH   1   8
HETATM    8  C   UNK N   1      27.867  23.884  -4.341  0.00  0.00     0.082 C 
BRANCH   8   9
HETATM    9  C   UNK N   1      29.136  23.117  -4.079  0.00  0.00    -0.055 A 
HETATM   10  C   UNK N   1      29.669  22.252  -5.042  0.00  0.00     0.007 A 
HETATM   11  C   UNK N   1      30.864  21.571  -4.790  0.00  0.00     0.001 A 
HETATM   12  C   UNK N   1      31.524  21.742  -3.569  0.00  0.00     0.000 A 
HETATM   13  C   UNK N   1      30.984  22.587  -2.597  0.00  0.00     0.001 A 
HETATM   14  C   UNK N   1      29.793  23.270  -2.850  0.00  0.00     0.007 A 
ENDBRANCH   8   9
ENDBRANCH   1   8
BRANCH   1  15
HETATM   15  C   UNK N   1      29.474  25.265  -5.794  0.00  0.00     0.050 C 
HETATM   16  C   UNK N   1      29.776  25.343  -7.281  0.00  0.00     0.015 C 
BRANCH  15  17
HETATM   17  C   UNK N   1      30.045  26.534  -5.145  0.00  0.00     0.279 C 
BRANCH  17  18
HETATM   18  N   UNK N   1      30.912  26.231  -4.018  0.00  0.00     0.080 N 
HETATM   19  C   UNK N   1      31.207  27.487  -3.354  0.00  0.00     0.309 C 
HETATM   20  C   UNK N   1      32.167  25.724  -4.545  0.00  0.00     0.309 C 
ENDBRANCH  17  18
ENDBRANCH  15  17
ENDBRANCH   1  15
BRANCH   1  21
HETATM   21  O   UNK N   1      27.321  24.515  -6.551  0.00  0.00    -0.304 OA
BRANCH  21  22
HETATM   22  C   UNK N   1      26.212  23.720  -6.552  0.00  0.00     0.259 C 
HETATM   23  O   UNK N   1      25.172  24.088  -6.030  0.00  0.00    -0.265 OA
BRANCH  22  24
HETATM   24  C   UNK N   1      26.289  22.368  -7.182  0.00  0.00     0.106 C 
HETATM   25  C   UNK N   1      27.570  22.225  -7.983  0.00  0.00     0.015 C 
ENDBRANCH  22  24
ENDBRANCH  21  22
ENDBRANCH   1  21
TORSDOF 9
ENDMDL
MODEL 9
REMARK VINA RESULT:      -5.2     11.049     13.985
REMARK  9 active torsions:
REMARK  status: ('A' for Active; 'I' for Inactive)
REMARK    1  A    between atoms: C_7  and  C_4 
REMARK    2  A    between atoms: C_7  and  C_8 
REMARK    3  A    between atoms: C_7  and  C_15 
REMARK    4  A    between atoms: C_7  and  O_16 
REMARK    5  A    between atoms: C_8  and  C_9 
REMARK    6  A    between atoms: C_15  and  C_20 
REMARK    7  A    between atoms: O_16  and  C_17 
REMARK    8  A    between atoms: C_17  and  C_18 
REMARK    9  A    between atoms: C_20  and  N_21 
ROOT
HETATM    1  C   UNK N   1      28.230  17.550   5.284  0.00  0.00     0.106 C 
ENDROOT
BRANCH   1   2
HETATM    2  C   UNK N   1      27.178  18.443   4.615  0.00  0.00    -0.022 A 
HETATM    3  C   UNK N   1      27.521  19.614   3.919  0.00  0.00     0.010 A 
HETATM    4  C   UNK N   1      26.530  20.436   3.376  0.00  0.00     0.001 A 
HETATM    5  C   UNK N   1      25.184  20.087   3.504  0.00  0.00     0.000 A 
HETATM    6  C   UNK N   1      24.828  18.917   4.176  0.00  0.00     0.001 A 
HETATM    7  C   UNK N   1      25.816  18.106   4.737  0.00  0.00     0.010 A 
ENDBRANCH   1   2
BRANCH   1   8
HETATM    8  C   UNK N   1      29.581  18.315   5.311  0.00  0.00     0.082 C 
BRANCH   8   9
HETATM    9  C   UNK N   1      30.814  17.462   5.168  0.00  0.00    -0.055 A 
HETATM   10  C   UNK N   1      31.545  17.444   3.975  0.00  0.00     0.007 A 
HETATM   11  C   UNK N   1      32.704  16.667   3.873  0.00  0.00     0.001 A 
HETATM   12  C   UNK N   1      33.129  15.896   4.960  0.00  0.00     0.000 A 
HETATM   13  C   UNK N   1      32.389  15.894   6.145  0.00  0.00     0.001 A 
HETATM   14  C   UNK N   1      31.235  16.673   6.248  0.00  0.00     0.007 A 
ENDBRANCH   8   9
ENDBRANCH   1   8
BRANCH   1  15
HETATM   15  C   UNK N   1      28.414  16.131   4.629  0.00  0.00     0.050 C 
HETATM   16  C   UNK N   1      27.621  15.004   5.270  0.00  0.00     0.015 C 
BRANCH  15  17
HETATM   17  C   UNK N   1      28.101  16.113   3.126  0.00  0.00     0.279 C 
BRANCH  17  18
HETATM   18  N   UNK N   1      27.434  14.886   2.721  0.00  0.00     0.080 N 
HETATM   19  C   UNK N   1      28.349  14.167   1.854  0.00  0.00     0.309 C 
HETATM   20  C   UNK N   1      26.282  15.251   1.914  0.00  0.00     0.309 C 
ENDBRANCH  17  18
ENDBRANCH  15  17
ENDBRANCH   1  15
BRANCH   1  21
HETATM   21  O   UNK N   1      27.853  17.367   6.612  0.00  0.00    -0.304 OA
BRANCH  21  22
HETATM   22  C   UNK N   1      28.149  18.207   7.645  0.00  0.00     0.259 C 
HETATM   23  O   UNK N   1      27.863  19.392   7.596  0.00  0.00    -0.265 OA
BRANCH  22  24
HETATM   24  C   UNK N   1      28.861  17.664   8.840  0.00  0.00     0.106 C 
HETATM   25  C   UNK N   1      29.960  18.613   9.283  0.00  0.00     0.015 C 
ENDBRANCH  22  24
ENDBRANCH  21  22
ENDBRANCH   1  21
TORSDOF 9
ENDMDL
