MODEL 1
REMARK VINA RESULT:      -4.3      0.000      0.000
REMARK  4 active torsions:
REMARK  status: ('A' for Active; 'I' for Inactive)
REMARK    1  A    between atoms: O_3  and  C_2 
REMARK    2  A    between atoms: C_4  and  C_2 
REMARK    3  A    between atoms: C_4  and  N_5 
REMARK    4  A    between atoms: C_6  and  C_4 
ROOT
HETATM    1  C   UNK N   1      33.906  17.302   8.978  0.00  0.00     0.176 C 
ENDROOT
BRANCH   1   2
HETATM    2  C   UNK N   1      34.582  18.272   8.049  0.00  0.00     0.163 C 
HETATM    3  O   UNK N   1      35.252  19.188   8.493  0.00  0.00    -0.648 OA
BRANCH   2   4
HETATM    4  O   UNK N   1      34.449  18.132   6.717  0.00  0.00    -0.775 OA
HETATM    5  H   UNK N   1      35.180  18.293   6.153  0.00  0.00     0.167 HD
ENDBRANCH   2   4
ENDBRANCH   1   2
BRANCH   1   6
HETATM    6  N   UNK N   1      34.588  16.976  10.220  0.00  0.00    -0.417 N 
HETATM    7  H   UNK N   1      34.618  16.010  10.549  0.00  0.00     0.150 HD
HETATM    8  H   UNK N   1      35.038  17.712  10.764  0.00  0.00     0.150 HD
ENDBRANCH   1   6
BRANCH   1   9
HETATM    9  C   UNK N   1      32.551  16.640   8.703  0.00  0.00     0.010 C 
HETATM   10  C   UNK N   1      32.386  15.134   8.764  0.00  0.00     0.012 C 
HETATM   11  C   UNK N   1      31.334  17.477   8.360  0.00  0.00     0.012 C 
ENDBRANCH   1   9
TORSDOF 4
ENDMDL
MODEL 2
REMARK VINA RESULT:      -4.2     11.767     12.428
REMARK  4 active torsions:
REMARK  status: ('A' for Active; 'I' for Inactive)
REMARK    1  A    between atoms: O_3  and  C_2 
REMARK    2  A    between atoms: C_4  and  C_2 
REMARK    3  A    between atoms: C_4  and  N_5 
REMARK    4  A    between atoms: C_6  and  C_4 
ROOT
HETATM    1  C   UNK N   1      23.723  12.161  11.537  0.00  0.00     0.176 C 
ENDROOT
BRANCH   1   2
HETATM    2  C   UNK N   1      23.310  11.883  12.957  0.00  0.00     0.163 C 
HETATM    3  O   UNK N   1      23.951  12.339  13.887  0.00  0.00    -0.648 OA
BRANCH   2   4
HETATM    4  O   UNK N   1      22.225  11.127  13.206  0.00  0.00    -0.775 OA
HETATM    5  H   UNK N   1      22.090  10.330  12.733  0.00  0.00     0.167 HD
ENDBRANCH   2   4
ENDBRANCH   1   2
BRANCH   1   6
HETATM    6  N   UNK N   1      25.118  12.499  11.298  0.00  0.00    -0.417 N 
HETATM    7  H   UNK N   1      25.823  11.763  11.262  0.00  0.00     0.150 HD
HETATM    8  H   UNK N   1      25.390  13.474  11.167  0.00  0.00     0.150 HD
ENDBRANCH   1   6
BRANCH   1   9
HETATM    9  C   UNK N   1      22.776  12.110  10.334  0.00  0.00     0.010 C 
HETATM   10  C   UNK N   1      21.458  12.860  10.339  0.00  0.00     0.012 C 
HETATM   11  C   UNK N   1      23.133  11.305   9.099  0.00  0.00     0.012 C 
ENDBRANCH   1   9
TORSDOF 4
ENDMDL
MODEL 3
REMARK VINA RESULT:      -4.1      1.566      2.624
REMARK  4 active torsions:
REMARK  status: ('A' for Active; 'I' for Inactive)
REMARK    1  A    between atoms: O_3  and  C_2 
REMARK    2  A    between atoms: C_4  and  C_2 
REMARK    3  A    between atoms: C_4  and  N_5 
REMARK    4  A    between atoms: C_6  and  C_4 
ROOT
HETATM    1  C   UNK N   1      33.829  17.265   8.901  0.00  0.00     0.176 C 
ENDROOT
BRANCH   1   2
HETATM    2  C   UNK N   1      34.544  18.240   8.006  0.00  0.00     0.163 C 
HETATM    3  O   UNK N   1      34.459  18.141   6.794  0.00  0.00    -0.648 OA
BRANCH   2   4
HETATM    4  O   UNK N   1      35.282  19.230   8.541  0.00  0.00    -0.775 OA
HETATM    5  H   UNK N   1      35.617  19.913   7.995  0.00  0.00     0.167 HD
ENDBRANCH   2   4
ENDBRANCH   1   2
BRANCH   1   6
HETATM    6  N   UNK N   1      32.380  17.360   8.975  0.00  0.00    -0.417 N 
HETATM    7  H   UNK N   1      31.939  18.228   9.279  0.00  0.00     0.150 HD
HETATM    8  H   UNK N   1      31.803  16.556   8.724  0.00  0.00     0.150 HD
ENDBRANCH   1   6
BRANCH   1   9
HETATM    9  C   UNK N   1      34.526  16.185   9.736  0.00  0.00     0.010 C 
HETATM   10  C   UNK N   1      35.480  16.552  10.856  0.00  0.00     0.012 C 
HETATM   11  C   UNK N   1      34.280  14.714   9.463  0.00  0.00     0.012 C 
ENDBRANCH   1   9
TORSDOF 4
ENDMDL
MODEL 4
REMARK VINA RESULT:      -4.0     11.316     12.210
REMARK  4 active torsions:
REMARK  status: ('A' for Active; 'I' for Inactive)
REMARK    1  A    between atoms: O_3  and  C_2 
REMARK    2  A    between atoms: C_4  and  C_2 
REMARK    3  A    between atoms: C_4  and  N_5 
REMARK    4  A    between atoms: C_6  and  C_4 
ROOT
HETATM    1  C   UNK N   1      22.967  12.162  11.413  0.00  0.00     0.176 C 
ENDROOT
BRANCH   1   2
HETATM    2  C   UNK N   1      24.306  12.206  10.729  0.00  0.00     0.163 C 
HETATM    3  O   UNK N   1      24.442  11.748   9.609  0.00  0.00    -0.648 OA
BRANCH   2   4
HETATM    4  O   UNK N   1      25.363  12.756  11.355  0.00  0.00    -0.775 OA
HETATM    5  H   UNK N   1      25.690  12.375  12.146  0.00  0.00     0.167 HD
ENDBRANCH   2   4
ENDBRANCH   1   2
BRANCH   1   6
HETATM    6  N   UNK N   1      22.903  11.534  12.724  0.00  0.00    -0.417 N 
HETATM    7  H   UNK N   1      23.560  10.793  12.968  0.00  0.00     0.150 HD
HETATM    8  H   UNK N   1      22.200  11.834  13.399  0.00  0.00     0.150 HD
ENDBRANCH   1   6
BRANCH   1   9
HETATM    9  C   UNK N   1      21.673  12.732  10.822  0.00  0.00     0.010 C 
HETATM   10  C   UNK N   1      21.705  13.786   9.732  0.00  0.00     0.012 C 
HETATM   11  C   UNK N   1      20.320  12.256  11.313  0.00  0.00     0.012 C 
ENDBRANCH   1   9
TORSDOF 4
ENDMDL
MODEL 5
REMARK VINA RESULT:      -4.0     11.764     12.567
REMARK  4 active torsions:
REMARK  status: ('A' for Active; 'I' for Inactive)
REMARK    1  A    between atoms: O_3  and  C_2 
REMARK    2  A    between atoms: C_4  and  C_2 
REMARK    3  A    between atoms: C_4  and  N_5 
REMARK    4  A    between atoms: C_6  and  C_4 
ROOT
HETATM    1  C   UNK N   1      22.843  11.999  10.725  0.00  0.00     0.176 C 
ENDROOT
BRANCH   1   2
HETATM    2  C   UNK N   1      23.849  12.114  11.837  0.00  0.00     0.163 C 
HETATM    3  O   UNK N   1      23.503  11.988  12.999  0.00  0.00    -0.648 OA
BRANCH   2   4
HETATM    4  O   UNK N   1      25.142  12.359  11.553  0.00  0.00    -0.775 OA
HETATM    5  H   UNK N   1      25.417  12.455  10.663  0.00  0.00     0.167 HD
ENDBRANCH   2   4
ENDBRANCH   1   2
BRANCH   1   6
HETATM    6  N   UNK N   1      23.233  11.246   9.543  0.00  0.00    -0.417 N 
HETATM    7  H   UNK N   1      23.791  11.692   8.814  0.00  0.00     0.150 HD
HETATM    8  H   UNK N   1      22.948  10.272   9.442  0.00  0.00     0.150 HD
ENDBRANCH   1   6
BRANCH   1   9
HETATM    9  C   UNK N   1      21.443  12.620  10.757  0.00  0.00     0.010 C 
HETATM   10  C   UNK N   1      20.361  12.071  11.666  0.00  0.00     0.012 C 
HETATM   11  C   UNK N   1      21.099  13.805   9.876  0.00  0.00     0.012 C 
ENDBRANCH   1   9
TORSDOF 4
ENDMDL
MODEL 6
REMARK VINA RESULT:      -3.9     13.576     14.583
REMARK  4 active torsions:
REMARK  status: ('A' for Active; 'I' for Inactive)
REMARK    1  A    between atoms: O_3  and  C_2 
REMARK    2  A    between atoms: C_4  and  C_2 
REMARK    3  A    between atoms: C_4  and  N_5 
REMARK    4  A    between atoms: C_6  and  C_4 
ROOT
HETATM    1  C   UNK N   1      20.290  19.045   2.266  0.00  0.00     0.176 C 
ENDROOT
BRANCH   1   2
HETATM    2  C   UNK N   1      20.776  20.175   1.400  0.00  0.00     0.163 C 
HETATM    3  O   UNK N   1      21.251  21.178   1.903  0.00  0.00    -0.648 OA
BRANCH   2   4
HETATM    4  O   UNK N   1      20.689  20.082   0.060  0.00  0.00    -0.775 OA
HETATM    5  H   UNK N   1      21.349  19.623  -0.422  0.00  0.00     0.167 HD
ENDBRANCH   2   4
ENDBRANCH   1   2
BRANCH   1   6
HETATM    6  N   UNK N   1      18.856  18.807   2.315  0.00  0.00    -0.417 N 
HETATM    7  H   UNK N   1      18.473  18.131   2.976  0.00  0.00     0.150 HD
HETATM    8  H   UNK N   1      18.232  19.316   1.688  0.00  0.00     0.150 HD
ENDBRANCH   1   6
BRANCH   1   9
HETATM    9  C   UNK N   1      21.202  18.135   3.095  0.00  0.00     0.010 C 
HETATM   10  C   UNK N   1      22.132  18.704   4.148  0.00  0.00     0.012 C 
HETATM   11  C   UNK N   1      21.200  16.633   2.882  0.00  0.00     0.012 C 
ENDBRANCH   1   9
TORSDOF 4
ENDMDL
MODEL 7
REMARK VINA RESULT:      -3.8      7.694      8.188
REMARK  4 active torsions:
REMARK  status: ('A' for Active; 'I' for Inactive)
REMARK    1  A    between atoms: O_3  and  C_2 
REMARK    2  A    between atoms: C_4  and  C_2 
REMARK    3  A    between atoms: C_4  and  N_5 
REMARK    4  A    between atoms: C_6  and  C_4 
ROOT
HETATM    1  C   UNK N   1      36.411  13.833  15.087  0.00  0.00     0.176 C 
ENDROOT
BRANCH   1   2
HETATM    2  C   UNK N   1      36.048  13.784  13.628  0.00  0.00     0.163 C 
HETATM    3  O   UNK N   1      34.887  13.644  13.285  0.00  0.00    -0.648 OA
BRANCH   2   4
HETATM    4  O   UNK N   1      37.009  13.895  12.692  0.00  0.00    -0.775 OA
HETATM    5  H   UNK N   1      36.992  14.610  12.086  0.00  0.00     0.167 HD
ENDBRANCH   2   4
ENDBRANCH   1   2
BRANCH   1   6
HETATM    6  N   UNK N   1      37.325  14.879  15.518  0.00  0.00    -0.417 N 
HETATM    7  H   UNK N   1      38.260  14.938  15.114  0.00  0.00     0.150 HD
HETATM    8  H   UNK N   1      37.031  15.554  16.224  0.00  0.00     0.150 HD
ENDBRANCH   1   6
BRANCH   1   9
HETATM    9  C   UNK N   1      35.881  12.856  16.144  0.00  0.00     0.010 C 
HETATM   10  C   UNK N   1      36.227  11.381  16.093  0.00  0.00     0.012 C 
HETATM   11  C   UNK N   1      34.994  13.342  17.273  0.00  0.00     0.012 C 
ENDBRANCH   1   9
TORSDOF 4
ENDMDL
MODEL 8
REMARK VINA RESULT:      -3.7      2.152      2.514
REMARK  4 active torsions:
REMARK  status: ('A' for Active; 'I' for Inactive)
REMARK    1  A    between atoms: O_3  and  C_2 
REMARK    2  A    between atoms: C_4  and  C_2 
REMARK    3  A    between atoms: C_4  and  N_5 
REMARK    4  A    between atoms: C_6  and  C_4 
ROOT
HETATM    1  C   UNK N   1      33.733  17.573   8.002  0.00  0.00     0.176 C 
ENDROOT
BRANCH   1   2
HETATM    2  C   UNK N   1      34.849  18.194   8.795  0.00  0.00     0.163 C 
HETATM    3  O   UNK N   1      35.314  19.272   8.468  0.00  0.00    -0.648 OA
BRANCH   2   4
HETATM    4  O   UNK N   1      35.343  17.558   9.874  0.00  0.00    -0.775 OA
HETATM    5  H   UNK N   1      34.991  16.730  10.132  0.00  0.00     0.167 HD
ENDBRANCH   2   4
ENDBRANCH   1   2
BRANCH   1   6
HETATM    6  N   UNK N   1      32.404  17.579   8.594  0.00  0.00    -0.417 N 
HETATM    7  H   UNK N   1      32.147  18.304   9.264  0.00  0.00     0.150 HD
HETATM    8  H   UNK N   1      31.729  16.858   8.340  0.00  0.00     0.150 HD
ENDBRANCH   1   6
BRANCH   1   9
HETATM    9  C   UNK N   1      33.903  16.938   6.617  0.00  0.00     0.010 C 
HETATM   10  C   UNK N   1      34.744  15.691   6.423  0.00  0.00     0.012 C 
HETATM   11  C   UNK N   1      33.232  17.542   5.399  0.00  0.00     0.012 C 
ENDBRANCH   1   9
TORSDOF 4
ENDMDL
MODEL 9
REMARK VINA RESULT:      -3.7      2.025      2.241
REMARK  4 active torsions:
REMARK  status: ('A' for Active; 'I' for Inactive)
REMARK    1  A    between atoms: O_3  and  C_2 
REMARK    2  A    between atoms: C_4  and  C_2 
REMARK    3  A    between atoms: C_4  and  N_5 
REMARK    4  A    between atoms: C_6  and  C_4 
ROOT
HETATM    1  C   UNK N   1      33.270  17.699   7.420  0.00  0.00     0.176 C 
ENDROOT
BRANCH   1   2
HETATM    2  C   UNK N   1      34.262  18.103   8.476  0.00  0.00     0.163 C 
HETATM    3  O   UNK N   1      34.998  19.058   8.299  0.00  0.00    -0.648 OA
BRANCH   2   4
HETATM    4  O   UNK N   1      34.342  17.408   9.626  0.00  0.00    -0.775 OA
HETATM    5  H   UNK N   1      33.574  17.269  10.144  0.00  0.00     0.167 HD
ENDBRANCH   2   4
ENDBRANCH   1   2
BRANCH   1   6
HETATM    6  N   UNK N   1      33.751  17.599   6.051  0.00  0.00    -0.417 N 
HETATM    7  H   UNK N   1      33.466  16.813   5.466  0.00  0.00     0.150 HD
HETATM    8  H   UNK N   1      34.373  18.314   5.675  0.00  0.00     0.150 HD
ENDBRANCH   1   6
BRANCH   1   9
HETATM    9  C   UNK N   1      31.794  17.390   7.692  0.00  0.00     0.010 C 
HETATM   10  C   UNK N   1      31.072  16.287   6.943  0.00  0.00     0.012 C 
HETATM   11  C   UNK N   1      31.012  18.181   8.722  0.00  0.00     0.012 C 
ENDBRANCH   1   9
TORSDOF 4
ENDMDL
