MODEL 1
REMARK VINA RESULT:      -5.3      0.000      0.000
REMARK  10 active torsions:
REMARK  status: ('A' for Active; 'I' for Inactive)
REMARK    1  A    between atoms: C_2  and  C_1 
REMARK    2  A    between atoms: C_2  and  N_12 
REMARK    3  A    between atoms: C_3  and  C_2 
REMARK    4  A    between atoms: C_3  and  O_7 
REMARK    5  A    between atoms: C_4  and  C_3 
REMARK    6  A    between atoms: C_4  and  O_8 
REMARK    7  A    between atoms: C_5  and  C_4 
REMARK    8  A    between atoms: C_5  and  O_9 
REMARK    9  A    between atoms: C_10  and  C_5 
REMARK   10  A    between atoms: C_10  and  O_11 
REMARK       I    between atoms: N_12  and  C_13 
ROOT
HETATM    1  C   UNK N   1      20.365  17.586   3.603  0.00  0.00     0.178 C 
ENDROOT
BRANCH   1   2
HETATM    2  C   UNK N   1      21.170  18.024   4.847  0.00  0.00     0.177 C 
BRANCH   2   3
HETATM    3  C   UNK N   1      22.653  18.002   4.564  0.00  0.00     0.258 C 
HETATM    4  O   UNK N   1      23.175  18.915   3.944  0.00  0.00    -0.305 OA
ENDBRANCH   2   3
BRANCH   2   5
HETATM    5  N   UNK N   1      20.838  17.188   5.986  0.00  0.00    -0.348 N 
HETATM    6  C   UNK N   1      20.633  17.665   7.242  0.00  0.00     0.214 C 
HETATM    7  O   UNK N   1      20.785  18.848   7.498  0.00  0.00    -0.274 OA
HETATM    8  C   UNK N   1      20.207  16.728   8.318  0.00  0.00     0.117 C 
HETATM    9  H   UNK N   1      20.758  16.217   5.840  0.00  0.00     0.163 HD
ENDBRANCH   2   5
ENDBRANCH   1   2
BRANCH   1  10
HETATM   10  O   UNK N   1      21.182  16.804   2.780  0.00  0.00    -0.390 OA
HETATM   11  H   UNK N   1      22.136  16.935   2.657  0.00  0.00     0.210 HD
ENDBRANCH   1  10
BRANCH   1  12
HETATM   12  C   UNK N   1      19.836  18.792   2.808  0.00  0.00     0.180 C 
BRANCH  12  13
HETATM   13  O   UNK N   1      18.506  18.571   2.437  0.00  0.00    -0.390 OA
HETATM   14  H   UNK N   1      17.693  19.052   2.659  0.00  0.00     0.210 HD
ENDBRANCH  12  13
BRANCH  12  15
HETATM   15  C   UNK N   1      20.684  19.102   1.566  0.00  0.00     0.173 C 
BRANCH  15  16
HETATM   16  O   UNK N   1      20.250  18.379   0.453  0.00  0.00    -0.391 OA
HETATM   17  H   UNK N   1      19.960  18.182  -0.452  0.00  0.00     0.210 HD
ENDBRANCH  15  16
BRANCH  15  18
HETATM   18  C   UNK N   1      20.736  20.594   1.254  0.00  0.00     0.198 C 
BRANCH  18  19
HETATM   19  O   UNK N   1      20.595  20.826  -0.115  0.00  0.00    -0.398 OA
HETATM   20  H   UNK N   1      19.852  20.651  -0.714  0.00  0.00     0.209 HD
ENDBRANCH  18  19
ENDBRANCH  15  18
ENDBRANCH  12  15
ENDBRANCH   1  12
TORSDOF 10
ENDMDL
MODEL 2
REMARK VINA RESULT:      -5.2     12.548     15.046
REMARK  10 active torsions:
REMARK  status: ('A' for Active; 'I' for Inactive)
REMARK    1  A    between atoms: C_2  and  C_1 
REMARK    2  A    between atoms: C_2  and  N_12 
REMARK    3  A    between atoms: C_3  and  C_2 
REMARK    4  A    between atoms: C_3  and  O_7 
REMARK    5  A    between atoms: C_4  and  C_3 
REMARK    6  A    between atoms: C_4  and  O_8 
REMARK    7  A    between atoms: C_5  and  C_4 
REMARK    8  A    between atoms: C_5  and  O_9 
REMARK    9  A    between atoms: C_10  and  C_5 
REMARK   10  A    between atoms: C_10  and  O_11 
REMARK       I    between atoms: N_12  and  C_13 
ROOT
HETATM    1  C   UNK N   1      34.423  16.865   9.527  0.00  0.00     0.178 C 
ENDROOT
BRANCH   1   2
HETATM    2  C   UNK N   1      33.326  17.042   8.454  0.00  0.00     0.177 C 
BRANCH   2   3
HETATM    3  C   UNK N   1      33.751  18.045   7.409  0.00  0.00     0.258 C 
HETATM    4  O   UNK N   1      34.566  17.737   6.555  0.00  0.00    -0.305 OA
ENDBRANCH   2   3
BRANCH   2   5
HETATM    5  N   UNK N   1      32.069  17.426   9.071  0.00  0.00    -0.348 N 
HETATM    6  C   UNK N   1      30.850  17.048   8.604  0.00  0.00     0.214 C 
HETATM    7  O   UNK N   1      30.742  16.403   7.574  0.00  0.00    -0.274 OA
HETATM    8  C   UNK N   1      29.627  17.422   9.368  0.00  0.00     0.117 C 
HETATM    9  H   UNK N   1      32.102  17.993   9.875  0.00  0.00     0.163 HD
ENDBRANCH   2   5
ENDBRANCH   1   2
BRANCH   1  10
HETATM   10  O   UNK N   1      35.286  17.965   9.488  0.00  0.00    -0.390 OA
HETATM   11  H   UNK N   1      35.217  18.746  10.059  0.00  0.00     0.210 HD
ENDBRANCH   1  10
BRANCH   1  12
HETATM   12  C   UNK N   1      35.227  15.571   9.317  0.00  0.00     0.180 C 
BRANCH  12  13
HETATM   13  O   UNK N   1      34.374  14.541   8.908  0.00  0.00    -0.390 OA
HETATM   14  H   UNK N   1      33.422  14.410   9.042  0.00  0.00     0.210 HD
ENDBRANCH  12  13
BRANCH  12  15
HETATM   15  C   UNK N   1      36.004  15.145  10.571  0.00  0.00     0.173 C 
BRANCH  15  16
HETATM   16  O   UNK N   1      37.116  15.962  10.788  0.00  0.00    -0.391 OA
HETATM   17  H   UNK N   1      37.671  16.672  11.147  0.00  0.00     0.210 HD
ENDBRANCH  15  16
BRANCH  15  18
HETATM   18  C   UNK N   1      35.122  15.093  11.813  0.00  0.00     0.198 C 
BRANCH  18  19
HETATM   19  O   UNK N   1      34.206  14.043  11.736  0.00  0.00    -0.398 OA
HETATM   20  H   UNK N   1      34.308  13.136  11.405  0.00  0.00     0.209 HD
ENDBRANCH  18  19
ENDBRANCH  15  18
ENDBRANCH  12  15
ENDBRANCH   1  12
TORSDOF 10
ENDMDL
MODEL 3
REMARK VINA RESULT:      -5.2     12.405     14.854
REMARK  10 active torsions:
REMARK  status: ('A' for Active; 'I' for Inactive)
REMARK    1  A    between atoms: C_2  and  C_1 
REMARK    2  A    between atoms: C_2  and  N_12 
REMARK    3  A    between atoms: C_3  and  C_2 
REMARK    4  A    between atoms: C_3  and  O_7 
REMARK    5  A    between atoms: C_4  and  C_3 
REMARK    6  A    between atoms: C_4  and  O_8 
REMARK    7  A    between atoms: C_5  and  C_4 
REMARK    8  A    between atoms: C_5  and  O_9 
REMARK    9  A    between atoms: C_10  and  C_5 
REMARK   10  A    between atoms: C_10  and  O_11 
REMARK       I    between atoms: N_12  and  C_13 
ROOT
HETATM    1  C   UNK N   1      33.221  15.324   9.125  0.00  0.00     0.178 C 
ENDROOT
BRANCH   1   2
HETATM    2  C   UNK N   1      33.002  16.662   8.385  0.00  0.00     0.177 C 
BRANCH   2   3
HETATM    3  C   UNK N   1      34.309  17.394   8.197  0.00  0.00     0.258 C 
HETATM    4  O   UNK N   1      34.528  18.006   7.164  0.00  0.00    -0.305 OA
ENDBRANCH   2   3
BRANCH   2   5
HETATM    5  N   UNK N   1      32.036  17.482   9.094  0.00  0.00    -0.348 N 
HETATM    6  C   UNK N   1      30.831  17.846   8.583  0.00  0.00     0.214 C 
HETATM    7  O   UNK N   1      30.516  17.549   7.442  0.00  0.00    -0.274 OA
HETATM    8  C   UNK N   1      29.878  18.613   9.433  0.00  0.00     0.117 C 
HETATM    9  H   UNK N   1      32.269  17.793   9.999  0.00  0.00     0.163 HD
ENDBRANCH   2   5
ENDBRANCH   1   2
BRANCH   1  10
HETATM   10  O   UNK N   1      32.276  15.206  10.149  0.00  0.00    -0.390 OA
HETATM   11  H   UNK N   1      32.395  15.530  11.056  0.00  0.00     0.210 HD
ENDBRANCH   1  10
BRANCH   1  12
HETATM   12  C   UNK N   1      34.637  15.221   9.717  0.00  0.00     0.180 C 
BRANCH  12  13
HETATM   13  O   UNK N   1      35.278  14.082   9.219  0.00  0.00    -0.390 OA
HETATM   14  H   UNK N   1      34.924  13.285   8.793  0.00  0.00     0.210 HD
ENDBRANCH  12  13
BRANCH  12  15
HETATM   15  C   UNK N   1      34.639  15.199  11.251  0.00  0.00     0.173 C 
BRANCH  15  16
HETATM   16  O   UNK N   1      34.192  13.972  11.748  0.00  0.00    -0.391 OA
HETATM   17  H   UNK N   1      34.041  13.017  11.821  0.00  0.00     0.210 HD
ENDBRANCH  15  16
BRANCH  15  18
HETATM   18  C   UNK N   1      36.001  15.554  11.838  0.00  0.00     0.198 C 
BRANCH  18  19
HETATM   19  O   UNK N   1      36.837  16.110  10.868  0.00  0.00    -0.398 OA
HETATM   20  H   UNK N   1      36.883  15.960   9.910  0.00  0.00     0.209 HD
ENDBRANCH  18  19
ENDBRANCH  15  18
ENDBRANCH  12  15
ENDBRANCH   1  12
TORSDOF 10
ENDMDL
MODEL 4
REMARK VINA RESULT:      -5.1     13.984     16.032
REMARK  10 active torsions:
REMARK  status: ('A' for Active; 'I' for Inactive)
REMARK    1  A    between atoms: C_2  and  C_1 
REMARK    2  A    between atoms: C_2  and  N_12 
REMARK    3  A    between atoms: C_3  and  C_2 
REMARK    4  A    between atoms: C_3  and  O_7 
REMARK    5  A    between atoms: C_4  and  C_3 
REMARK    6  A    between atoms: C_4  and  O_8 
REMARK    7  A    between atoms: C_5  and  C_4 
REMARK    8  A    between atoms: C_5  and  O_9 
REMARK    9  A    between atoms: C_10  and  C_5 
REMARK   10  A    between atoms: C_10  and  O_11 
REMARK       I    between atoms: N_12  and  C_13 
ROOT
HETATM    1  C   UNK N   1      34.511  16.702   9.962  0.00  0.00     0.178 C 
ENDROOT
BRANCH   1   2
HETATM    2  C   UNK N   1      34.707  16.968   8.454  0.00  0.00     0.177 C 
BRANCH   2   3
HETATM    3  C   UNK N   1      34.501  18.428   8.133  0.00  0.00     0.258 C 
HETATM    4  O   UNK N   1      35.305  19.263   8.516  0.00  0.00    -0.305 OA
ENDBRANCH   2   3
BRANCH   2   5
HETATM    5  N   UNK N   1      33.820  16.127   7.670  0.00  0.00    -0.348 N 
HETATM    6  C   UNK N   1      34.147  15.600   6.462  0.00  0.00     0.214 C 
HETATM    7  O   UNK N   1      35.209  15.868   5.925  0.00  0.00    -0.274 OA
HETATM    8  C   UNK N   1      33.195  14.674   5.786  0.00  0.00     0.117 C 
HETATM    9  H   UNK N   1      32.928  15.926   8.038  0.00  0.00     0.163 HD
ENDBRANCH   2   5
ENDBRANCH   1   2
BRANCH   1  10
HETATM   10  O   UNK N   1      35.654  17.118  10.654  0.00  0.00    -0.390 OA
HETATM   11  H   UNK N   1      36.403  17.590  10.257  0.00  0.00     0.210 HD
ENDBRANCH   1  10
BRANCH   1  12
HETATM   12  C   UNK N   1      34.247  15.215  10.253  0.00  0.00     0.180 C 
BRANCH  12  13
HETATM   13  O   UNK N   1      32.895  15.023  10.557  0.00  0.00    -0.390 OA
HETATM   14  H   UNK N   1      32.166  15.656  10.653  0.00  0.00     0.210 HD
ENDBRANCH  12  13
BRANCH  12  15
HETATM   15  C   UNK N   1      35.125  14.667  11.387  0.00  0.00     0.173 C 
BRANCH  15  16
HETATM   16  O   UNK N   1      34.389  13.871  12.268  0.00  0.00    -0.391 OA
HETATM   17  H   UNK N   1      33.654  13.356  12.637  0.00  0.00     0.210 HD
ENDBRANCH  15  16
BRANCH  15  18
HETATM   18  C   UNK N   1      36.343  13.910  10.867  0.00  0.00     0.198 C 
BRANCH  18  19
HETATM   19  O   UNK N   1      37.442  14.761  10.728  0.00  0.00    -0.398 OA
HETATM   20  H   UNK N   1      37.868  15.119   9.934  0.00  0.00     0.209 HD
ENDBRANCH  18  19
ENDBRANCH  15  18
ENDBRANCH  12  15
ENDBRANCH   1  12
TORSDOF 10
ENDMDL
MODEL 5
REMARK VINA RESULT:      -5.0     13.573     15.541
REMARK  10 active torsions:
REMARK  status: ('A' for Active; 'I' for Inactive)
REMARK    1  A    between atoms: C_2  and  C_1 
REMARK    2  A    between atoms: C_2  and  N_12 
REMARK    3  A    between atoms: C_3  and  C_2 
REMARK    4  A    between atoms: C_3  and  O_7 
REMARK    5  A    between atoms: C_4  and  C_3 
REMARK    6  A    between atoms: C_4  and  O_8 
REMARK    7  A    between atoms: C_5  and  C_4 
REMARK    8  A    between atoms: C_5  and  O_9 
REMARK    9  A    between atoms: C_10  and  C_5 
REMARK   10  A    between atoms: C_10  and  O_11 
REMARK       I    between atoms: N_12  and  C_13 
ROOT
HETATM    1  C   UNK N   1      33.127  15.990   8.705  0.00  0.00     0.178 C 
ENDROOT
BRANCH   1   2
HETATM    2  C   UNK N   1      34.029  16.555   7.585  0.00  0.00     0.177 C 
BRANCH   2   3
HETATM    3  C   UNK N   1      33.901  18.057   7.496  0.00  0.00     0.258 C 
HETATM    4  O   UNK N   1      34.669  18.778   8.113  0.00  0.00    -0.305 OA
ENDBRANCH   2   3
BRANCH   2   5
HETATM    5  N   UNK N   1      33.717  15.925   6.315  0.00  0.00    -0.348 N 
HETATM    6  C   UNK N   1      34.644  15.349   5.507  0.00  0.00     0.214 C 
HETATM    7  O   UNK N   1      35.832  15.391   5.783  0.00  0.00    -0.274 OA
HETATM    8  C   UNK N   1      34.202  14.649   4.269  0.00  0.00     0.117 C 
HETATM    9  H   UNK N   1      32.776  15.914   6.022  0.00  0.00     0.163 HD
ENDBRANCH   2   5
ENDBRANCH   1   2
BRANCH   1  10
HETATM   10  O   UNK N   1      32.384  17.034   9.266  0.00  0.00    -0.390 OA
HETATM   11  H   UNK N   1      32.608  17.497  10.088  0.00  0.00     0.210 HD
ENDBRANCH   1  10
BRANCH   1  12
HETATM   12  C   UNK N   1      33.946  15.292   9.803  0.00  0.00     0.180 C 
BRANCH  12  13
HETATM   13  O   UNK N   1      33.166  15.141  10.954  0.00  0.00    -0.390 OA
HETATM   14  H   UNK N   1      32.750  14.356  11.345  0.00  0.00     0.210 HD
ENDBRANCH  12  13
BRANCH  12  15
HETATM   15  C   UNK N   1      35.244  16.039  10.141  0.00  0.00     0.173 C 
BRANCH  15  16
HETATM   16  O   UNK N   1      34.992  17.206  10.867  0.00  0.00    -0.391 OA
HETATM   17  H   UNK N   1      34.511  17.953  11.256  0.00  0.00     0.210 HD
ENDBRANCH  15  16
BRANCH  15  18
HETATM   18  C   UNK N   1      36.251  15.157  10.871  0.00  0.00     0.198 C 
BRANCH  18  19
HETATM   19  O   UNK N   1      37.561  15.511  10.543  0.00  0.00    -0.398 OA
HETATM   20  H   UNK N   1      38.108  16.256  10.838  0.00  0.00     0.209 HD
ENDBRANCH  18  19
ENDBRANCH  15  18
ENDBRANCH  12  15
ENDBRANCH   1  12
TORSDOF 10
ENDMDL
MODEL 6
REMARK VINA RESULT:      -5.0     14.605     16.674
REMARK  10 active torsions:
REMARK  status: ('A' for Active; 'I' for Inactive)
REMARK    1  A    between atoms: C_2  and  C_1 
REMARK    2  A    between atoms: C_2  and  N_12 
REMARK    3  A    between atoms: C_3  and  C_2 
REMARK    4  A    between atoms: C_3  and  O_7 
REMARK    5  A    between atoms: C_4  and  C_3 
REMARK    6  A    between atoms: C_4  and  O_8 
REMARK    7  A    between atoms: C_5  and  C_4 
REMARK    8  A    between atoms: C_5  and  O_9 
REMARK    9  A    between atoms: C_10  and  C_5 
REMARK   10  A    between atoms: C_10  and  O_11 
REMARK       I    between atoms: N_12  and  C_13 
ROOT
HETATM    1  C   UNK N   1      34.741  15.502  11.182  0.00  0.00     0.178 C 
ENDROOT
BRANCH   1   2
HETATM    2  C   UNK N   1      35.685  14.305  11.431  0.00  0.00     0.177 C 
BRANCH   2   3
HETATM    3  C   UNK N   1      35.807  14.013  12.907  0.00  0.00     0.258 C 
HETATM    4  O   UNK N   1      34.845  13.602  13.535  0.00  0.00    -0.305 OA
ENDBRANCH   2   3
BRANCH   2   5
HETATM    5  N   UNK N   1      36.986  14.552  10.834  0.00  0.00    -0.348 N 
HETATM    6  C   UNK N   1      37.630  13.668  10.029  0.00  0.00     0.214 C 
HETATM    7  O   UNK N   1      37.165  12.561   9.811  0.00  0.00    -0.274 OA
HETATM    8  C   UNK N   1      38.919  14.062   9.395  0.00  0.00     0.117 C 
HETATM    9  H   UNK N   1      37.427  15.412  11.025  0.00  0.00     0.163 HD
ENDBRANCH   2   5
ENDBRANCH   1   2
BRANCH   1  10
HETATM   10  O   UNK N   1      33.423  15.038  11.105  0.00  0.00    -0.390 OA
HETATM   11  H   UNK N   1      33.131  14.149  11.361  0.00  0.00     0.210 HD
ENDBRANCH   1  10
BRANCH   1  12
HETATM   12  C   UNK N   1      35.097  16.256   9.890  0.00  0.00     0.180 C 
BRANCH  12  13
HETATM   13  O   UNK N   1      35.568  17.536  10.201  0.00  0.00    -0.390 OA
HETATM   14  H   UNK N   1      36.328  17.825  10.729  0.00  0.00     0.210 HD
ENDBRANCH  12  13
BRANCH  12  15
HETATM   15  C   UNK N   1      33.917  16.351   8.913  0.00  0.00     0.173 C 
BRANCH  15  16
HETATM   16  O   UNK N   1      32.946  17.247   9.366  0.00  0.00    -0.391 OA
HETATM   17  H   UNK N   1      32.086  17.594   9.653  0.00  0.00     0.210 HD
ENDBRANCH  15  16
BRANCH  15  18
HETATM   18  C   UNK N   1      34.359  16.706   7.498  0.00  0.00     0.198 C 
BRANCH  18  19
HETATM   19  O   UNK N   1      34.644  18.068   7.386  0.00  0.00    -0.398 OA
HETATM   20  H   UNK N   1      34.179  18.843   7.740  0.00  0.00     0.209 HD
ENDBRANCH  18  19
ENDBRANCH  15  18
ENDBRANCH  12  15
ENDBRANCH   1  12
TORSDOF 10
ENDMDL
MODEL 7
REMARK VINA RESULT:      -5.0     14.618     16.462
REMARK  10 active torsions:
REMARK  status: ('A' for Active; 'I' for Inactive)
REMARK    1  A    between atoms: C_2  and  C_1 
REMARK    2  A    between atoms: C_2  and  N_12 
REMARK    3  A    between atoms: C_3  and  C_2 
REMARK    4  A    between atoms: C_3  and  O_7 
REMARK    5  A    between atoms: C_4  and  C_3 
REMARK    6  A    between atoms: C_4  and  O_8 
REMARK    7  A    between atoms: C_5  and  C_4 
REMARK    8  A    between atoms: C_5  and  O_9 
REMARK    9  A    between atoms: C_10  and  C_5 
REMARK   10  A    between atoms: C_10  and  O_11 
REMARK       I    between atoms: N_12  and  C_13 
ROOT
HETATM    1  C   UNK N   1      35.043  15.509  11.238  0.00  0.00     0.178 C 
ENDROOT
BRANCH   1   2
HETATM    2  C   UNK N   1      36.065  14.358  11.364  0.00  0.00     0.177 C 
BRANCH   2   3
HETATM    3  C   UNK N   1      35.416  13.027  11.064  0.00  0.00     0.258 C 
HETATM    4  O   UNK N   1      35.066  12.756   9.927  0.00  0.00    -0.305 OA
ENDBRANCH   2   3
BRANCH   2   5
HETATM    5  N   UNK N   1      36.673  14.361  12.683  0.00  0.00    -0.348 N 
HETATM    6  C   UNK N   1      36.039  13.949  13.811  0.00  0.00     0.214 C 
HETATM    7  O   UNK N   1      34.868  13.606  13.785  0.00  0.00    -0.274 OA
HETATM    8  C   UNK N   1      36.789  13.907  15.097  0.00  0.00     0.117 C 
HETATM    9  H   UNK N   1      37.601  14.681  12.763  0.00  0.00     0.163 HD
ENDBRANCH   2   5
ENDBRANCH   1   2
BRANCH   1  10
HETATM   10  O   UNK N   1      33.749  14.979  11.246  0.00  0.00    -0.390 OA
HETATM   11  H   UNK N   1      33.001  15.329  10.738  0.00  0.00     0.210 HD
ENDBRANCH   1  10
BRANCH   1  12
HETATM   12  C   UNK N   1      35.256  16.326   9.952  0.00  0.00     0.180 C 
BRANCH  12  13
HETATM   13  O   UNK N   1      35.524  17.660  10.275  0.00  0.00    -0.390 OA
HETATM   14  H   UNK N   1      36.268  18.237  10.040  0.00  0.00     0.210 HD
ENDBRANCH  12  13
BRANCH  12  15
HETATM   15  C   UNK N   1      34.061  16.246   8.993  0.00  0.00     0.173 C 
BRANCH  15  16
HETATM   16  O   UNK N   1      33.017  17.079   9.402  0.00  0.00    -0.391 OA
HETATM   17  H   UNK N   1      32.126  17.370   9.653  0.00  0.00     0.210 HD
ENDBRANCH  15  16
BRANCH  15  18
HETATM   18  C   UNK N   1      34.451  16.541   7.549  0.00  0.00     0.198 C 
BRANCH  18  19
HETATM   19  O   UNK N   1      34.635  17.910   7.347  0.00  0.00    -0.398 OA
HETATM   20  H   UNK N   1      35.204  18.547   7.806  0.00  0.00     0.209 HD
ENDBRANCH  18  19
ENDBRANCH  15  18
ENDBRANCH  12  15
ENDBRANCH   1  12
TORSDOF 10
ENDMDL
MODEL 8
REMARK VINA RESULT:      -5.0     16.536     18.420
REMARK  10 active torsions:
REMARK  status: ('A' for Active; 'I' for Inactive)
REMARK    1  A    between atoms: C_2  and  C_1 
REMARK    2  A    between atoms: C_2  and  N_12 
REMARK    3  A    between atoms: C_3  and  C_2 
REMARK    4  A    between atoms: C_3  and  O_7 
REMARK    5  A    between atoms: C_4  and  C_3 
REMARK    6  A    between atoms: C_4  and  O_8 
REMARK    7  A    between atoms: C_5  and  C_4 
REMARK    8  A    between atoms: C_5  and  O_9 
REMARK    9  A    between atoms: C_10  and  C_5 
REMARK   10  A    between atoms: C_10  and  O_11 
REMARK       I    between atoms: N_12  and  C_13 
ROOT
HETATM    1  C   UNK N   1      35.032  13.081  13.072  0.00  0.00     0.178 C 
ENDROOT
BRANCH   1   2
HETATM    2  C   UNK N   1      35.900  12.236  14.030  0.00  0.00     0.177 C 
BRANCH   2   3
HETATM    3  C   UNK N   1      35.986  10.805  13.557  0.00  0.00     0.258 C 
HETATM    4  O   UNK N   1      36.780  10.491  12.685  0.00  0.00    -0.305 OA
ENDBRANCH   2   3
BRANCH   2   5
HETATM    5  N   UNK N   1      35.383  12.313  15.385  0.00  0.00    -0.348 N 
HETATM    6  C   UNK N   1      35.728  13.280  16.274  0.00  0.00     0.214 C 
HETATM    7  O   UNK N   1      36.566  14.122  15.994  0.00  0.00    -0.274 OA
HETATM    8  C   UNK N   1      35.067  13.317  17.608  0.00  0.00     0.117 C 
HETATM    9  H   UNK N   1      34.744  11.622  15.676  0.00  0.00     0.163 HD
ENDBRANCH   2   5
ENDBRANCH   1   2
BRANCH   1  10
HETATM   10  O   UNK N   1      34.383  12.232  12.170  0.00  0.00    -0.390 OA
HETATM   11  H   UNK N   1      33.738  11.550  12.414  0.00  0.00     0.210 HD
ENDBRANCH   1  10
BRANCH   1  12
HETATM   12  C   UNK N   1      35.870  14.112  12.297  0.00  0.00     0.180 C 
BRANCH  12  13
HETATM   13  O   UNK N   1      36.402  15.055  13.182  0.00  0.00    -0.390 OA
HETATM   14  H   UNK N   1      37.022  15.787  13.038  0.00  0.00     0.210 HD
ENDBRANCH  12  13
BRANCH  12  15
HETATM   15  C   UNK N   1      35.071  14.817  11.193  0.00  0.00     0.173 C 
BRANCH  15  16
HETATM   16  O   UNK N   1      33.701  14.812  11.466  0.00  0.00    -0.391 OA
HETATM   17  H   UNK N   1      32.838  14.524  11.804  0.00  0.00     0.210 HD
ENDBRANCH  15  16
BRANCH  15  18
HETATM   18  C   UNK N   1      35.563  16.237  10.932  0.00  0.00     0.198 C 
BRANCH  18  19
HETATM   19  O   UNK N   1      36.948  16.264  10.753  0.00  0.00    -0.398 OA
HETATM   20  H   UNK N   1      37.485  16.139   9.955  0.00  0.00     0.209 HD
ENDBRANCH  18  19
ENDBRANCH  15  18
ENDBRANCH  12  15
ENDBRANCH   1  12
TORSDOF 10
ENDMDL
MODEL 9
REMARK VINA RESULT:      -4.9     10.505     12.516
REMARK  10 active torsions:
REMARK  status: ('A' for Active; 'I' for Inactive)
REMARK    1  A    between atoms: C_2  and  C_1 
REMARK    2  A    between atoms: C_2  and  N_12 
REMARK    3  A    between atoms: C_3  and  C_2 
REMARK    4  A    between atoms: C_3  and  O_7 
REMARK    5  A    between atoms: C_4  and  C_3 
REMARK    6  A    between atoms: C_4  and  O_8 
REMARK    7  A    between atoms: C_5  and  C_4 
REMARK    8  A    between atoms: C_5  and  O_9 
REMARK    9  A    between atoms: C_10  and  C_5 
REMARK   10  A    between atoms: C_10  and  O_11 
REMARK       I    between atoms: N_12  and  C_13 
ROOT
HETATM    1  C   UNK N   1      31.620  16.916   7.787  0.00  0.00     0.178 C 
ENDROOT
BRANCH   1   2
HETATM    2  C   UNK N   1      33.094  17.235   8.118  0.00  0.00     0.177 C 
BRANCH   2   3
HETATM    3  C   UNK N   1      33.969  17.063   6.899  0.00  0.00     0.258 C 
HETATM    4  O   UNK N   1      34.232  18.021   6.190  0.00  0.00    -0.305 OA
ENDBRANCH   2   3
BRANCH   2   5
HETATM    5  N   UNK N   1      33.558  16.411   9.219  0.00  0.00    -0.348 N 
HETATM    6  C   UNK N   1      34.630  16.717   9.996  0.00  0.00     0.214 C 
HETATM    7  O   UNK N   1      35.318  17.697   9.760  0.00  0.00    -0.274 OA
HETATM    8  C   UNK N   1      34.962  15.848  11.158  0.00  0.00     0.117 C 
HETATM    9  H   UNK N   1      33.066  15.580   9.414  0.00  0.00     0.163 HD
ENDBRANCH   2   5
ENDBRANCH   1   2
BRANCH   1  10
HETATM   10  O   UNK N   1      31.415  17.064   6.412  0.00  0.00    -0.390 OA
HETATM   11  H   UNK N   1      31.819  16.509   5.726  0.00  0.00     0.210 HD
ENDBRANCH   1  10
BRANCH   1  12
HETATM   12  C   UNK N   1      30.649  17.829   8.554  0.00  0.00     0.180 C 
BRANCH  12  13
HETATM   13  O   UNK N   1      30.429  17.320   9.838  0.00  0.00    -0.390 OA
HETATM   14  H   UNK N   1      30.298  16.410  10.149  0.00  0.00     0.210 HD
ENDBRANCH  12  13
BRANCH  12  15
HETATM   15  C   UNK N   1      29.311  18.018   7.825  0.00  0.00     0.173 C 
BRANCH  15  16
HETATM   16  O   UNK N   1      28.783  16.798   7.396  0.00  0.00    -0.391 OA
HETATM   17  H   UNK N   1      28.738  15.901   7.028  0.00  0.00     0.210 HD
ENDBRANCH  15  16
BRANCH  15  18
HETATM   18  C   UNK N   1      28.292  18.780   8.666  0.00  0.00     0.198 C 
BRANCH  18  19
HETATM   19  O   UNK N   1      27.497  17.905   9.409  0.00  0.00    -0.398 OA
HETATM   20  H   UNK N   1      27.138  17.031   9.186  0.00  0.00     0.209 HD
ENDBRANCH  18  19
ENDBRANCH  15  18
ENDBRANCH  12  15
ENDBRANCH   1  12
TORSDOF 10
ENDMDL
