MODEL 1
REMARK VINA RESULT:      -9.2      0.000      0.000
REMARK  12 active torsions:
REMARK  status: ('A' for Active; 'I' for Inactive)
REMARK    1  A    between atoms: C_8  and  O_27 
REMARK    2  A    between atoms: C_24  and  C_20 
REMARK    3  A    between atoms: C_28  and  O_27 
REMARK    4  A    between atoms: C_33  and  O_34 
REMARK    5  A    between atoms: C_35  and  O_36 
REMARK    6  A    between atoms: C_37  and  O_36 
REMARK    7  A    between atoms: C_42  and  O_43 
REMARK    8  A    between atoms: C_44  and  O_45 
REMARK    9  A    between atoms: C_46  and  O_45 
REMARK   10  A    between atoms: C_51  and  O_52 
REMARK   11  A    between atoms: C_53  and  O_54 
REMARK   12  A    between atoms: O_54  and  C_55 
ROOT
HETATM    1  C   UNK N   1      26.819  18.595   5.817  0.00  0.00     0.012 C 
HETATM    2  C   UNK N   1      25.787  19.421   5.079  0.00  0.00     0.033 C 
HETATM    3  C   UNK N   1      25.971  17.820   3.073  0.00  0.00     0.037 C 
HETATM    4  C   UNK N   1      28.078  16.446   2.824  0.00  0.00     0.006 C 
HETATM    5  C   UNK N   1      29.136  15.594   3.554  0.00  0.00     0.008 C 
HETATM    6  C   UNK N   1      29.215  17.564   6.950  0.00  0.00     0.007 C 
HETATM    7  C   UNK N   1      32.049  14.960   4.930  0.00  0.00     0.040 C 
HETATM    8  C   UNK N   1      25.065  18.534   4.080  0.00  0.00     0.125 C 
HETATM    9  C   UNK N   1      27.055  17.039   3.806  0.00  0.00    -0.004 C 
HETATM   10  C   UNK N   1      27.794  17.905   4.870  0.00  0.00    -0.036 C 
HETATM   11  C   UNK N   1      28.626  19.027   4.231  0.00  0.00     0.016 C 
HETATM   12  C   UNK N   1      28.672  16.918   5.666  0.00  0.00     0.001 C 
HETATM   13  C   UNK N   1      30.728  15.431   5.561  0.00  0.00     0.070 C 
HETATM   14  O   UNK N   1      30.004  14.292   5.950  0.00  0.00    -0.389 OA
HETATM   15  C   UNK N   1      30.088  16.574   7.710  0.00  0.00     0.013 C 
HETATM   16  C   UNK N   1      31.241  16.188   6.791  0.00  0.00    -0.005 C 
HETATM   17  C   UNK N   1      31.996  17.489   6.397  0.00  0.00     0.019 C 
HETATM   18  C   UNK N   1      32.217  15.175   7.369  0.00  0.00     0.028 C 
HETATM   19  C   UNK N   1      29.792  16.343   4.732  0.00  0.00     0.025 C 
HETATM   20  C   UNK N   1      33.042  14.810   6.126  0.00  0.00     0.013 C 
HETATM   21  H   UNK N   1      29.517  13.557   6.354  0.00  0.00     0.210 HD
ENDROOT
BRANCH  18  22
HETATM   22  C   UNK N   1      32.909  15.725   8.593  0.00  0.00    -0.045 A 
HETATM   23  C   UNK N   1      33.175  14.965   9.879  0.00  0.00     0.213 A 
HETATM   24  O   UNK N   1      34.207  15.695  10.454  0.00  0.00    -0.314 OA
HETATM   25  C   UNK N   1      34.543  16.717   9.663  0.00  0.00     0.283 A 
HETATM   26  C   UNK N   1      33.765  16.734   8.469  0.00  0.00     0.087 A 
HETATM   27  O   UNK N   1      35.478  17.476   9.897  0.00  0.00    -0.260 OA
ENDBRANCH  18  22
BRANCH   8  28
HETATM   28  O   UNK N   1      23.870  17.911   4.513  0.00  0.00    -0.356 OA
BRANCH  28  29
HETATM   29  C   UNK N   1      22.644  18.629   4.351  0.00  0.00     0.263 C 
HETATM   30  C   UNK N   1      21.772  18.271   5.581  0.00  0.00     0.095 C 
HETATM   31  C   UNK N   1      21.508  16.745   5.631  0.00  0.00     0.154 C 
HETATM   32  C   UNK N   1      21.727  16.183   4.230  0.00  0.00     0.182 C 
HETATM   33  C   UNK N   1      21.146  17.119   3.186  0.00  0.00     0.152 C 
HETATM   34  O   UNK N   1      21.925  18.323   3.139  0.00  0.00    -0.354 OA
HETATM   35  C   UNK N   1      21.038  16.482   1.808  0.00  0.00     0.042 C 
BRANCH  31  36
HETATM   36  O   UNK N   1      22.401  16.148   6.520  0.00  0.00    -0.393 OA
HETATM   37  H   UNK N   1      22.549  16.398   7.445  0.00  0.00     0.210 HD
ENDBRANCH  31  36
BRANCH  32  38
HETATM   38  O   UNK N   1      21.700  14.801   4.043  0.00  0.00    -0.351 OA
BRANCH  38  39
HETATM   39  C   UNK N   1      22.954  14.513   3.452  0.00  0.00     0.263 C 
HETATM   40  O   UNK N   1      24.048  14.942   4.276  0.00  0.00    -0.354 OA
HETATM   41  C   UNK N   1      24.712  13.891   4.961  0.00  0.00     0.152 C 
HETATM   42  C   UNK N   1      23.726  12.856   5.517  0.00  0.00     0.182 C 
HETATM   43  C   UNK N   1      25.571  14.482   6.063  0.00  0.00     0.042 C 
HETATM   44  C   UNK N   1      22.999  12.195   4.302  0.00  0.00     0.154 C 
HETATM   45  C   UNK N   1      23.033  13.050   3.043  0.00  0.00     0.095 C 
BRANCH  42  46
HETATM   46  O   UNK N   1      22.841  13.507   6.412  0.00  0.00    -0.351 OA
BRANCH  46  47
HETATM   47  C   UNK N   1      22.886  12.935   7.709  0.00  0.00     0.263 C 
HETATM   48  C   UNK N   1      21.528  12.456   8.262  0.00  0.00     0.096 C 
HETATM   49  C   UNK N   1      21.527  12.568   9.804  0.00  0.00     0.167 C 
HETATM   50  C   UNK N   1      22.902  12.151  10.403  0.00  0.00     0.176 C 
HETATM   51  C   UNK N   1      24.057  12.638   9.522  0.00  0.00     0.151 C 
HETATM   52  O   UNK N   1      23.620  13.656   8.674  0.00  0.00    -0.354 OA
HETATM   53  C   UNK N   1      25.276  13.056  10.316  0.00  0.00     0.042 C 
BRANCH  49  54
HETATM   54  O   UNK N   1      21.243  13.889  10.103  0.00  0.00    -0.313 OA
BRANCH  54  55
HETATM   55  C   UNK N   1      20.157  14.575   9.666  0.00  0.00     0.255 C 
HETATM   56  C   UNK N   1      20.352  15.872   8.963  0.00  0.00     0.126 C 
HETATM   57  O   UNK N   1      19.025  14.157   9.858  0.00  0.00    -0.266 OA
ENDBRANCH  54  55
ENDBRANCH  49  54
BRANCH  50  58
HETATM   58  O   UNK N   1      22.985  10.764  10.525  0.00  0.00    -0.390 OA
HETATM   59  H   UNK N   1      23.372   9.883  10.402  0.00  0.00     0.210 HD
ENDBRANCH  50  58
ENDBRANCH  46  47
ENDBRANCH  42  46
BRANCH  44  60
HETATM   60  O   UNK N   1      21.672  11.867   4.582  0.00  0.00    -0.393 OA
HETATM   61  H   UNK N   1      21.186  11.136   4.995  0.00  0.00     0.210 HD
ENDBRANCH  44  60
ENDBRANCH  38  39
ENDBRANCH  32  38
ENDBRANCH  28  29
ENDBRANCH   8  28
TORSDOF 12
ENDMDL
MODEL 2
REMARK VINA RESULT:      -9.0      2.574      5.902
REMARK  12 active torsions:
REMARK  status: ('A' for Active; 'I' for Inactive)
REMARK    1  A    between atoms: C_8  and  O_27 
REMARK    2  A    between atoms: C_24  and  C_20 
REMARK    3  A    between atoms: C_28  and  O_27 
REMARK    4  A    between atoms: C_33  and  O_34 
REMARK    5  A    between atoms: C_35  and  O_36 
REMARK    6  A    between atoms: C_37  and  O_36 
REMARK    7  A    between atoms: C_42  and  O_43 
REMARK    8  A    between atoms: C_44  and  O_45 
REMARK    9  A    between atoms: C_46  and  O_45 
REMARK   10  A    between atoms: C_51  and  O_52 
REMARK   11  A    between atoms: C_53  and  O_54 
REMARK   12  A    between atoms: O_54  and  C_55 
ROOT
HETATM    1  C   UNK N   1      31.023  16.498   6.358  0.00  0.00     0.012 C 
HETATM    2  C   UNK N   1      30.337  17.325   5.291  0.00  0.00     0.033 C 
HETATM    3  C   UNK N   1      31.859  16.256   3.514  0.00  0.00     0.037 C 
HETATM    4  C   UNK N   1      34.061  15.264   4.259  0.00  0.00     0.006 C 
HETATM    5  C   UNK N   1      34.779  14.416   5.329  0.00  0.00     0.008 C 
HETATM    6  C   UNK N   1      32.700  15.564   8.457  0.00  0.00     0.007 C 
HETATM    7  C   UNK N   1      36.674  13.879   7.955  0.00  0.00     0.040 C 
HETATM    8  C   UNK N   1      30.436  16.599   3.961  0.00  0.00     0.125 C 
HETATM    9  C   UNK N   1      32.580  15.480   4.609  0.00  0.00    -0.004 C 
HETATM   10  C   UNK N   1      32.469  16.174   6.000  0.00  0.00    -0.036 C 
HETATM   11  C   UNK N   1      33.224  17.511   6.045  0.00  0.00     0.016 C 
HETATM   12  C   UNK N   1      33.034  15.157   7.013  0.00  0.00     0.001 C 
HETATM   13  C   UNK N   1      35.148  14.018   7.838  0.00  0.00     0.070 C 
HETATM   14  O   UNK N   1      34.611  12.735   7.639  0.00  0.00    -0.389 OA
HETATM   15  C   UNK N   1      33.278  14.552   9.437  0.00  0.00     0.013 C 
HETATM   16  C   UNK N   1      34.789  14.539   9.235  0.00  0.00    -0.005 C 
HETATM   17  C   UNK N   1      35.317  15.983   9.466  0.00  0.00     0.019 C 
HETATM   18  C   UNK N   1      35.551  13.560  10.114  0.00  0.00     0.028 C 
HETATM   19  C   UNK N   1      34.567  14.961   6.757  0.00  0.00     0.025 C 
HETATM   20  C   UNK N   1      36.943  13.596   9.467  0.00  0.00     0.013 C 
HETATM   21  H   UNK N   1      34.172  11.870   7.628  0.00  0.00     0.210 HD
ENDROOT
BRANCH  18  22
HETATM   22  C   UNK N   1      35.393  13.906  11.574  0.00  0.00    -0.045 A 
HETATM   23  C   UNK N   1      34.626  13.095  12.602  0.00  0.00     0.213 A 
HETATM   24  O   UNK N   1      35.171  13.533  13.802  0.00  0.00    -0.314 OA
HETATM   25  C   UNK N   1      36.121  14.442  13.570  0.00  0.00     0.283 A 
HETATM   26  C   UNK N   1      36.305  14.664  12.174  0.00  0.00     0.087 A 
HETATM   27  O   UNK N   1      36.817  14.936  14.453  0.00  0.00    -0.260 OA
ENDBRANCH  18  22
BRANCH   8  28
HETATM   28  O   UNK N   1      29.364  15.742   3.611  0.00  0.00    -0.356 OA
BRANCH  28  29
HETATM   29  C   UNK N   1      29.626  14.689   2.680  0.00  0.00     0.263 C 
HETATM   30  C   UNK N   1      28.510  14.779   1.608  0.00  0.00     0.095 C 
HETATM   31  C   UNK N   1      27.117  14.597   2.261  0.00  0.00     0.154 C 
HETATM   32  C   UNK N   1      27.312  13.887   3.597  0.00  0.00     0.182 C 
HETATM   33  C   UNK N   1      28.347  12.784   3.466  0.00  0.00     0.152 C 
HETATM   34  O   UNK N   1      29.641  13.367   3.258  0.00  0.00    -0.354 OA
HETATM   35  C   UNK N   1      28.359  11.833   4.654  0.00  0.00     0.042 C 
BRANCH  31  36
HETATM   36  O   UNK N   1      26.538  15.846   2.475  0.00  0.00    -0.393 OA
HETATM   37  H   UNK N   1      25.673  16.145   2.153  0.00  0.00     0.210 HD
ENDBRANCH  31  36
BRANCH  32  38
HETATM   38  O   UNK N   1      26.219  13.741   4.452  0.00  0.00    -0.351 OA
BRANCH  38  39
HETATM   39  C   UNK N   1      26.632  14.385   5.644  0.00  0.00     0.263 C 
HETATM   40  O   UNK N   1      26.967  15.763   5.423  0.00  0.00    -0.354 OA
HETATM   41  C   UNK N   1      25.988  16.683   5.879  0.00  0.00     0.152 C 
HETATM   42  C   UNK N   1      24.563  16.207   5.566  0.00  0.00     0.182 C 
HETATM   43  C   UNK N   1      26.262  18.044   5.264  0.00  0.00     0.042 C 
HETATM   44  C   UNK N   1      24.323  14.884   6.361  0.00  0.00     0.154 C 
HETATM   45  C   UNK N   1      25.611  14.174   6.751  0.00  0.00     0.095 C 
BRANCH  42  46
HETATM   46  O   UNK N   1      24.435  16.049   4.164  0.00  0.00    -0.351 OA
BRANCH  46  47
HETATM   47  C   UNK N   1      23.200  16.554   3.686  0.00  0.00     0.263 C 
HETATM   48  C   UNK N   1      22.719  17.856   4.359  0.00  0.00     0.096 C 
HETATM   49  C   UNK N   1      21.174  17.904   4.352  0.00  0.00     0.167 C 
HETATM   50  C   UNK N   1      20.596  17.356   3.015  0.00  0.00     0.176 C 
HETATM   51  C   UNK N   1      21.405  16.154   2.516  0.00  0.00     0.151 C 
HETATM   52  O   UNK N   1      22.157  15.613   3.560  0.00  0.00    -0.354 OA
HETATM   53  C   UNK N   1      20.554  15.104   1.836  0.00  0.00     0.042 C 
BRANCH  49  54
HETATM   54  O   UNK N   1      20.752  17.132   5.421  0.00  0.00    -0.313 OA
BRANCH  54  55
HETATM   55  C   UNK N   1      20.980  17.411   6.729  0.00  0.00     0.255 C 
HETATM   56  C   UNK N   1      21.107  16.291   7.700  0.00  0.00     0.126 C 
HETATM   57  O   UNK N   1      21.063  18.565   7.124  0.00  0.00    -0.266 OA
ENDBRANCH  54  55
ENDBRANCH  49  54
BRANCH  50  58
HETATM   58  O   UNK N   1      20.609  18.346   2.032  0.00  0.00    -0.390 OA
HETATM   59  H   UNK N   1      20.719  19.239   1.673  0.00  0.00     0.210 HD
ENDBRANCH  50  58
ENDBRANCH  46  47
ENDBRANCH  42  46
BRANCH  44  60
HETATM   60  O   UNK N   1      23.509  13.983   5.674  0.00  0.00    -0.393 OA
HETATM   61  H   UNK N   1      23.567  13.423   4.884  0.00  0.00     0.210 HD
ENDBRANCH  44  60
ENDBRANCH  38  39
ENDBRANCH  32  38
ENDBRANCH  28  29
ENDBRANCH   8  28
TORSDOF 12
ENDMDL
MODEL 3
REMARK VINA RESULT:      -9.0      6.793     12.905
REMARK  12 active torsions:
REMARK  status: ('A' for Active; 'I' for Inactive)
REMARK    1  A    between atoms: C_8  and  O_27 
REMARK    2  A    between atoms: C_24  and  C_20 
REMARK    3  A    between atoms: C_28  and  O_27 
REMARK    4  A    between atoms: C_33  and  O_34 
REMARK    5  A    between atoms: C_35  and  O_36 
REMARK    6  A    between atoms: C_37  and  O_36 
REMARK    7  A    between atoms: C_42  and  O_43 
REMARK    8  A    between atoms: C_44  and  O_45 
REMARK    9  A    between atoms: C_46  and  O_45 
REMARK   10  A    between atoms: C_51  and  O_52 
REMARK   11  A    between atoms: C_53  and  O_54 
REMARK   12  A    between atoms: O_54  and  C_55 
ROOT
HETATM    1  C   UNK N   1      35.141  12.792  13.844  0.00  0.00     0.012 C 
HETATM    2  C   UNK N   1      35.590  13.817  12.824  0.00  0.00     0.033 C 
HETATM    3  C   UNK N   1      37.510  12.253  12.129  0.00  0.00     0.037 C 
HETATM    4  C   UNK N   1      38.290  10.503  13.778  0.00  0.00     0.006 C 
HETATM    5  C   UNK N   1      37.855   9.448  14.815  0.00  0.00     0.008 C 
HETATM    6  C   UNK N   1      34.686  11.294  16.218  0.00  0.00     0.007 C 
HETATM    7  C   UNK N   1      37.324   8.235  17.819  0.00  0.00     0.040 C 
HETATM    8  C   UNK N   1      36.317  13.108  11.696  0.00  0.00     0.125 C 
HETATM    9  C   UNK N   1      37.082  11.262  13.205  0.00  0.00    -0.004 C 
HETATM   10  C   UNK N   1      36.298  11.946  14.364  0.00  0.00    -0.036 C 
HETATM   11  C   UNK N   1      37.182  12.900  15.182  0.00  0.00     0.016 C 
HETATM   12  C   UNK N   1      35.744  10.792  15.224  0.00  0.00     0.001 C 
HETATM   13  C   UNK N   1      36.367   8.939  16.844  0.00  0.00     0.070 C 
HETATM   14  O   UNK N   1      35.752   7.953  16.054  0.00  0.00    -0.389 OA
HETATM   15  C   UNK N   1      34.165  10.139  17.062  0.00  0.00     0.013 C 
HETATM   16  C   UNK N   1      35.355   9.557  17.816  0.00  0.00    -0.005 C 
HETATM   17  C   UNK N   1      35.989  10.694  18.665  0.00  0.00     0.019 C 
HETATM   18  C   UNK N   1      35.038   8.362  18.702  0.00  0.00     0.028 C 
HETATM   19  C   UNK N   1      36.932  10.031  15.906  0.00  0.00     0.025 C 
HETATM   20  C   UNK N   1      36.448   7.870  19.060  0.00  0.00     0.013 C 
HETATM   21  H   UNK N   1      35.203   7.318  15.569  0.00  0.00     0.210 HD
ENDROOT
BRANCH  18  22
HETATM   22  C   UNK N   1      34.075   8.742  19.801  0.00  0.00    -0.045 A 
HETATM   23  C   UNK N   1      32.567   8.579  19.757  0.00  0.00     0.213 A 
HETATM   24  O   UNK N   1      32.221   8.598  21.102  0.00  0.00    -0.314 OA
HETATM   25  C   UNK N   1      33.315   8.731  21.856  0.00  0.00     0.283 A 
HETATM   26  C   UNK N   1      34.497   8.785  21.061  0.00  0.00     0.087 A 
HETATM   27  O   UNK N   1      33.300   8.700  23.083  0.00  0.00    -0.260 OA
ENDBRANCH  18  22
BRANCH   8  28
HETATM   28  O   UNK N   1      35.546  12.719  10.573  0.00  0.00    -0.356 OA
BRANCH  28  29
HETATM   29  C   UNK N   1      36.241  12.288   9.401  0.00  0.00     0.263 C 
HETATM   30  C   UNK N   1      37.204  13.442   9.025  0.00  0.00     0.095 C 
HETATM   31  C   UNK N   1      36.407  14.740   8.741  0.00  0.00     0.154 C 
HETATM   32  C   UNK N   1      34.970  14.348   8.413  0.00  0.00     0.182 C 
HETATM   33  C   UNK N   1      34.945  13.117   7.526  0.00  0.00     0.152 C 
HETATM   34  O   UNK N   1      35.390  11.979   8.278  0.00  0.00    -0.354 OA
HETATM   35  C   UNK N   1      33.582  12.861   6.899  0.00  0.00     0.042 C 
BRANCH  31  36
HETATM   36  O   UNK N   1      36.424  15.553   9.873  0.00  0.00    -0.393 OA
HETATM   37  H   UNK N   1      36.943  16.363   9.996  0.00  0.00     0.210 HD
ENDBRANCH  31  36
BRANCH  32  38
HETATM   38  O   UNK N   1      34.011  15.352   8.267  0.00  0.00    -0.351 OA
BRANCH  38  39
HETATM   39  C   UNK N   1      34.698  16.381   7.579  0.00  0.00     0.263 C 
HETATM   40  O   UNK N   1      34.438  16.351   6.168  0.00  0.00    -0.354 OA
HETATM   41  C   UNK N   1      33.545  17.356   5.716  0.00  0.00     0.152 C 
HETATM   42  C   UNK N   1      32.370  17.555   6.682  0.00  0.00     0.182 C 
HETATM   43  C   UNK N   1      33.059  16.999   4.323  0.00  0.00     0.042 C 
HETATM   44  C   UNK N   1      32.955  18.067   8.037  0.00  0.00     0.154 C 
HETATM   45  C   UNK N   1      34.428  17.732   8.222  0.00  0.00     0.095 C 
BRANCH  42  46
HETATM   46  O   UNK N   1      31.669  16.330   6.803  0.00  0.00    -0.351 OA
BRANCH  46  47
HETATM   47  C   UNK N   1      30.265  16.526   6.839  0.00  0.00     0.263 C 
HETATM   48  C   UNK N   1      29.534  16.287   5.502  0.00  0.00     0.096 C 
HETATM   49  C   UNK N   1      28.279  17.186   5.428  0.00  0.00     0.167 C 
HETATM   50  C   UNK N   1      27.559  17.268   6.804  0.00  0.00     0.176 C 
HETATM   51  C   UNK N   1      28.571  17.326   7.954  0.00  0.00     0.151 C 
HETATM   52  O   UNK N   1      29.824  17.707   7.472  0.00  0.00    -0.354 OA
HETATM   53  C   UNK N   1      28.121  18.203   9.101  0.00  0.00     0.042 C 
BRANCH  49  54
HETATM   54  O   UNK N   1      28.715  18.438   5.027  0.00  0.00    -0.313 OA
BRANCH  54  55
HETATM   55  C   UNK N   1      27.911  19.481   4.703  0.00  0.00     0.255 C 
HETATM   56  C   UNK N   1      27.844  20.656   5.614  0.00  0.00     0.126 C 
HETATM   57  O   UNK N   1      27.228  19.464   3.689  0.00  0.00    -0.266 OA
ENDBRANCH  54  55
ENDBRANCH  49  54
BRANCH  50  58
HETATM   58  O   UNK N   1      26.729  16.162   6.992  0.00  0.00    -0.390 OA
HETATM   59  H   UNK N   1      26.292  15.455   7.491  0.00  0.00     0.210 HD
ENDBRANCH  50  58
ENDBRANCH  46  47
ENDBRANCH  42  46
BRANCH  44  60
HETATM   60  O   UNK N   1      32.248  17.593   9.143  0.00  0.00    -0.393 OA
HETATM   61  H   UNK N   1      32.277  16.826   9.736  0.00  0.00     0.210 HD
ENDBRANCH  44  60
ENDBRANCH  38  39
ENDBRANCH  32  38
ENDBRANCH  28  29
ENDBRANCH   8  28
TORSDOF 12
ENDMDL
MODEL 4
REMARK VINA RESULT:      -8.9      4.386     12.170
REMARK  12 active torsions:
REMARK  status: ('A' for Active; 'I' for Inactive)
REMARK    1  A    between atoms: C_8  and  O_27 
REMARK    2  A    between atoms: C_24  and  C_20 
REMARK    3  A    between atoms: C_28  and  O_27 
REMARK    4  A    between atoms: C_33  and  O_34 
REMARK    5  A    between atoms: C_35  and  O_36 
REMARK    6  A    between atoms: C_37  and  O_36 
REMARK    7  A    between atoms: C_42  and  O_43 
REMARK    8  A    between atoms: C_44  and  O_45 
REMARK    9  A    between atoms: C_46  and  O_45 
REMARK   10  A    between atoms: C_51  and  O_52 
REMARK   11  A    between atoms: C_53  and  O_54 
REMARK   12  A    between atoms: O_54  and  C_55 
ROOT
HETATM    1  C   UNK N   1      31.203  14.975   5.264  0.00  0.00     0.012 C 
HETATM    2  C   UNK N   1      32.596  14.387   5.190  0.00  0.00     0.033 C 
HETATM    3  C   UNK N   1      33.182  15.546   7.410  0.00  0.00     0.037 C 
HETATM    4  C   UNK N   1      31.828  17.565   8.103  0.00  0.00     0.006 C 
HETATM    5  C   UNK N   1      30.418  18.181   8.196  0.00  0.00     0.008 C 
HETATM    6  C   UNK N   1      28.880  16.586   4.954  0.00  0.00     0.007 C 
HETATM    7  C   UNK N   1      27.925  20.120   7.297  0.00  0.00     0.040 C 
HETATM    8  C   UNK N   1      33.153  14.251   6.596  0.00  0.00     0.125 C 
HETATM    9  C   UNK N   1      31.797  16.182   7.435  0.00  0.00    -0.004 C 
HETATM   10  C   UNK N   1      31.174  16.303   6.012  0.00  0.00    -0.036 C 
HETATM   11  C   UNK N   1      31.936  17.301   5.126  0.00  0.00     0.016 C 
HETATM   12  C   UNK N   1      29.711  16.734   6.239  0.00  0.00     0.001 C 
HETATM   13  C   UNK N   1      28.207  18.643   6.974  0.00  0.00     0.070 C 
HETATM   14  O   UNK N   1      27.584  17.858   7.959  0.00  0.00    -0.389 OA
HETATM   15  C   UNK N   1      27.444  17.028   5.201  0.00  0.00     0.013 C 
HETATM   16  C   UNK N   1      27.488  18.491   5.629  0.00  0.00    -0.005 C 
HETATM   17  C   UNK N   1      28.190  19.300   4.503  0.00  0.00     0.019 C 
HETATM   18  C   UNK N   1      26.137  19.111   5.951  0.00  0.00     0.028 C 
HETATM   19  C   UNK N   1      29.678  18.179   6.842  0.00  0.00     0.025 C 
HETATM   20  C   UNK N   1      26.563  20.436   6.602  0.00  0.00     0.013 C 
HETATM   21  H   UNK N   1      27.073  17.262   8.529  0.00  0.00     0.210 HD
ENDROOT
BRANCH  18  22
HETATM   22  C   UNK N   1      25.243  19.125   4.736  0.00  0.00    -0.045 A 
HETATM   23  C   UNK N   1      24.046  18.223   4.502  0.00  0.00     0.213 A 
HETATM   24  O   UNK N   1      23.318  18.925   3.550  0.00  0.00    -0.314 OA
HETATM   25  C   UNK N   1      23.936  20.071   3.253  0.00  0.00     0.283 A 
HETATM   26  C   UNK N   1      25.130  20.236   4.014  0.00  0.00     0.087 A 
HETATM   27  O   UNK N   1      23.468  20.917   2.497  0.00  0.00    -0.260 OA
ENDBRANCH  18  22
BRANCH   8  28
HETATM   28  O   UNK N   1      32.952  13.013   7.254  0.00  0.00    -0.356 OA
BRANCH  28  29
HETATM   29  C   UNK N   1      33.077  11.817   6.481  0.00  0.00     0.263 C 
HETATM   30  C   UNK N   1      33.031  10.645   7.495  0.00  0.00     0.095 C 
HETATM   31  C   UNK N   1      34.196  10.764   8.510  0.00  0.00     0.154 C 
HETATM   32  C   UNK N   1      35.273  11.648   7.891  0.00  0.00     0.182 C 
HETATM   33  C   UNK N   1      35.450  11.318   6.420  0.00  0.00     0.152 C 
HETATM   34  O   UNK N   1      34.283  11.733   5.694  0.00  0.00    -0.354 OA
HETATM   35  C   UNK N   1      36.711  11.922   5.821  0.00  0.00     0.042 C 
BRANCH  31  36
HETATM   36  O   UNK N   1      33.729  11.348   9.686  0.00  0.00    -0.393 OA
HETATM   37  H   UNK N   1      34.025  12.188  10.072  0.00  0.00     0.210 HD
ENDBRANCH  31  36
BRANCH  32  38
HETATM   38  O   UNK N   1      36.363  12.034   8.671  0.00  0.00    -0.351 OA
BRANCH  38  39
HETATM   39  C   UNK N   1      36.369  13.447   8.572  0.00  0.00     0.263 C 
HETATM   40  O   UNK N   1      35.248  14.038   9.247  0.00  0.00    -0.354 OA
HETATM   41  C   UNK N   1      35.567  14.642  10.491  0.00  0.00     0.152 C 
HETATM   42  C   UNK N   1      36.559  13.798  11.301  0.00  0.00     0.182 C 
HETATM   43  C   UNK N   1      34.286  14.883  11.268  0.00  0.00     0.042 C 
HETATM   44  C   UNK N   1      37.894  13.733  10.492  0.00  0.00     0.154 C 
HETATM   45  C   UNK N   1      37.712  14.012   9.007  0.00  0.00     0.095 C 
BRANCH  42  46
HETATM   46  O   UNK N   1      35.985  12.524  11.536  0.00  0.00    -0.351 OA
BRANCH  46  47
HETATM   47  C   UNK N   1      36.106  12.133  12.894  0.00  0.00     0.263 C 
HETATM   48  C   UNK N   1      35.270  12.960  13.892  0.00  0.00     0.096 C 
HETATM   49  C   UNK N   1      35.981  12.992  15.264  0.00  0.00     0.167 C 
HETATM   50  C   UNK N   1      36.619  11.614  15.603  0.00  0.00     0.176 C 
HETATM   51  C   UNK N   1      37.224  10.963  14.354  0.00  0.00     0.151 C 
HETATM   52  O   UNK N   1      37.420  11.922  13.360  0.00  0.00    -0.354 OA
HETATM   53  C   UNK N   1      38.490  10.186  14.640  0.00  0.00     0.042 C 
BRANCH  49  54
HETATM   54  O   UNK N   1      36.953  13.975  15.181  0.00  0.00    -0.313 OA
BRANCH  54  55
HETATM   55  C   UNK N   1      37.103  15.004  16.051  0.00  0.00     0.255 C 
HETATM   56  C   UNK N   1      36.385  14.965  17.354  0.00  0.00     0.126 C 
HETATM   57  O   UNK N   1      37.801  15.969  15.775  0.00  0.00    -0.266 OA
ENDBRANCH  54  55
ENDBRANCH  49  54
BRANCH  50  58
HETATM   58  O   UNK N   1      35.665  10.749  16.142  0.00  0.00    -0.390 OA
HETATM   59  H   UNK N   1      34.850  10.505  16.605  0.00  0.00     0.210 HD
ENDBRANCH  50  58
ENDBRANCH  46  47
ENDBRANCH  42  46
BRANCH  44  60
HETATM   60  O   UNK N   1      38.554  12.512  10.638  0.00  0.00    -0.393 OA
HETATM   61  H   UNK N   1      38.805  11.916  11.361  0.00  0.00     0.210 HD
ENDBRANCH  44  60
ENDBRANCH  38  39
ENDBRANCH  32  38
ENDBRANCH  28  29
ENDBRANCH   8  28
TORSDOF 12
ENDMDL
MODEL 5
REMARK VINA RESULT:      -8.9      2.282      4.812
REMARK  12 active torsions:
REMARK  status: ('A' for Active; 'I' for Inactive)
REMARK    1  A    between atoms: C_8  and  O_27 
REMARK    2  A    between atoms: C_24  and  C_20 
REMARK    3  A    between atoms: C_28  and  O_27 
REMARK    4  A    between atoms: C_33  and  O_34 
REMARK    5  A    between atoms: C_35  and  O_36 
REMARK    6  A    between atoms: C_37  and  O_36 
REMARK    7  A    between atoms: C_42  and  O_43 
REMARK    8  A    between atoms: C_44  and  O_45 
REMARK    9  A    between atoms: C_46  and  O_45 
REMARK   10  A    between atoms: C_51  and  O_52 
REMARK   11  A    between atoms: C_53  and  O_54 
REMARK   12  A    between atoms: O_54  and  C_55 
ROOT
HETATM    1  C   UNK N   1      30.890  16.689   7.826  0.00  0.00     0.012 C 
HETATM    2  C   UNK N   1      30.116  17.619   6.916  0.00  0.00     0.033 C 
HETATM    3  C   UNK N   1      31.618  16.911   4.951  0.00  0.00     0.037 C 
HETATM    4  C   UNK N   1      33.900  15.956   5.469  0.00  0.00     0.006 C 
HETATM    5  C   UNK N   1      34.707  15.008   6.379  0.00  0.00     0.008 C 
HETATM    6  C   UNK N   1      32.701  15.564   9.709  0.00  0.00     0.007 C 
HETATM    7  C   UNK N   1      36.737  14.211   8.833  0.00  0.00     0.040 C 
HETATM    8  C   UNK N   1      30.198  17.100   5.492  0.00  0.00     0.125 C 
HETATM    9  C   UNK N   1      32.426  16.030   5.896  0.00  0.00    -0.004 C 
HETATM   10  C   UNK N   1      32.335  16.507   7.377  0.00  0.00    -0.036 C 
HETATM   11  C   UNK N   1      33.017  17.867   7.593  0.00  0.00     0.016 C 
HETATM   12  C   UNK N   1      32.996  15.391   8.210  0.00  0.00     0.001 C 
HETATM   13  C   UNK N   1      35.201  14.273   8.789  0.00  0.00     0.070 C 
HETATM   14  O   UNK N   1      34.728  13.002   8.421  0.00  0.00    -0.389 OA
HETATM   15  C   UNK N   1      33.374  14.457  10.510  0.00  0.00     0.013 C 
HETATM   16  C   UNK N   1      34.874  14.564  10.257  0.00  0.00    -0.005 C 
HETATM   17  C   UNK N   1      35.331  15.989  10.680  0.00  0.00     0.019 C 
HETATM   18  C   UNK N   1      35.723  13.516  10.958  0.00  0.00     0.028 C 
HETATM   19  C   UNK N   1      34.526  15.326   7.878  0.00  0.00     0.025 C 
HETATM   20  C   UNK N   1      37.084  13.729  10.277  0.00  0.00     0.013 C 
HETATM   21  H   UNK N   1      34.337  12.123   8.298  0.00  0.00     0.210 HD
ENDROOT
BRANCH  18  22
HETATM   22  C   UNK N   1      35.608  13.637  12.457  0.00  0.00    -0.045 A 
HETATM   23  C   UNK N   1      34.956  12.627  13.383  0.00  0.00     0.213 A 
HETATM   24  O   UNK N   1      35.521  12.935  14.614  0.00  0.00    -0.314 OA
HETATM   25  C   UNK N   1      36.386  13.944  14.483  0.00  0.00     0.283 A 
HETATM   26  C   UNK N   1      36.485  14.376  13.128  0.00  0.00     0.087 A 
HETATM   27  O   UNK N   1      37.082  14.363  15.403  0.00  0.00    -0.260 OA
ENDBRANCH  18  22
BRANCH   8  28
HETATM   28  O   UNK N   1      29.161  16.240   5.056  0.00  0.00    -0.356 OA
BRANCH  28  29
HETATM   29  C   UNK N   1      29.348  15.537   3.825  0.00  0.00     0.263 C 
HETATM   30  C   UNK N   1      28.369  16.181   2.811  0.00  0.00     0.095 C 
HETATM   31  C   UNK N   1      26.907  16.038   3.305  0.00  0.00     0.154 C 
HETATM   32  C   UNK N   1      26.861  14.895   4.313  0.00  0.00     0.182 C 
HETATM   33  C   UNK N   1      27.723  13.737   3.844  0.00  0.00     0.152 C 
HETATM   34  O   UNK N   1      29.105  14.117   3.902  0.00  0.00    -0.354 OA
HETATM   35  C   UNK N   1      27.473  12.453   4.622  0.00  0.00     0.042 C 
BRANCH  31  36
HETATM   36  O   UNK N   1      26.508  17.223   3.921  0.00  0.00    -0.393 OA
HETATM   37  H   UNK N   1      26.083  17.308   4.789  0.00  0.00     0.210 HD
ENDBRANCH  31  36
BRANCH  32  38
HETATM   38  O   UNK N   1      25.680  14.664   5.020  0.00  0.00    -0.351 OA
BRANCH  38  39
HETATM   39  C   UNK N   1      24.674  14.701   4.024  0.00  0.00     0.263 C 
HETATM   40  O   UNK N   1      24.308  13.386   3.581  0.00  0.00    -0.354 OA
HETATM   41  C   UNK N   1      23.064  12.924   4.084  0.00  0.00     0.152 C 
HETATM   42  C   UNK N   1      22.874  13.287   5.562  0.00  0.00     0.182 C 
HETATM   43  C   UNK N   1      22.968  11.425   3.868  0.00  0.00     0.042 C 
HETATM   44  C   UNK N   1      22.835  14.846   5.663  0.00  0.00     0.154 C 
HETATM   45  C   UNK N   1      23.494  15.543   4.482  0.00  0.00     0.095 C 
BRANCH  42  46
HETATM   46  O   UNK N   1      23.925  12.704   6.313  0.00  0.00    -0.351 OA
BRANCH  46  47
HETATM   47  C   UNK N   1      23.544  12.464   7.657  0.00  0.00     0.263 C 
HETATM   48  C   UNK N   1      22.028  12.312   7.893  0.00  0.00     0.096 C 
HETATM   49  C   UNK N   1      21.672  12.794   9.318  0.00  0.00     0.167 C 
HETATM   50  C   UNK N   1      22.756  12.362  10.348  0.00  0.00     0.176 C 
HETATM   51  C   UNK N   1      24.161  12.468   9.747  0.00  0.00     0.151 C 
HETATM   52  O   UNK N   1      24.144  13.297   8.625  0.00  0.00    -0.354 OA
HETATM   53  C   UNK N   1      25.207  12.906  10.750  0.00  0.00     0.042 C 
BRANCH  49  54
HETATM   54  O   UNK N   1      21.578  14.174   9.255  0.00  0.00    -0.313 OA
BRANCH  54  55
HETATM   55  C   UNK N   1      20.421  14.878   9.178  0.00  0.00     0.255 C 
HETATM   56  C   UNK N   1      20.447  16.257   8.620  0.00  0.00     0.126 C 
HETATM   57  O   UNK N   1      19.366  14.406   9.575  0.00  0.00    -0.266 OA
ENDBRANCH  54  55
ENDBRANCH  49  54
BRANCH  50  58
HETATM   58  O   UNK N   1      22.544  11.047  10.763  0.00  0.00    -0.390 OA
HETATM   59  H   UNK N   1      22.024  10.271  11.023  0.00  0.00     0.210 HD
ENDBRANCH  50  58
ENDBRANCH  46  47
ENDBRANCH  42  46
BRANCH  44  60
HETATM   60  O   UNK N   1      23.411  15.324   6.841  0.00  0.00    -0.393 OA
HETATM   61  H   UNK N   1      24.214  15.800   7.103  0.00  0.00     0.210 HD
ENDBRANCH  44  60
ENDBRANCH  38  39
ENDBRANCH  32  38
ENDBRANCH  28  29
ENDBRANCH   8  28
TORSDOF 12
ENDMDL
MODEL 6
REMARK VINA RESULT:      -8.7      2.268      5.468
REMARK  12 active torsions:
REMARK  status: ('A' for Active; 'I' for Inactive)
REMARK    1  A    between atoms: C_8  and  O_27 
REMARK    2  A    between atoms: C_24  and  C_20 
REMARK    3  A    between atoms: C_28  and  O_27 
REMARK    4  A    between atoms: C_33  and  O_34 
REMARK    5  A    between atoms: C_35  and  O_36 
REMARK    6  A    between atoms: C_37  and  O_36 
REMARK    7  A    between atoms: C_42  and  O_43 
REMARK    8  A    between atoms: C_44  and  O_45 
REMARK    9  A    between atoms: C_46  and  O_45 
REMARK   10  A    between atoms: C_51  and  O_52 
REMARK   11  A    between atoms: C_53  and  O_54 
REMARK   12  A    between atoms: O_54  and  C_55 
ROOT
HETATM    1  C   UNK N   1      27.659  15.066   4.350  0.00  0.00     0.012 C 
HETATM    2  C   UNK N   1      26.477  15.032   3.405  0.00  0.00     0.033 C 
HETATM    3  C   UNK N   1      27.674  13.235   2.007  0.00  0.00     0.037 C 
HETATM    4  C   UNK N   1      30.191  13.065   2.173  0.00  0.00     0.006 C 
HETATM    5  C   UNK N   1      31.409  13.088   3.118  0.00  0.00     0.008 C 
HETATM    6  C   UNK N   1      30.070  15.713   5.714  0.00  0.00     0.007 C 
HETATM    7  C   UNK N   1      34.048  14.384   4.578  0.00  0.00     0.040 C 
HETATM    8  C   UNK N   1      26.406  13.664   2.749  0.00  0.00     0.125 C 
HETATM    9  C   UNK N   1      28.881  13.330   2.933  0.00  0.00    -0.004 C 
HETATM   10  C   UNK N   1      28.967  14.708   3.656  0.00  0.00    -0.036 C 
HETATM   11  C   UNK N   1      29.256  15.859   2.681  0.00  0.00     0.016 C 
HETATM   12  C   UNK N   1      30.083  14.550   4.709  0.00  0.00     0.001 C 
HETATM   13  C   UNK N   1      32.587  14.303   5.048  0.00  0.00     0.070 C 
HETATM   14  O   UNK N   1      32.435  13.120   5.790  0.00  0.00    -0.389 OA
HETATM   15  C   UNK N   1      31.186  15.540   6.735  0.00  0.00     0.013 C 
HETATM   16  C   UNK N   1      32.503  15.528   5.968  0.00  0.00    -0.005 C 
HETATM   17  C   UNK N   1      32.607  16.857   5.170  0.00  0.00     0.019 C 
HETATM   18  C   UNK N   1      33.747  15.335   6.821  0.00  0.00     0.028 C 
HETATM   19  C   UNK N   1      31.461  14.361   3.989  0.00  0.00     0.025 C 
HETATM   20  C   UNK N   1      34.814  15.085   5.745  0.00  0.00     0.013 C 
HETATM   21  H   UNK N   1      32.298  12.389   6.413  0.00  0.00     0.210 HD
ENDROOT
BRANCH  18  22
HETATM   22  C   UNK N   1      33.917  16.473   7.797  0.00  0.00    -0.045 A 
HETATM   23  C   UNK N   1      34.097  16.339   9.297  0.00  0.00     0.213 A 
HETATM   24  O   UNK N   1      34.677  17.552   9.643  0.00  0.00    -0.314 OA
HETATM   25  C   UNK N   1      34.849  18.306   8.555  0.00  0.00     0.283 A 
HETATM   26  C   UNK N   1      34.413  17.633   7.377  0.00  0.00     0.087 A 
HETATM   27  O   UNK N   1      35.413  19.396   8.568  0.00  0.00    -0.260 OA
ENDBRANCH  18  22
BRANCH   8  28
HETATM   28  O   UNK N   1      25.595  12.687   3.377  0.00  0.00    -0.356 OA
BRANCH  28  29
HETATM   29  C   UNK N   1      25.095  11.617   2.573  0.00  0.00     0.263 C 
HETATM   30  C   UNK N   1      24.089  12.258   1.582  0.00  0.00     0.095 C 
HETATM   31  C   UNK N   1      22.936  12.947   2.354  0.00  0.00     0.154 C 
HETATM   32  C   UNK N   1      22.876  12.340   3.752  0.00  0.00     0.182 C 
HETATM   33  C   UNK N   1      23.087  10.839   3.689  0.00  0.00     0.152 C 
HETATM   34  O   UNK N   1      24.444  10.563   3.313  0.00  0.00    -0.354 OA
HETATM   35  C   UNK N   1      22.723  10.130   4.986  0.00  0.00     0.042 C 
BRANCH  31  36
HETATM   36  O   UNK N   1      23.191  14.314   2.447  0.00  0.00    -0.393 OA
HETATM   37  H   UNK N   1      23.638  14.770   3.177  0.00  0.00     0.210 HD
ENDBRANCH  31  36
BRANCH  32  38
HETATM   38  O   UNK N   1      22.015  12.900   4.697  0.00  0.00    -0.351 OA
BRANCH  38  39
HETATM   39  C   UNK N   1      22.858  13.184   5.799  0.00  0.00     0.263 C 
HETATM   40  O   UNK N   1      23.797  14.228   5.503  0.00  0.00    -0.354 OA
HETATM   41  C   UNK N   1      23.481  15.482   6.087  0.00  0.00     0.152 C 
HETATM   42  C   UNK N   1      21.980  15.790   6.006  0.00  0.00     0.182 C 
HETATM   43  C   UNK N   1      24.303  16.565   5.413  0.00  0.00     0.042 C 
HETATM   44  C   UNK N   1      21.231  14.712   6.853  0.00  0.00     0.154 C 
HETATM   45  C   UNK N   1      22.037  13.437   7.054  0.00  0.00     0.095 C 
BRANCH  42  46
HETATM   46  O   UNK N   1      21.592  15.800   4.643  0.00  0.00    -0.351 OA
BRANCH  46  47
HETATM   47  C   UNK N   1      21.309  17.111   4.185  0.00  0.00     0.263 C 
HETATM   48  C   UNK N   1      19.897  17.312   3.597  0.00  0.00     0.096 C 
HETATM   49  C   UNK N   1      19.935  18.418   2.518  0.00  0.00     0.167 C 
HETATM   50  C   UNK N   1      20.871  19.588   2.940  0.00  0.00     0.176 C 
HETATM   51  C   UNK N   1      22.120  19.065   3.656  0.00  0.00     0.151 C 
HETATM   52  O   UNK N   1      22.301  17.709   3.379  0.00  0.00    -0.354 OA
HETATM   53  C   UNK N   1      23.364  19.869   3.350  0.00  0.00     0.042 C 
BRANCH  49  54
HETATM   54  O   UNK N   1      20.392  17.820   1.356  0.00  0.00    -0.313 OA
BRANCH  54  55
HETATM   55  C   UNK N   1      19.835  16.735   0.762  0.00  0.00     0.255 C 
HETATM   56  C   UNK N   1      20.513  15.416   0.876  0.00  0.00     0.126 C 
HETATM   57  O   UNK N   1      18.799  16.828   0.119  0.00  0.00    -0.266 OA
ENDBRANCH  54  55
ENDBRANCH  49  54
BRANCH  50  58
HETATM   58  O   UNK N   1      20.203  20.470   3.791  0.00  0.00    -0.390 OA
HETATM   59  H   UNK N   1      19.474  21.037   4.087  0.00  0.00     0.210 HD
ENDBRANCH  50  58
ENDBRANCH  46  47
ENDBRANCH  42  46
BRANCH  44  60
HETATM   60  O   UNK N   1      19.988  14.373   6.316  0.00  0.00    -0.393 OA
HETATM   61  H   UNK N   1      19.452  14.612   5.543  0.00  0.00     0.210 HD
ENDBRANCH  44  60
ENDBRANCH  38  39
ENDBRANCH  32  38
ENDBRANCH  28  29
ENDBRANCH   8  28
TORSDOF 12
ENDMDL
MODEL 7
REMARK VINA RESULT:      -8.7      2.159      4.731
REMARK  12 active torsions:
REMARK  status: ('A' for Active; 'I' for Inactive)
REMARK    1  A    between atoms: C_8  and  O_27 
REMARK    2  A    between atoms: C_24  and  C_20 
REMARK    3  A    between atoms: C_28  and  O_27 
REMARK    4  A    between atoms: C_33  and  O_34 
REMARK    5  A    between atoms: C_35  and  O_36 
REMARK    6  A    between atoms: C_37  and  O_36 
REMARK    7  A    between atoms: C_42  and  O_43 
REMARK    8  A    between atoms: C_44  and  O_45 
REMARK    9  A    between atoms: C_46  and  O_45 
REMARK   10  A    between atoms: C_51  and  O_52 
REMARK   11  A    between atoms: C_53  and  O_54 
REMARK   12  A    between atoms: O_54  and  C_55 
ROOT
HETATM    1  C   UNK N   1      27.747  14.568   4.346  0.00  0.00     0.012 C 
HETATM    2  C   UNK N   1      26.548  14.449   3.428  0.00  0.00     0.033 C 
HETATM    3  C   UNK N   1      27.868  12.805   1.953  0.00  0.00     0.037 C 
HETATM    4  C   UNK N   1      30.393  12.863   2.054  0.00  0.00     0.006 C 
HETATM    5  C   UNK N   1      31.628  12.975   2.971  0.00  0.00     0.008 C 
HETATM    6  C   UNK N   1      30.123  15.399   5.669  0.00  0.00     0.007 C 
HETATM    7  C   UNK N   1      34.176  14.471   4.403  0.00  0.00     0.040 C 
HETATM    8  C   UNK N   1      26.586  13.098   2.737  0.00  0.00     0.125 C 
HETATM    9  C   UNK N   1      29.085  12.988   2.852  0.00  0.00    -0.004 C 
HETATM   10  C   UNK N   1      29.064  14.349   3.610  0.00  0.00    -0.036 C 
HETATM   11  C   UNK N   1      29.221  15.547   2.661  0.00  0.00     0.016 C 
HETATM   12  C   UNK N   1      30.216  14.268   4.632  0.00  0.00     0.001 C 
HETATM   13  C   UNK N   1      32.740  14.245   4.905  0.00  0.00     0.070 C 
HETATM   14  O   UNK N   1      32.717  13.033   5.617  0.00  0.00    -0.389 OA
HETATM   15  C   UNK N   1      31.277  15.304   6.657  0.00  0.00     0.013 C 
HETATM   16  C   UNK N   1      32.570  15.432   5.859  0.00  0.00    -0.005 C 
HETATM   17  C   UNK N   1      32.530  16.786   5.096  0.00  0.00     0.019 C 
HETATM   18  C   UNK N   1      33.848  15.333   6.677  0.00  0.00     0.028 C 
HETATM   19  C   UNK N   1      31.586  14.225   3.874  0.00  0.00     0.025 C 
HETATM   20  C   UNK N   1      34.904  15.210   5.569  0.00  0.00     0.013 C 
HETATM   21  H   UNK N   1      32.664  12.278   6.223  0.00  0.00     0.210 HD
ENDROOT
BRANCH  18  22
HETATM   22  C   UNK N   1      33.939  16.458   7.679  0.00  0.00    -0.045 A 
HETATM   23  C   UNK N   1      34.035  16.301   9.185  0.00  0.00     0.213 A 
HETATM   24  O   UNK N   1      34.570  17.518   9.584  0.00  0.00    -0.314 OA
HETATM   25  C   UNK N   1      34.789  18.294   8.519  0.00  0.00     0.283 A 
HETATM   26  C   UNK N   1      34.435  17.633   7.307  0.00  0.00     0.087 A 
HETATM   27  O   UNK N   1      35.329  19.395   8.583  0.00  0.00    -0.260 OA
ENDBRANCH  18  22
BRANCH   8  28
HETATM   28  O   UNK N   1      25.884  12.035   3.357  0.00  0.00    -0.356 OA
BRANCH  28  29
HETATM   29  C   UNK N   1      25.189  11.112   2.515  0.00  0.00     0.263 C 
HETATM   30  C   UNK N   1      23.838  11.785   2.164  0.00  0.00     0.095 C 
HETATM   31  C   UNK N   1      23.025  12.068   3.453  0.00  0.00     0.154 C 
HETATM   32  C   UNK N   1      23.551  11.151   4.553  0.00  0.00     0.182 C 
HETATM   33  C   UNK N   1      23.827   9.764   4.002  0.00  0.00     0.152 C 
HETATM   34  O   UNK N   1      24.950   9.819   3.110  0.00  0.00    -0.354 OA
HETATM   35  C   UNK N   1      24.041   8.722   5.089  0.00  0.00     0.042 C 
BRANCH  31  36
HETATM   36  O   UNK N   1      23.199  13.398   3.829  0.00  0.00    -0.393 OA
HETATM   37  H   UNK N   1      23.859  13.742   4.451  0.00  0.00     0.210 HD
ENDBRANCH  31  36
BRANCH  32  38
HETATM   38  O   UNK N   1      23.083  11.320   5.856  0.00  0.00    -0.351 OA
BRANCH  38  39
HETATM   39  C   UNK N   1      24.262  11.503   6.619  0.00  0.00     0.263 C 
HETATM   40  O   UNK N   1      24.945  12.717   6.272  0.00  0.00    -0.354 OA
HETATM   41  C   UNK N   1      24.792  13.765   7.216  0.00  0.00     0.152 C 
HETATM   42  C   UNK N   1      23.357  13.849   7.752  0.00  0.00     0.182 C 
HETATM   43  C   UNK N   1      25.219  15.074   6.578  0.00  0.00     0.042 C 
HETATM   44  C   UNK N   1      23.062  12.521   8.521  0.00  0.00     0.154 C 
HETATM   45  C   UNK N   1      23.967  11.371   8.106  0.00  0.00     0.095 C 
BRANCH  42  46
HETATM   46  O   UNK N   1      22.478  14.072   6.664  0.00  0.00    -0.351 OA
BRANCH  46  47
HETATM   47  C   UNK N   1      22.028  15.415   6.615  0.00  0.00     0.263 C 
HETATM   48  C   UNK N   1      20.585  15.644   7.110  0.00  0.00     0.096 C 
HETATM   49  C   UNK N   1      19.965  16.849   6.368  0.00  0.00     0.167 C 
HETATM   50  C   UNK N   1      21.004  17.991   6.176  0.00  0.00     0.176 C 
HETATM   51  C   UNK N   1      22.392  17.426   5.855  0.00  0.00     0.151 C 
HETATM   52  O   UNK N   1      22.283  16.107   5.412  0.00  0.00    -0.354 OA
HETATM   53  C   UNK N   1      23.174  18.281   4.882  0.00  0.00     0.042 C 
BRANCH  49  54
HETATM   54  O   UNK N   1      19.526  16.374   5.144  0.00  0.00    -0.313 OA
BRANCH  54  55
HETATM   55  C   UNK N   1      18.809  15.239   4.955  0.00  0.00     0.255 C 
HETATM   56  C   UNK N   1      19.407  14.124   4.171  0.00  0.00     0.126 C 
HETATM   57  O   UNK N   1      17.676  15.124   5.400  0.00  0.00    -0.266 OA
ENDBRANCH  54  55
ENDBRANCH  49  54
BRANCH  50  58
HETATM   58  O   UNK N   1      21.094  18.774   7.328  0.00  0.00    -0.390 OA
HETATM   59  H   UNK N   1      21.175  18.949   8.278  0.00  0.00     0.210 HD
ENDBRANCH  50  58
ENDBRANCH  46  47
ENDBRANCH  42  46
BRANCH  44  60
HETATM   60  O   UNK N   1      21.734  12.110   8.397  0.00  0.00    -0.393 OA
HETATM   61  H   UNK N   1      20.929  12.414   7.949  0.00  0.00     0.210 HD
ENDBRANCH  44  60
ENDBRANCH  38  39
ENDBRANCH  32  38
ENDBRANCH  28  29
ENDBRANCH   8  28
TORSDOF 12
ENDMDL
MODEL 8
REMARK VINA RESULT:      -8.6      6.566     11.949
REMARK  12 active torsions:
REMARK  status: ('A' for Active; 'I' for Inactive)
REMARK    1  A    between atoms: C_8  and  O_27 
REMARK    2  A    between atoms: C_24  and  C_20 
REMARK    3  A    between atoms: C_28  and  O_27 
REMARK    4  A    between atoms: C_33  and  O_34 
REMARK    5  A    between atoms: C_35  and  O_36 
REMARK    6  A    between atoms: C_37  and  O_36 
REMARK    7  A    between atoms: C_42  and  O_43 
REMARK    8  A    between atoms: C_44  and  O_45 
REMARK    9  A    between atoms: C_46  and  O_45 
REMARK   10  A    between atoms: C_51  and  O_52 
REMARK   11  A    between atoms: C_53  and  O_54 
REMARK   12  A    between atoms: O_54  and  C_55 
ROOT
HETATM    1  C   UNK N   1      35.834  15.230  12.032  0.00  0.00     0.012 C 
HETATM    2  C   UNK N   1      36.198  15.946  10.748  0.00  0.00     0.033 C 
HETATM    3  C   UNK N   1      35.094  14.051   9.404  0.00  0.00     0.037 C 
HETATM    4  C   UNK N   1      34.834  11.791  10.506  0.00  0.00     0.006 C 
HETATM    5  C   UNK N   1      34.459  11.041  11.800  0.00  0.00     0.008 C 
HETATM    6  C   UNK N   1      35.845  13.644  14.393  0.00  0.00     0.007 C 
HETATM    7  C   UNK N   1      35.023   9.381  14.576  0.00  0.00     0.040 C 
HETATM    8  C   UNK N   1      35.209  15.555   9.665  0.00  0.00     0.125 C 
HETATM    9  C   UNK N   1      34.793  13.315  10.704  0.00  0.00    -0.004 C 
HETATM   10  C   UNK N   1      35.764  13.718  11.853  0.00  0.00    -0.036 C 
HETATM   11  C   UNK N   1      37.205  13.259  11.586  0.00  0.00     0.016 C 
HETATM   12  C   UNK N   1      35.181  13.076  13.129  0.00  0.00     0.001 C 
HETATM   13  C   UNK N   1      34.783  10.881  14.342  0.00  0.00     0.070 C 
HETATM   14  O   UNK N   1      33.403  11.122  14.459  0.00  0.00    -0.389 OA
HETATM   15  C   UNK N   1      35.261  12.986  15.636  0.00  0.00     0.013 C 
HETATM   16  C   UNK N   1      35.538  11.491  15.529  0.00  0.00    -0.005 C 
HETATM   17  C   UNK N   1      37.074  11.295  15.399  0.00  0.00     0.019 C 
HETATM   18  C   UNK N   1      35.001  10.650  16.676  0.00  0.00     0.028 C 
HETATM   19  C   UNK N   1      35.276  11.516  13.020  0.00  0.00     0.025 C 
HETATM   20  C   UNK N   1      35.188   9.230  16.121  0.00  0.00     0.013 C 
HETATM   21  H   UNK N   1      32.487  11.373  14.653  0.00  0.00     0.210 HD
ENDROOT
BRANCH  18  22
HETATM   22  C   UNK N   1      35.651  11.036  17.982  0.00  0.00    -0.045 A 
HETATM   23  C   UNK N   1      35.251  12.206  18.863  0.00  0.00     0.213 A 
HETATM   24  O   UNK N   1      35.779  11.850  20.097  0.00  0.00    -0.314 OA
HETATM   25  C   UNK N   1      36.385  10.663  20.013  0.00  0.00     0.283 A 
HETATM   26  C   UNK N   1      36.284  10.115  18.701  0.00  0.00     0.087 A 
HETATM   27  O   UNK N   1      36.869  10.080  20.978  0.00  0.00    -0.260 OA
ENDBRANCH  18  22
BRANCH   8  28
HETATM   28  O   UNK N   1      34.074  16.386   9.495  0.00  0.00    -0.356 OA
BRANCH  28  29
HETATM   29  C   UNK N   1      34.229  17.580   8.725  0.00  0.00     0.263 C 
HETATM   30  C   UNK N   1      32.828  18.241   8.672  0.00  0.00     0.095 C 
HETATM   31  C   UNK N   1      31.806  17.287   8.003  0.00  0.00     0.154 C 
HETATM   32  C   UNK N   1      32.583  16.275   7.168  0.00  0.00     0.182 C 
HETATM   33  C   UNK N   1      33.726  16.956   6.436  0.00  0.00     0.152 C 
HETATM   34  O   UNK N   1      34.720  17.370   7.385  0.00  0.00    -0.354 OA
HETATM   35  C   UNK N   1      34.337  16.088   5.346  0.00  0.00     0.042 C 
BRANCH  31  36
HETATM   36  O   UNK N   1      31.078  16.622   8.987  0.00  0.00    -0.393 OA
HETATM   37  H   UNK N   1      30.114  16.517   9.022  0.00  0.00     0.210 HD
ENDBRANCH  31  36
BRANCH  32  38
HETATM   38  O   UNK N   1      31.897  15.210   6.583  0.00  0.00    -0.351 OA
BRANCH  38  39
HETATM   39  C   UNK N   1      30.777  15.823   5.971  0.00  0.00     0.263 C 
HETATM   40  O   UNK N   1      31.152  16.615   4.834  0.00  0.00    -0.354 OA
HETATM   41  C   UNK N   1      30.856  16.017   3.581  0.00  0.00     0.152 C 
HETATM   42  C   UNK N   1      31.169  14.515   3.575  0.00  0.00     0.182 C 
HETATM   43  C   UNK N   1      31.621  16.744   2.491  0.00  0.00     0.042 C 
HETATM   44  C   UNK N   1      30.228  13.833   4.619  0.00  0.00     0.154 C 
HETATM   45  C   UNK N   1      29.697  14.795   5.671  0.00  0.00     0.095 C 
BRANCH  42  46
HETATM   46  O   UNK N   1      32.545  14.337   3.862  0.00  0.00    -0.351 OA
BRANCH  46  47
HETATM   47  C   UNK N   1      33.142  13.376   3.007  0.00  0.00     0.263 C 
HETATM   48  C   UNK N   1      34.654  13.158   3.220  0.00  0.00     0.096 C 
HETATM   49  C   UNK N   1      35.312  12.740   1.886  0.00  0.00     0.167 C 
HETATM   50  C   UNK N   1      34.401  11.763   1.087  0.00  0.00     0.176 C 
HETATM   51  C   UNK N   1      32.926  12.157   1.213  0.00  0.00     0.151 C 
HETATM   52  O   UNK N   1      32.816  13.482   1.639  0.00  0.00    -0.354 OA
HETATM   53  C   UNK N   1      32.132  11.908  -0.051  0.00  0.00     0.042 C 
BRANCH  49  54
HETATM   54  O   UNK N   1      35.527  13.905   1.171  0.00  0.00    -0.313 OA
BRANCH  54  55
HETATM   55  C   UNK N   1      35.958  13.969  -0.114  0.00  0.00     0.255 C 
HETATM   56  C   UNK N   1      37.394  13.715  -0.412  0.00  0.00     0.126 C 
HETATM   57  O   UNK N   1      35.193  14.250  -1.025  0.00  0.00    -0.266 OA
ENDBRANCH  54  55
ENDBRANCH  49  54
BRANCH  50  58
HETATM   58  O   UNK N   1      34.557  10.456   1.549  0.00  0.00    -0.390 OA
HETATM   59  H   UNK N   1      34.774   9.760   2.188  0.00  0.00     0.210 HD
ENDBRANCH  50  58
ENDBRANCH  46  47
ENDBRANCH  42  46
BRANCH  44  60
HETATM   60  O   UNK N   1      30.833  12.755   5.266  0.00  0.00    -0.393 OA
HETATM   61  H   UNK N   1      31.465  12.616   5.988  0.00  0.00     0.210 HD
ENDBRANCH  44  60
ENDBRANCH  38  39
ENDBRANCH  32  38
ENDBRANCH  28  29
ENDBRANCH   8  28
TORSDOF 12
ENDMDL
MODEL 9
REMARK VINA RESULT:      -8.6      3.357      7.574
REMARK  12 active torsions:
REMARK  status: ('A' for Active; 'I' for Inactive)
REMARK    1  A    between atoms: C_8  and  O_27 
REMARK    2  A    between atoms: C_24  and  C_20 
REMARK    3  A    between atoms: C_28  and  O_27 
REMARK    4  A    between atoms: C_33  and  O_34 
REMARK    5  A    between atoms: C_35  and  O_36 
REMARK    6  A    between atoms: C_37  and  O_36 
REMARK    7  A    between atoms: C_42  and  O_43 
REMARK    8  A    between atoms: C_44  and  O_45 
REMARK    9  A    between atoms: C_46  and  O_45 
REMARK   10  A    between atoms: C_51  and  O_52 
REMARK   11  A    between atoms: C_53  and  O_54 
REMARK   12  A    between atoms: O_54  and  C_55 
ROOT
HETATM    1  C   UNK N   1      32.174  16.015   7.662  0.00  0.00     0.012 C 
HETATM    2  C   UNK N   1      31.608  16.871   6.549  0.00  0.00     0.033 C 
HETATM    3  C   UNK N   1      33.427  15.978   4.964  0.00  0.00     0.037 C 
HETATM    4  C   UNK N   1      35.547  15.045   5.976  0.00  0.00     0.006 C 
HETATM    5  C   UNK N   1      36.146  14.170   7.096  0.00  0.00     0.008 C 
HETATM    6  C   UNK N   1      33.575  15.037   9.935  0.00  0.00     0.007 C 
HETATM    7  C   UNK N   1      37.665  13.568   9.944  0.00  0.00     0.040 C 
HETATM    8  C   UNK N   1      31.938  16.229   5.213  0.00  0.00     0.125 C 
HETATM    9  C   UNK N   1      34.022  15.173   6.114  0.00  0.00    -0.004 C 
HETATM   10  C   UNK N   1      33.672  15.778   7.506  0.00  0.00    -0.036 C 
HETATM   11  C   UNK N   1      34.339  17.143   7.731  0.00  0.00     0.016 C 
HETATM   12  C   UNK N   1      34.137  14.731   8.538  0.00  0.00     0.001 C 
HETATM   13  C   UNK N   1      36.166  13.643   9.609  0.00  0.00     0.070 C 
HETATM   14  O   UNK N   1      35.734  12.351   9.267  0.00  0.00    -0.389 OA
HETATM   15  C   UNK N   1      34.058  13.997  10.937  0.00  0.00     0.013 C 
HETATM   16  C   UNK N   1      35.581  14.065  10.961  0.00  0.00    -0.005 C 
HETATM   17  C   UNK N   1      35.991  15.515  11.341  0.00  0.00     0.019 C 
HETATM   18  C   UNK N   1      36.258  13.072  11.893  0.00  0.00     0.028 C 
HETATM   19  C   UNK N   1      35.700  14.620   8.503  0.00  0.00     0.025 C 
HETATM   20  C   UNK N   1      37.726  13.209  11.462  0.00  0.00     0.013 C 
HETATM   21  H   UNK N   1      35.348  11.469   9.147  0.00  0.00     0.210 HD
ENDROOT
BRANCH  18  22
HETATM   22  C   UNK N   1      35.871  13.324  13.329  0.00  0.00    -0.045 A 
HETATM   23  C   UNK N   1      35.046  12.399  14.204  0.00  0.00     0.213 A 
HETATM   24  O   UNK N   1      35.380  12.815  15.485  0.00  0.00    -0.314 OA
HETATM   25  C   UNK N   1      36.268  13.810  15.429  0.00  0.00     0.283 A 
HETATM   26  C   UNK N   1      36.621  14.122  14.083  0.00  0.00     0.087 A 
HETATM   27  O   UNK N   1      36.789  14.311  16.421  0.00  0.00    -0.260 OA
ENDBRANCH  18  22
BRANCH   8  28
HETATM   28  O   UNK N   1      30.976  15.346   4.665  0.00  0.00    -0.356 OA
BRANCH  28  29
HETATM   29  C   UNK N   1      31.331  14.617   3.487  0.00  0.00     0.263 C 
HETATM   30  C   UNK N   1      30.648  15.352   2.306  0.00  0.00     0.095 C 
HETATM   31  C   UNK N   1      29.110  15.368   2.496  0.00  0.00     0.154 C 
HETATM   32  C   UNK N   1      28.743  14.244   3.459  0.00  0.00     0.182 C 
HETATM   33  C   UNK N   1      29.555  12.998   3.156  0.00  0.00     0.152 C 
HETATM   34  O   UNK N   1      30.930  13.231   3.496  0.00  0.00    -0.354 OA
HETATM   35  C   UNK N   1      29.022  11.755   3.851  0.00  0.00     0.042 C 
BRANCH  31  36
HETATM   36  O   UNK N   1      28.722  16.593   3.035  0.00  0.00    -0.393 OA
HETATM   37  H   UNK N   1      28.542  16.782   3.969  0.00  0.00     0.210 HD
ENDBRANCH  31  36
BRANCH  32  38
HETATM   38  O   UNK N   1      27.427  14.144   3.912  0.00  0.00    -0.351 OA
BRANCH  38  39
HETATM   39  C   UNK N   1      27.550  14.182   5.322  0.00  0.00     0.263 C 
HETATM   40  O   UNK N   1      28.182  15.389   5.775  0.00  0.00    -0.354 OA
HETATM   41  C   UNK N   1      27.294  16.337   6.346  0.00  0.00     0.152 C 
HETATM   42  C   UNK N   1      25.981  16.439   5.558  0.00  0.00     0.182 C 
HETATM   43  C   UNK N   1      27.992  17.682   6.431  0.00  0.00     0.042 C 
HETATM   44  C   UNK N   1      25.264  15.054   5.656  0.00  0.00     0.154 C 
HETATM   45  C   UNK N   1      26.209  13.908   5.987  0.00  0.00     0.095 C 
BRANCH  42  46
HETATM   46  O   UNK N   1      26.278  16.823   4.227  0.00  0.00    -0.351 OA
BRANCH  46  47
HETATM   47  C   UNK N   1      25.657  18.048   3.880  0.00  0.00     0.263 C 
HETATM   48  C   UNK N   1      26.580  19.284   3.907  0.00  0.00     0.096 C 
HETATM   49  C   UNK N   1      25.753  20.542   4.256  0.00  0.00     0.167 C 
HETATM   50  C   UNK N   1      24.362  20.517   3.560  0.00  0.00     0.176 C 
HETATM   51  C   UNK N   1      23.777  19.101   3.546  0.00  0.00     0.151 C 
HETATM   52  O   UNK N   1      24.417  18.307   4.500  0.00  0.00    -0.354 OA
HETATM   53  C   UNK N   1      22.274  19.074   3.714  0.00  0.00     0.042 C 
BRANCH  49  54
HETATM   54  O   UNK N   1      25.612  20.551   5.633  0.00  0.00    -0.313 OA
BRANCH  54  55
HETATM   55  C   UNK N   1      26.400  21.238   6.497  0.00  0.00     0.255 C 
HETATM   56  C   UNK N   1      27.779  21.613   6.082  0.00  0.00     0.126 C 
HETATM   57  O   UNK N   1      26.004  21.536   7.615  0.00  0.00    -0.266 OA
ENDBRANCH  54  55
ENDBRANCH  49  54
BRANCH  50  58
HETATM   58  O   UNK N   1      24.461  20.973   2.245  0.00  0.00    -0.390 OA
HETATM   59  H   UNK N   1      24.136  21.273   1.382  0.00  0.00     0.210 HD
ENDBRANCH  50  58
ENDBRANCH  46  47
ENDBRANCH  42  46
BRANCH  44  60
HETATM   60  O   UNK N   1      24.561  14.729   4.495  0.00  0.00    -0.393 OA
HETATM   61  H   UNK N   1      23.844  15.108   3.962  0.00  0.00     0.210 HD
ENDBRANCH  44  60
ENDBRANCH  38  39
ENDBRANCH  32  38
ENDBRANCH  28  29
ENDBRANCH   8  28
TORSDOF 12
ENDMDL
