MODEL 1
REMARK VINA RESULT:      -3.7      0.000      0.000
REMARK  1 active torsions:
REMARK  status: ('A' for Active; 'I' for Inactive)
REMARK    1  A    between atoms: O_1  and  N_3 
REMARK       I    between atoms: N_3  and  C_4 
ROOT
HETATM    1  O   UNK N   1      21.928  21.359   2.397  0.00  0.00    -0.272 OA
HETATM    2  N   UNK N   1      20.460  20.267   1.119  0.00  0.00    -0.238 N 
HETATM    3  C   UNK N   1      21.040  20.528   2.310  0.00  0.00     0.236 C 
HETATM    4  C   UNK N   1      20.590  19.794   3.524  0.00  0.00     0.119 C 
HETATM    5  H   UNK N   1      19.744  19.593   1.062  0.00  0.00     0.197 HD
ENDROOT
BRANCH   2   6
HETATM    6  O   UNK N   1      20.849  20.916   0.012  0.00  0.00    -0.287 OA
HETATM    7  H   UNK N   1      20.190  21.343  -0.556  0.00  0.00     0.244 HD
ENDBRANCH   2   6
TORSDOF 1
ENDMDL
MODEL 2
REMARK VINA RESULT:      -3.6     15.349     15.831
REMARK  1 active torsions:
REMARK  status: ('A' for Active; 'I' for Inactive)
REMARK    1  A    between atoms: O_1  and  N_3 
REMARK       I    between atoms: N_3  and  C_4 
ROOT
HETATM    1  O   UNK N   1      35.285  19.226   8.437  0.00  0.00    -0.272 OA
HETATM    2  N   UNK N   1      34.726  17.299   9.415  0.00  0.00    -0.238 N 
HETATM    3  C   UNK N   1      34.611  18.210   8.425  0.00  0.00     0.236 C 
HETATM    4  C   UNK N   1      33.653  17.970   7.312  0.00  0.00     0.119 C 
HETATM    5  H   UNK N   1      34.176  16.482   9.393  0.00  0.00     0.197 HD
ENDROOT
BRANCH   2   6
HETATM    6  O   UNK N   1      35.582  17.494  10.428  0.00  0.00    -0.287 OA
HETATM    7  H   UNK N   1      35.357  18.112  11.141  0.00  0.00     0.244 HD
ENDBRANCH   2   6
TORSDOF 1
ENDMDL
MODEL 3
REMARK VINA RESULT:      -3.5     11.268     11.598
REMARK  1 active torsions:
REMARK  status: ('A' for Active; 'I' for Inactive)
REMARK    1  A    between atoms: O_1  and  N_3 
REMARK       I    between atoms: N_3  and  C_4 
ROOT
HETATM    1  O   UNK N   1      30.865  22.868  -1.722  0.00  0.00    -0.272 OA
HETATM    2  N   UNK N   1      31.953  21.312  -2.896  0.00  0.00    -0.238 N 
HETATM    3  C   UNK N   1      30.963  22.218  -2.750  0.00  0.00     0.236 C 
HETATM    4  C   UNK N   1      29.985  22.424  -3.853  0.00  0.00     0.119 C 
HETATM    5  H   UNK N   1      32.021  20.795  -3.731  0.00  0.00     0.197 HD
ENDROOT
BRANCH   2   6
HETATM    6  O   UNK N   1      32.845  21.110  -1.915  0.00  0.00    -0.287 OA
HETATM    7  H   UNK N   1      32.723  21.538  -1.053  0.00  0.00     0.244 HD
ENDBRANCH   2   6
TORSDOF 1
ENDMDL
MODEL 4
REMARK VINA RESULT:      -3.5     13.362     13.838
REMARK  1 active torsions:
REMARK  status: ('A' for Active; 'I' for Inactive)
REMARK    1  A    between atoms: O_1  and  N_3 
REMARK       I    between atoms: N_3  and  C_4 
ROOT
HETATM    1  O   UNK N   1      24.905  12.041  11.557  0.00  0.00    -0.272 OA
HETATM    2  N   UNK N   1      23.120  12.132  12.896  0.00  0.00    -0.238 N 
HETATM    3  C   UNK N   1      23.697  11.930  11.692  0.00  0.00     0.236 C 
HETATM    4  C   UNK N   1      22.851  11.570  10.521  0.00  0.00     0.119 C 
HETATM    5  H   UNK N   1      22.144  12.039  12.990  0.00  0.00     0.197 HD
ENDROOT
BRANCH   2   6
HETATM    6  O   UNK N   1      23.863  12.457  13.963  0.00  0.00    -0.287 OA
HETATM    7  H   UNK N   1      23.820  13.354  14.329  0.00  0.00     0.244 HD
ENDBRANCH   2   6
TORSDOF 1
ENDMDL
MODEL 5
REMARK VINA RESULT:      -3.4     14.177     14.633
REMARK  1 active torsions:
REMARK  status: ('A' for Active; 'I' for Inactive)
REMARK    1  A    between atoms: O_1  and  N_3 
REMARK       I    between atoms: N_3  and  C_4 
ROOT
HETATM    1  O   UNK N   1      34.434  17.892   6.392  0.00  0.00    -0.272 OA
HETATM    2  N   UNK N   1      34.179  18.621   8.486  0.00  0.00    -0.238 N 
HETATM    3  C   UNK N   1      33.747  17.946   7.399  0.00  0.00     0.236 C 
HETATM    4  C   UNK N   1      32.425  17.265   7.433  0.00  0.00     0.119 C 
HETATM    5  H   UNK N   1      33.615  18.658   9.293  0.00  0.00     0.197 HD
ENDROOT
BRANCH   2   6
HETATM    6  O   UNK N   1      35.366  19.243   8.478  0.00  0.00    -0.287 OA
HETATM    7  H   UNK N   1      35.417  20.194   8.664  0.00  0.00     0.244 HD
ENDBRANCH   2   6
TORSDOF 1
ENDMDL
MODEL 6
REMARK VINA RESULT:      -3.4     31.355     31.708
REMARK  1 active torsions:
REMARK  status: ('A' for Active; 'I' for Inactive)
REMARK    1  A    between atoms: O_1  and  N_3 
REMARK       I    between atoms: N_3  and  C_4 
ROOT
HETATM    1  O   UNK N   1      48.416  28.456  18.047  0.00  0.00    -0.272 OA
HETATM    2  N   UNK N   1      46.960  28.977  16.437  0.00  0.00    -0.238 N 
HETATM    3  C   UNK N   1      47.349  28.955  17.729  0.00  0.00     0.236 C 
HETATM    4  C   UNK N   1      46.468  29.546  18.774  0.00  0.00     0.119 C 
HETATM    5  H   UNK N   1      46.096  29.384  16.194  0.00  0.00     0.197 HD
ENDROOT
BRANCH   2   6
HETATM    6  O   UNK N   1      47.738  28.451  15.480  0.00  0.00    -0.287 OA
HETATM    7  H   UNK N   1      47.337  27.962  14.744  0.00  0.00     0.244 HD
ENDBRANCH   2   6
TORSDOF 1
ENDMDL
MODEL 7
REMARK VINA RESULT:      -3.3     12.857     13.225
REMARK  1 active torsions:
REMARK  status: ('A' for Active; 'I' for Inactive)
REMARK    1  A    between atoms: O_1  and  N_3 
REMARK       I    between atoms: N_3  and  C_4 
ROOT
HETATM    1  O   UNK N   1      23.708  11.955  12.953  0.00  0.00    -0.272 OA
HETATM    2  N   UNK N   1      24.265  12.664  10.911  0.00  0.00    -0.238 N 
HETATM    3  C   UNK N   1      23.369  12.196  11.806  0.00  0.00     0.236 C 
HETATM    4  C   UNK N   1      21.958  11.974  11.389  0.00  0.00     0.119 C 
HETATM    5  H   UNK N   1      23.977  12.854   9.988  0.00  0.00     0.197 HD
ENDROOT
BRANCH   2   6
HETATM    6  O   UNK N   1      25.541  12.871  11.265  0.00  0.00    -0.287 OA
HETATM    7  H   UNK N   1      26.259  12.518  10.717  0.00  0.00     0.244 HD
ENDBRANCH   2   6
TORSDOF 1
ENDMDL
MODEL 8
REMARK VINA RESULT:      -3.1      1.721      2.139
REMARK  1 active torsions:
REMARK  status: ('A' for Active; 'I' for Inactive)
REMARK    1  A    between atoms: O_1  and  N_3 
REMARK       I    between atoms: N_3  and  C_4 
ROOT
HETATM    1  O   UNK N   1      21.085  19.854   4.263  0.00  0.00    -0.272 OA
HETATM    2  N   UNK N   1      20.982  21.111   2.421  0.00  0.00    -0.238 N 
HETATM    3  C   UNK N   1      20.565  20.076   3.182  0.00  0.00     0.236 C 
HETATM    4  C   UNK N   1      19.463  19.202   2.696  0.00  0.00     0.119 C 
HETATM    5  H   UNK N   1      20.553  21.279   1.550  0.00  0.00     0.197 HD
ENDROOT
BRANCH   2   6
HETATM    6  O   UNK N   1      21.972  21.911   2.839  0.00  0.00    -0.287 OA
HETATM    7  H   UNK N   1      21.787  22.839   3.056  0.00  0.00     0.244 HD
ENDBRANCH   2   6
TORSDOF 1
ENDMDL
MODEL 9
REMARK VINA RESULT:      -2.9     11.783     12.362
REMARK  1 active torsions:
REMARK  status: ('A' for Active; 'I' for Inactive)
REMARK    1  A    between atoms: O_1  and  N_3 
REMARK       I    between atoms: N_3  and  C_4 
ROOT
HETATM    1  O   UNK N   1      19.913  13.268  10.211  0.00  0.00    -0.272 OA
HETATM    2  N   UNK N   1      21.005  11.922  11.618  0.00  0.00    -0.238 N 
HETATM    3  C   UNK N   1      20.976  12.828  10.618  0.00  0.00     0.236 C 
HETATM    4  C   UNK N   1      22.252  13.293  10.009  0.00  0.00     0.119 C 
HETATM    5  H   UNK N   1      21.870  11.575  11.937  0.00  0.00     0.197 HD
ENDROOT
BRANCH   2   6
HETATM    6  O   UNK N   1      19.868  11.489  12.182  0.00  0.00    -0.287 OA
HETATM    7  H   UNK N   1      19.041  11.501  11.675  0.00  0.00     0.244 HD
ENDBRANCH   2   6
TORSDOF 1
ENDMDL
