MODEL 1
REMARK VINA RESULT:      -5.5      0.000      0.000
REMARK  15 active torsions:
REMARK  status: ('A' for Active; 'I' for Inactive)
REMARK    1  A    between atoms: C_1  and  C_4 
REMARK    2  A    between atoms: C_4  and  C_7 
REMARK    3  A    between atoms: C_4  and  O_8 
REMARK    4  A    between atoms: C_7  and  C_10 
REMARK    5  A    between atoms: C_9  and  N_11 
REMARK    6  A    between atoms: C_10  and  C_12 
REMARK    7  A    between atoms: N_11  and  S_13 
REMARK    8  A    between atoms: C_12  and  N_14 
REMARK    9  A    between atoms: N_14  and  C_18 
REMARK   10  A    between atoms: N_14  and  C_20 
REMARK   11  A    between atoms: C_20  and  C_21 
REMARK   12  A    between atoms: C_21  and  C_22 
REMARK   13  A    between atoms: C_22  and  C_23 
REMARK   14  A    between atoms: C_23  and  C_24 
REMARK   15  A    between atoms: C_24  and  C_25 
ROOT
HETATM    1  C   UNK N   1      27.930  18.355   7.931  0.00  0.00     0.151 C 
ENDROOT
BRANCH   1   2
HETATM    2  C   UNK N   1      29.262  17.661   7.780  0.00  0.00    -0.029 A 
HETATM    3  C   UNK N   1      30.332  17.999   8.621  0.00  0.00     0.012 A 
HETATM    4  C   UNK N   1      31.575  17.383   8.467  0.00  0.00     0.031 A 
HETATM    5  C   UNK N   1      31.772  16.431   7.461  0.00  0.00     0.042 A 
HETATM    6  C   UNK N   1      30.703  16.092   6.617  0.00  0.00     0.031 A 
HETATM    7  C   UNK N   1      29.459  16.701   6.776  0.00  0.00     0.012 A 
BRANCH   5   8
HETATM    8  N   UNK N   1      33.048  15.841   7.302  0.00  0.00    -0.285 N 
HETATM    9  H   UNK N   1      33.340  15.170   7.960  0.00  0.00     0.178 HD
BRANCH   8  10
HETATM   10  S   UNK N   1      34.139  16.252   5.984  0.00  0.00     0.227 S 
HETATM   11  C   UNK N   1      33.625  15.767   4.315  0.00  0.00     0.186 C 
HETATM   12  O   UNK N   1      35.493  15.649   6.388  0.00  0.00    -0.206 OA
HETATM   13  O   UNK N   1      34.389  17.761   6.129  0.00  0.00    -0.206 OA
ENDBRANCH   8  10
ENDBRANCH   5   8
ENDBRANCH   1   2
BRANCH   1  14
HETATM   14  C   UNK N   1      27.956  19.783   7.412  0.00  0.00     0.038 C 
BRANCH  14  15
HETATM   15  C   UNK N   1      27.106  19.911   6.160  0.00  0.00     0.033 C 
BRANCH  15  16
HETATM   16  C   UNK N   1      27.958  19.689   4.925  0.00  0.00     0.272 C 
BRANCH  16  17
HETATM   17  N   UNK N   1      27.135  19.236   3.812  0.00  0.00     0.088 N 
BRANCH  17  18
HETATM   18  C   UNK N   1      27.031  17.786   3.880  0.00  0.00     0.268 C 
HETATM   19  C   UNK N   1      28.359  17.159   3.508  0.00  0.00     0.037 C 
ENDBRANCH  17  18
BRANCH  17  20
HETATM   20  C   UNK N   1      25.806  19.765   4.048  0.00  0.00     0.272 C 
BRANCH  20  21
HETATM   21  C   UNK N   1      25.226  20.281   2.745  0.00  0.00     0.030 C 
BRANCH  21  22
HETATM   22  C   UNK N   1      23.774  20.678   2.936  0.00  0.00     0.002 C 
BRANCH  22  23
HETATM   23  C   UNK N   1      22.964  19.512   3.466  0.00  0.00     0.000 C 
BRANCH  23  24
HETATM   24  C   UNK N   1      21.495  19.862   3.397  0.00  0.00    -0.000 C 
BRANCH  24  25
HETATM   25  C   UNK N   1      20.946  19.442   2.052  0.00  0.00    -0.005 C 
HETATM   26  C   UNK N   1      20.653  20.675   1.224  0.00  0.00     0.005 C 
ENDBRANCH  24  25
ENDBRANCH  23  24
ENDBRANCH  22  23
ENDBRANCH  21  22
ENDBRANCH  20  21
ENDBRANCH  17  20
ENDBRANCH  16  17
ENDBRANCH  15  16
ENDBRANCH  14  15
ENDBRANCH   1  14
BRANCH   1  27
HETATM   27  O   UNK N   1      27.516  18.368   9.265  0.00  0.00    -0.391 OA
HETATM   28  H   UNK N   1      26.624  18.073   9.506  0.00  0.00     0.210 HD
ENDBRANCH   1  27
TORSDOF 15
ENDMDL
MODEL 2
REMARK VINA RESULT:      -5.5     11.809     14.370
REMARK  15 active torsions:
REMARK  status: ('A' for Active; 'I' for Inactive)
REMARK    1  A    between atoms: C_1  and  C_4 
REMARK    2  A    between atoms: C_4  and  C_7 
REMARK    3  A    between atoms: C_4  and  O_8 
REMARK    4  A    between atoms: C_7  and  C_10 
REMARK    5  A    between atoms: C_9  and  N_11 
REMARK    6  A    between atoms: C_10  and  C_12 
REMARK    7  A    between atoms: N_11  and  S_13 
REMARK    8  A    between atoms: C_12  and  N_14 
REMARK    9  A    between atoms: N_14  and  C_18 
REMARK   10  A    between atoms: N_14  and  C_20 
REMARK   11  A    between atoms: C_20  and  C_21 
REMARK   12  A    between atoms: C_21  and  C_22 
REMARK   13  A    between atoms: C_22  and  C_23 
REMARK   14  A    between atoms: C_23  and  C_24 
REMARK   15  A    between atoms: C_24  and  C_25 
ROOT
HETATM    1  C   UNK N   1      26.315  23.167  -6.244  0.00  0.00     0.151 C 
ENDROOT
BRANCH   1   2
HETATM    2  C   UNK N   1      26.168  24.413  -5.406  0.00  0.00    -0.029 A 
HETATM    3  C   UNK N   1      25.579  25.563  -5.951  0.00  0.00     0.012 A 
HETATM    4  C   UNK N   1      25.468  26.729  -5.191  0.00  0.00     0.031 A 
HETATM    5  C   UNK N   1      25.957  26.768  -3.882  0.00  0.00     0.042 A 
HETATM    6  C   UNK N   1      26.548  25.619  -3.334  0.00  0.00     0.031 A 
HETATM    7  C   UNK N   1      26.652  24.452  -4.089  0.00  0.00     0.012 A 
BRANCH   5   8
HETATM    8  N   UNK N   1      25.862  27.969  -3.140  0.00  0.00    -0.285 N 
HETATM    9  H   UNK N   1      25.088  28.093  -2.545  0.00  0.00     0.178 HD
BRANCH   8  10
HETATM   10  S   UNK N   1      27.062  29.253  -3.231  0.00  0.00     0.227 S 
HETATM   11  C   UNK N   1      26.514  30.837  -3.919  0.00  0.00     0.186 C 
HETATM   12  O   UNK N   1      28.238  28.642  -4.010  0.00  0.00    -0.206 OA
HETATM   13  O   UNK N   1      27.630  29.371  -1.809  0.00  0.00    -0.206 OA
ENDBRANCH   8  10
ENDBRANCH   5   8
ENDBRANCH   1   2
BRANCH   1  14
HETATM   14  C   UNK N   1      27.186  23.388  -7.469  0.00  0.00     0.038 C 
BRANCH  14  15
HETATM   15  C   UNK N   1      28.600  22.897  -7.213  0.00  0.00     0.033 C 
BRANCH  15  16
HETATM   16  C   UNK N   1      28.668  21.391  -7.377  0.00  0.00     0.272 C 
BRANCH  16  17
HETATM   17  N   UNK N   1      29.638  20.820  -6.451  0.00  0.00     0.088 N 
BRANCH  17  18
HETATM   18  C   UNK N   1      30.382  19.784  -7.150  0.00  0.00     0.268 C 
HETATM   19  C   UNK N   1      29.418  18.816  -7.807  0.00  0.00     0.037 C 
ENDBRANCH  17  18
BRANCH  17  20
HETATM   20  C   UNK N   1      30.579  21.879  -6.144  0.00  0.00     0.272 C 
BRANCH  20  21
HETATM   21  C   UNK N   1      31.338  21.533  -4.878  0.00  0.00     0.030 C 
BRANCH  21  22
HETATM   22  C   UNK N   1      30.370  21.228  -3.750  0.00  0.00     0.002 C 
BRANCH  22  23
HETATM   23  C   UNK N   1      29.718  22.500  -3.244  0.00  0.00     0.000 C 
BRANCH  23  24
HETATM   24  C   UNK N   1      30.797  23.496  -2.888  0.00  0.00    -0.000 C 
BRANCH  24  25
HETATM   25  C   UNK N   1      30.436  24.848  -3.462  0.00  0.00    -0.005 C 
HETATM   26  C   UNK N   1      31.521  25.292  -4.420  0.00  0.00     0.005 C 
ENDBRANCH  24  25
ENDBRANCH  23  24
ENDBRANCH  22  23
ENDBRANCH  21  22
ENDBRANCH  20  21
ENDBRANCH  17  20
ENDBRANCH  16  17
ENDBRANCH  15  16
ENDBRANCH  14  15
ENDBRANCH   1  14
BRANCH   1  27
HETATM   27  O   UNK N   1      25.070  22.687  -6.658  0.00  0.00    -0.391 OA
HETATM   28  H   UNK N   1      24.673  23.000  -7.486  0.00  0.00     0.210 HD
ENDBRANCH   1  27
TORSDOF 15
ENDMDL
MODEL 3
REMARK VINA RESULT:      -5.4     11.863     14.803
REMARK  15 active torsions:
REMARK  status: ('A' for Active; 'I' for Inactive)
REMARK    1  A    between atoms: C_1  and  C_4 
REMARK    2  A    between atoms: C_4  and  C_7 
REMARK    3  A    between atoms: C_4  and  O_8 
REMARK    4  A    between atoms: C_7  and  C_10 
REMARK    5  A    between atoms: C_9  and  N_11 
REMARK    6  A    between atoms: C_10  and  C_12 
REMARK    7  A    between atoms: N_11  and  S_13 
REMARK    8  A    between atoms: C_12  and  N_14 
REMARK    9  A    between atoms: N_14  and  C_18 
REMARK   10  A    between atoms: N_14  and  C_20 
REMARK   11  A    between atoms: C_20  and  C_21 
REMARK   12  A    between atoms: C_21  and  C_22 
REMARK   13  A    between atoms: C_22  and  C_23 
REMARK   14  A    between atoms: C_23  and  C_24 
REMARK   15  A    between atoms: C_24  and  C_25 
ROOT
HETATM    1  C   UNK N   1      25.565  27.744  -3.851  0.00  0.00     0.151 C 
ENDROOT
BRANCH   1   2
HETATM    2  C   UNK N   1      25.776  26.532  -4.724  0.00  0.00    -0.029 A 
HETATM    3  C   UNK N   1      26.072  25.289  -4.146  0.00  0.00     0.012 A 
HETATM    4  C   UNK N   1      26.299  24.171  -4.950  0.00  0.00     0.031 A 
HETATM    5  C   UNK N   1      26.247  24.280  -6.343  0.00  0.00     0.042 A 
HETATM    6  C   UNK N   1      25.951  25.522  -6.924  0.00  0.00     0.031 A 
HETATM    7  C   UNK N   1      25.717  26.639  -6.123  0.00  0.00     0.012 A 
BRANCH   5   8
HETATM    8  N   UNK N   1      26.510  23.141  -7.140  0.00  0.00    -0.285 N 
HETATM    9  H   UNK N   1      27.446  22.878  -7.290  0.00  0.00     0.178 HD
BRANCH   8  10
HETATM   10  S   UNK N   1      25.240  22.171  -7.878  0.00  0.00     0.227 S 
HETATM   11  C   UNK N   1      25.771  20.774  -8.904  0.00  0.00     0.186 C 
HETATM   12  O   UNK N   1      24.369  23.177  -8.647  0.00  0.00    -0.206 OA
HETATM   13  O   UNK N   1      24.326  21.758  -6.715  0.00  0.00    -0.206 OA
ENDBRANCH   8  10
ENDBRANCH   5   8
ENDBRANCH   1   2
BRANCH   1  14
HETATM   14  C   UNK N   1      26.289  28.973  -4.377  0.00  0.00     0.038 C 
BRANCH  14  15
HETATM   15  C   UNK N   1      27.441  29.345  -3.461  0.00  0.00     0.033 C 
BRANCH  15  16
HETATM   16  C   UNK N   1      28.738  29.393  -4.246  0.00  0.00     0.272 C 
BRANCH  16  17
HETATM   17  N   UNK N   1      28.963  28.131  -4.938  0.00  0.00     0.088 N 
BRANCH  17  18
HETATM   18  C   UNK N   1      29.596  28.417  -6.216  0.00  0.00     0.268 C 
HETATM   19  C   UNK N   1      28.548  28.855  -7.220  0.00  0.00     0.037 C 
ENDBRANCH  17  18
BRANCH  17  20
HETATM   20  C   UNK N   1      29.930  27.399  -4.144  0.00  0.00     0.272 C 
BRANCH  20  21
HETATM   21  C   UNK N   1      29.516  25.942  -4.058  0.00  0.00     0.030 C 
BRANCH  21  22
HETATM   22  C   UNK N   1      30.737  25.058  -3.884  0.00  0.00     0.002 C 
BRANCH  22  23
HETATM   23  C   UNK N   1      30.426  23.887  -2.973  0.00  0.00     0.000 C 
BRANCH  23  24
HETATM   24  C   UNK N   1      29.697  22.827  -3.766  0.00  0.00    -0.000 C 
BRANCH  24  25
HETATM   25  C   UNK N   1      30.508  21.551  -3.756  0.00  0.00    -0.005 C 
HETATM   26  C   UNK N   1      31.735  21.744  -2.892  0.00  0.00     0.005 C 
ENDBRANCH  24  25
ENDBRANCH  23  24
ENDBRANCH  22  23
ENDBRANCH  21  22
ENDBRANCH  20  21
ENDBRANCH  17  20
ENDBRANCH  16  17
ENDBRANCH  15  16
ENDBRANCH  14  15
ENDBRANCH   1  14
BRANCH   1  27
HETATM   27  O   UNK N   1      25.984  27.502  -2.540  0.00  0.00    -0.391 OA
HETATM   28  H   UNK N   1      25.826  26.640  -2.125  0.00  0.00     0.210 HD
ENDBRANCH   1  27
TORSDOF 15
ENDMDL
MODEL 4
REMARK VINA RESULT:      -5.4     10.543     12.070
REMARK  15 active torsions:
REMARK  status: ('A' for Active; 'I' for Inactive)
REMARK    1  A    between atoms: C_1  and  C_4 
REMARK    2  A    between atoms: C_4  and  C_7 
REMARK    3  A    between atoms: C_4  and  O_8 
REMARK    4  A    between atoms: C_7  and  C_10 
REMARK    5  A    between atoms: C_9  and  N_11 
REMARK    6  A    between atoms: C_10  and  C_12 
REMARK    7  A    between atoms: N_11  and  S_13 
REMARK    8  A    between atoms: C_12  and  N_14 
REMARK    9  A    between atoms: N_14  and  C_18 
REMARK   10  A    between atoms: N_14  and  C_20 
REMARK   11  A    between atoms: C_20  and  C_21 
REMARK   12  A    between atoms: C_21  and  C_22 
REMARK   13  A    between atoms: C_22  and  C_23 
REMARK   14  A    between atoms: C_23  and  C_24 
REMARK   15  A    between atoms: C_24  and  C_25 
ROOT
HETATM    1  C   UNK N   1      29.782  22.796  -2.676  0.00  0.00     0.151 C 
ENDROOT
BRANCH   1   2
HETATM    2  C   UNK N   1      30.828  22.073  -3.488  0.00  0.00    -0.029 A 
HETATM    3  C   UNK N   1      31.957  22.760  -3.956  0.00  0.00     0.012 A 
HETATM    4  C   UNK N   1      32.913  22.104  -4.734  0.00  0.00     0.031 A 
HETATM    5  C   UNK N   1      32.748  20.756  -5.067  0.00  0.00     0.042 A 
HETATM    6  C   UNK N   1      31.619  20.066  -4.601  0.00  0.00     0.031 A 
HETATM    7  C   UNK N   1      30.667  20.718  -3.818  0.00  0.00     0.012 A 
BRANCH   5   8
HETATM    8  N   UNK N   1      33.713  20.119  -5.882  0.00  0.00    -0.285 N 
HETATM    9  H   UNK N   1      33.527  20.024  -6.844  0.00  0.00     0.178 HD
BRANCH   8  10
HETATM   10  S   UNK N   1      35.231  19.484  -5.256  0.00  0.00     0.227 S 
HETATM   11  C   UNK N   1      36.472  20.697  -4.735  0.00  0.00     0.186 C 
HETATM   12  O   UNK N   1      35.747  18.539  -6.353  0.00  0.00    -0.206 OA
HETATM   13  O   UNK N   1      34.825  18.510  -4.139  0.00  0.00    -0.206 OA
ENDBRANCH   8  10
ENDBRANCH   5   8
ENDBRANCH   1   2
BRANCH   1  14
HETATM   14  C   UNK N   1      29.346  24.102  -3.320  0.00  0.00     0.038 C 
BRANCH  14  15
HETATM   15  C   UNK N   1      27.833  24.159  -3.437  0.00  0.00     0.033 C 
BRANCH  15  16
HETATM   16  C   UNK N   1      27.426  25.205  -4.457  0.00  0.00     0.272 C 
BRANCH  16  17
HETATM   17  N   UNK N   1      26.074  24.952  -4.937  0.00  0.00     0.088 N 
BRANCH  17  18
HETATM   18  C   UNK N   1      25.813  25.842  -6.058  0.00  0.00     0.268 C 
HETATM   19  C   UNK N   1      24.820  26.909  -5.645  0.00  0.00     0.037 C 
ENDBRANCH  17  18
BRANCH  17  20
HETATM   20  C   UNK N   1      26.076  23.601  -5.463  0.00  0.00     0.272 C 
BRANCH  20  21
HETATM   21  C   UNK N   1      26.436  23.631  -6.937  0.00  0.00     0.030 C 
BRANCH  21  22
HETATM   22  C   UNK N   1      27.234  22.396  -7.309  0.00  0.00     0.002 C 
BRANCH  22  23
HETATM   23  C   UNK N   1      28.538  22.347  -6.538  0.00  0.00     0.000 C 
BRANCH  23  24
HETATM   24  C   UNK N   1      29.500  21.429  -7.256  0.00  0.00    -0.000 C 
BRANCH  24  25
HETATM   25  C   UNK N   1      28.805  20.122  -7.564  0.00  0.00    -0.005 C 
HETATM   26  C   UNK N   1      29.841  19.069  -7.895  0.00  0.00     0.005 C 
ENDBRANCH  24  25
ENDBRANCH  23  24
ENDBRANCH  22  23
ENDBRANCH  21  22
ENDBRANCH  20  21
ENDBRANCH  17  20
ENDBRANCH  16  17
ENDBRANCH  15  16
ENDBRANCH  14  15
ENDBRANCH   1  14
BRANCH   1  27
HETATM   27  O   UNK N   1      30.241  23.063  -1.384  0.00  0.00    -0.391 OA
HETATM   28  H   UNK N   1      30.992  22.571  -1.017  0.00  0.00     0.210 HD
ENDBRANCH   1  27
TORSDOF 15
ENDMDL
MODEL 5
REMARK VINA RESULT:      -5.3     10.731     11.775
REMARK  15 active torsions:
REMARK  status: ('A' for Active; 'I' for Inactive)
REMARK    1  A    between atoms: C_1  and  C_4 
REMARK    2  A    between atoms: C_4  and  C_7 
REMARK    3  A    between atoms: C_4  and  O_8 
REMARK    4  A    between atoms: C_7  and  C_10 
REMARK    5  A    between atoms: C_9  and  N_11 
REMARK    6  A    between atoms: C_10  and  C_12 
REMARK    7  A    between atoms: N_11  and  S_13 
REMARK    8  A    between atoms: C_12  and  N_14 
REMARK    9  A    between atoms: N_14  and  C_18 
REMARK   10  A    between atoms: N_14  and  C_20 
REMARK   11  A    between atoms: C_20  and  C_21 
REMARK   12  A    between atoms: C_21  and  C_22 
REMARK   13  A    between atoms: C_22  and  C_23 
REMARK   14  A    between atoms: C_23  and  C_24 
REMARK   15  A    between atoms: C_24  and  C_25 
ROOT
HETATM    1  C   UNK N   1      30.181  23.139  -2.843  0.00  0.00     0.151 C 
ENDROOT
BRANCH   1   2
HETATM    2  C   UNK N   1      31.069  22.173  -3.587  0.00  0.00    -0.029 A 
HETATM    3  C   UNK N   1      32.315  22.592  -4.075  0.00  0.00     0.012 A 
HETATM    4  C   UNK N   1      33.128  21.710  -4.791  0.00  0.00     0.031 A 
HETATM    5  C   UNK N   1      32.701  20.402  -5.042  0.00  0.00     0.042 A 
HETATM    6  C   UNK N   1      31.455  19.981  -4.555  0.00  0.00     0.031 A 
HETATM    7  C   UNK N   1      30.646  20.857  -3.834  0.00  0.00     0.012 A 
BRANCH   5   8
HETATM    8  N   UNK N   1      33.527  19.535  -5.795  0.00  0.00    -0.285 N 
HETATM    9  H   UNK N   1      33.433  19.531  -6.775  0.00  0.00     0.178 HD
BRANCH   8  10
HETATM   10  S   UNK N   1      34.713  18.460  -5.063  0.00  0.00     0.227 S 
HETATM   11  C   UNK N   1      35.460  17.210  -6.142  0.00  0.00     0.186 C 
HETATM   12  O   UNK N   1      33.997  17.847  -3.850  0.00  0.00    -0.206 OA
HETATM   13  O   UNK N   1      35.744  19.392  -4.407  0.00  0.00    -0.206 OA
ENDBRANCH   8  10
ENDBRANCH   5   8
ENDBRANCH   1   2
BRANCH   1  14
HETATM   14  C   UNK N   1      30.362  24.574  -3.312  0.00  0.00     0.038 C 
BRANCH  14  15
HETATM   15  C   UNK N   1      29.084  25.091  -3.949  0.00  0.00     0.033 C 
BRANCH  15  16
HETATM   16  C   UNK N   1      29.212  25.081  -5.460  0.00  0.00     0.272 C 
BRANCH  16  17
HETATM   17  N   UNK N   1      27.938  24.735  -6.078  0.00  0.00     0.088 N 
BRANCH  17  18
HETATM   18  C   UNK N   1      28.190  23.767  -7.134  0.00  0.00     0.268 C 
HETATM   19  C   UNK N   1      28.582  22.435  -6.524  0.00  0.00     0.037 C 
ENDBRANCH  17  18
BRANCH  17  20
HETATM   20  C   UNK N   1      27.164  24.055  -5.059  0.00  0.00     0.272 C 
BRANCH  20  21
HETATM   21  C   UNK N   1      25.864  24.801  -4.827  0.00  0.00     0.030 C 
BRANCH  21  22
HETATM   22  C   UNK N   1      25.464  25.563  -6.077  0.00  0.00     0.002 C 
BRANCH  22  23
HETATM   23  C   UNK N   1      24.909  26.927  -5.719  0.00  0.00     0.000 C 
BRANCH  23  24
HETATM   24  C   UNK N   1      26.052  27.836  -5.332  0.00  0.00    -0.000 C 
BRANCH  24  25
HETATM   25  C   UNK N   1      25.796  28.399  -3.952  0.00  0.00    -0.005 C 
HETATM   26  C   UNK N   1      27.028  28.203  -3.095  0.00  0.00     0.005 C 
ENDBRANCH  24  25
ENDBRANCH  23  24
ENDBRANCH  22  23
ENDBRANCH  21  22
ENDBRANCH  20  21
ENDBRANCH  17  20
ENDBRANCH  16  17
ENDBRANCH  15  16
ENDBRANCH  14  15
ENDBRANCH   1  14
BRANCH   1  27
HETATM   27  O   UNK N   1      30.415  23.084  -1.467  0.00  0.00    -0.391 OA
HETATM   28  H   UNK N   1      29.701  23.271  -0.838  0.00  0.00     0.210 HD
ENDBRANCH   1  27
TORSDOF 15
ENDMDL
MODEL 6
REMARK VINA RESULT:      -5.3      4.603      6.739
REMARK  15 active torsions:
REMARK  status: ('A' for Active; 'I' for Inactive)
REMARK    1  A    between atoms: C_1  and  C_4 
REMARK    2  A    between atoms: C_4  and  C_7 
REMARK    3  A    between atoms: C_4  and  O_8 
REMARK    4  A    between atoms: C_7  and  C_10 
REMARK    5  A    between atoms: C_9  and  N_11 
REMARK    6  A    between atoms: C_10  and  C_12 
REMARK    7  A    between atoms: N_11  and  S_13 
REMARK    8  A    between atoms: C_12  and  N_14 
REMARK    9  A    between atoms: N_14  and  C_18 
REMARK   10  A    between atoms: N_14  and  C_20 
REMARK   11  A    between atoms: C_20  and  C_21 
REMARK   12  A    between atoms: C_21  and  C_22 
REMARK   13  A    between atoms: C_22  and  C_23 
REMARK   14  A    between atoms: C_23  and  C_24 
REMARK   15  A    between atoms: C_24  and  C_25 
ROOT
HETATM    1  C   UNK N   1      34.325  16.713   8.286  0.00  0.00     0.151 C 
ENDROOT
BRANCH   1   2
HETATM    2  C   UNK N   1      35.019  15.895   9.347  0.00  0.00    -0.029 A 
HETATM    3  C   UNK N   1      35.345  16.474  10.583  0.00  0.00     0.012 A 
HETATM    4  C   UNK N   1      36.014  15.732  11.558  0.00  0.00     0.031 A 
HETATM    5  C   UNK N   1      36.380  14.406  11.308  0.00  0.00     0.042 A 
HETATM    6  C   UNK N   1      36.056  13.824  10.073  0.00  0.00     0.031 A 
HETATM    7  C   UNK N   1      35.381  14.562   9.101  0.00  0.00     0.012 A 
BRANCH   5   8
HETATM    8  N   UNK N   1      37.085  13.681  12.298  0.00  0.00    -0.285 N 
HETATM    9  H   UNK N   1      37.994  13.365  12.091  0.00  0.00     0.178 HD
BRANCH   8  10
HETATM   10  S   UNK N   1      36.412  13.315  13.882  0.00  0.00     0.227 S 
HETATM   11  C   UNK N   1      36.945  11.767  14.660  0.00  0.00     0.186 C 
HETATM   12  O   UNK N   1      34.889  13.391  13.693  0.00  0.00    -0.206 OA
HETATM   13  O   UNK N   1      36.705  14.557  14.737  0.00  0.00    -0.206 OA
ENDBRANCH   8  10
ENDBRANCH   5   8
ENDBRANCH   1   2
BRANCH   1  14
HETATM   14  C   UNK N   1      32.827  16.464   8.247  0.00  0.00     0.038 C 
BRANCH  14  15
HETATM   15  C   UNK N   1      32.100  17.675   7.690  0.00  0.00     0.033 C 
BRANCH  15  16
HETATM   16  C   UNK N   1      30.909  17.234   6.860  0.00  0.00     0.272 C 
BRANCH  16  17
HETATM   17  N   UNK N   1      29.725  17.097   7.700  0.00  0.00     0.088 N 
BRANCH  17  18
HETATM   18  C   UNK N   1      29.599  18.298   8.511  0.00  0.00     0.268 C 
HETATM   19  C   UNK N   1      28.152  18.491   8.919  0.00  0.00     0.037 C 
ENDBRANCH  17  18
BRANCH  17  20
HETATM   20  C   UNK N   1      28.589  17.076   6.799  0.00  0.00     0.272 C 
BRANCH  20  21
HETATM   21  C   UNK N   1      28.982  17.694   5.471  0.00  0.00     0.030 C 
BRANCH  21  22
HETATM   22  C   UNK N   1      27.796  18.411   4.853  0.00  0.00     0.002 C 
BRANCH  22  23
HETATM   23  C   UNK N   1      28.102  19.883   4.657  0.00  0.00     0.000 C 
BRANCH  23  24
HETATM   24  C   UNK N   1      26.868  20.689   4.989  0.00  0.00    -0.000 C 
BRANCH  24  25
HETATM   25  C   UNK N   1      27.176  21.622   6.139  0.00  0.00    -0.005 C 
HETATM   26  C   UNK N   1      26.254  21.310   7.298  0.00  0.00     0.005 C 
ENDBRANCH  24  25
ENDBRANCH  23  24
ENDBRANCH  22  23
ENDBRANCH  21  22
ENDBRANCH  20  21
ENDBRANCH  17  20
ENDBRANCH  16  17
ENDBRANCH  15  16
ENDBRANCH  14  15
ENDBRANCH   1  14
BRANCH   1  27
HETATM   27  O   UNK N   1      34.858  16.454   7.020  0.00  0.00    -0.391 OA
HETATM   28  H   UNK N   1      34.474  16.866   6.231  0.00  0.00     0.210 HD
ENDBRANCH   1  27
TORSDOF 15
ENDMDL
MODEL 7
REMARK VINA RESULT:      -5.2      7.523     10.405
REMARK  15 active torsions:
REMARK  status: ('A' for Active; 'I' for Inactive)
REMARK    1  A    between atoms: C_1  and  C_4 
REMARK    2  A    between atoms: C_4  and  C_7 
REMARK    3  A    between atoms: C_4  and  O_8 
REMARK    4  A    between atoms: C_7  and  C_10 
REMARK    5  A    between atoms: C_9  and  N_11 
REMARK    6  A    between atoms: C_10  and  C_12 
REMARK    7  A    between atoms: N_11  and  S_13 
REMARK    8  A    between atoms: C_12  and  N_14 
REMARK    9  A    between atoms: N_14  and  C_18 
REMARK   10  A    between atoms: N_14  and  C_20 
REMARK   11  A    between atoms: C_20  and  C_21 
REMARK   12  A    between atoms: C_21  and  C_22 
REMARK   13  A    between atoms: C_22  and  C_23 
REMARK   14  A    between atoms: C_23  and  C_24 
REMARK   15  A    between atoms: C_24  and  C_25 
ROOT
HETATM    1  C   UNK N   1      20.165  16.297   8.533  0.00  0.00     0.151 C 
ENDROOT
BRANCH   1   2
HETATM    2  C   UNK N   1      20.488  16.626   7.097  0.00  0.00    -0.029 A 
HETATM    3  C   UNK N   1      21.123  17.835   6.776  0.00  0.00     0.012 A 
HETATM    4  C   UNK N   1      21.397  18.159   5.445  0.00  0.00     0.031 A 
HETATM    5  C   UNK N   1      21.027  17.288   4.416  0.00  0.00     0.042 A 
HETATM    6  C   UNK N   1      20.391  16.078   4.734  0.00  0.00     0.031 A 
HETATM    7  C   UNK N   1      20.124  15.750   6.063  0.00  0.00     0.012 A 
BRANCH   5   8
HETATM    8  N   UNK N   1      21.286  17.650   3.073  0.00  0.00    -0.285 N 
HETATM    9  H   UNK N   1      21.934  17.115   2.559  0.00  0.00     0.178 HD
BRANCH   8  10
HETATM   10  S   UNK N   1      20.507  19.012   2.277  0.00  0.00     0.227 S 
HETATM   11  C   UNK N   1      21.160  20.661   2.652  0.00  0.00     0.186 C 
HETATM   12  O   UNK N   1      19.015  18.871   2.620  0.00  0.00    -0.206 OA
HETATM   13  O   UNK N   1      20.539  18.671   0.780  0.00  0.00    -0.206 OA
ENDBRANCH   8  10
ENDBRANCH   5   8
ENDBRANCH   1   2
BRANCH   1  14
HETATM   14  C   UNK N   1      21.093  15.242   9.111  0.00  0.00     0.038 C 
BRANCH  14  15
HETATM   15  C   UNK N   1      20.298  14.048   9.608  0.00  0.00     0.033 C 
BRANCH  15  16
HETATM   16  C   UNK N   1      21.232  13.008  10.199  0.00  0.00     0.272 C 
BRANCH  16  17
HETATM   17  N   UNK N   1      22.482  12.961   9.452  0.00  0.00     0.088 N 
BRANCH  17  18
HETATM   18  C   UNK N   1      23.568  12.733  10.393  0.00  0.00     0.268 C 
HETATM   19  C   UNK N   1      23.033  12.049  11.636  0.00  0.00     0.037 C 
ENDBRANCH  17  18
BRANCH  17  20
HETATM   20  C   UNK N   1      22.406  11.788   8.604  0.00  0.00     0.272 C 
BRANCH  20  21
HETATM   21  C   UNK N   1      23.182  12.035   7.325  0.00  0.00     0.030 C 
BRANCH  21  22
HETATM   22  C   UNK N   1      22.381  12.917   6.385  0.00  0.00     0.002 C 
BRANCH  22  23
HETATM   23  C   UNK N   1      23.295  13.848   5.614  0.00  0.00     0.000 C 
BRANCH  23  24
HETATM   24  C   UNK N   1      23.786  14.935   6.541  0.00  0.00    -0.000 C 
BRANCH  24  25
HETATM   25  C   UNK N   1      24.394  16.052   5.723  0.00  0.00    -0.005 C 
HETATM   26  C   UNK N   1      24.348  15.680   4.256  0.00  0.00     0.005 C 
ENDBRANCH  24  25
ENDBRANCH  23  24
ENDBRANCH  22  23
ENDBRANCH  21  22
ENDBRANCH  20  21
ENDBRANCH  17  20
ENDBRANCH  16  17
ENDBRANCH  15  16
ENDBRANCH  14  15
ENDBRANCH   1  14
BRANCH   1  27
HETATM   27  O   UNK N   1      18.845  15.858   8.667  0.00  0.00    -0.391 OA
HETATM   28  H   UNK N   1      18.107  16.430   8.405  0.00  0.00     0.210 HD
ENDBRANCH   1  27
TORSDOF 15
ENDMDL
MODEL 8
REMARK VINA RESULT:      -5.2     11.226     13.605
REMARK  15 active torsions:
REMARK  status: ('A' for Active; 'I' for Inactive)
REMARK    1  A    between atoms: C_1  and  C_4 
REMARK    2  A    between atoms: C_4  and  C_7 
REMARK    3  A    between atoms: C_4  and  O_8 
REMARK    4  A    between atoms: C_7  and  C_10 
REMARK    5  A    between atoms: C_9  and  N_11 
REMARK    6  A    between atoms: C_10  and  C_12 
REMARK    7  A    between atoms: N_11  and  S_13 
REMARK    8  A    between atoms: C_12  and  N_14 
REMARK    9  A    between atoms: N_14  and  C_18 
REMARK   10  A    between atoms: N_14  and  C_20 
REMARK   11  A    between atoms: C_20  and  C_21 
REMARK   12  A    between atoms: C_21  and  C_22 
REMARK   13  A    between atoms: C_22  and  C_23 
REMARK   14  A    between atoms: C_23  and  C_24 
REMARK   15  A    between atoms: C_24  and  C_25 
ROOT
HETATM    1  C   UNK N   1      30.601  22.868  -2.864  0.00  0.00     0.151 C 
ENDROOT
BRANCH   1   2
HETATM    2  C   UNK N   1      29.792  24.043  -3.354  0.00  0.00    -0.029 A 
HETATM    3  C   UNK N   1      30.433  25.235  -3.722  0.00  0.00     0.012 A 
HETATM    4  C   UNK N   1      29.689  26.337  -4.146  0.00  0.00     0.031 A 
HETATM    5  C   UNK N   1      28.293  26.269  -4.196  0.00  0.00     0.042 A 
HETATM    6  C   UNK N   1      27.649  25.078  -3.828  0.00  0.00     0.031 A 
HETATM    7  C   UNK N   1      28.392  23.975  -3.411  0.00  0.00     0.012 A 
BRANCH   5   8
HETATM    8  N   UNK N   1      27.556  27.407  -4.601  0.00  0.00    -0.285 N 
HETATM    9  H   UNK N   1      27.430  27.567  -5.564  0.00  0.00     0.178 HD
BRANCH   8  10
HETATM   10  S   UNK N   1      26.854  28.552  -3.463  0.00  0.00     0.227 S 
HETATM   11  C   UNK N   1      27.986  29.324  -2.276  0.00  0.00     0.186 C 
HETATM   12  O   UNK N   1      25.711  27.784  -2.781  0.00  0.00    -0.206 OA
HETATM   13  O   UNK N   1      26.101  29.569  -4.334  0.00  0.00    -0.206 OA
ENDBRANCH   8  10
ENDBRANCH   5   8
ENDBRANCH   1   2
BRANCH   1  14
HETATM   14  C   UNK N   1      30.016  21.536  -3.304  0.00  0.00     0.038 C 
BRANCH  14  15
HETATM   15  C   UNK N   1      30.988  20.799  -4.208  0.00  0.00     0.033 C 
BRANCH  15  16
HETATM   16  C   UNK N   1      30.538  20.902  -5.653  0.00  0.00     0.272 C 
BRANCH  16  17
HETATM   17  N   UNK N   1      31.614  21.424  -6.487  0.00  0.00     0.088 N 
BRANCH  17  18
HETATM   18  C   UNK N   1      31.493  20.834  -7.811  0.00  0.00     0.268 C 
HETATM   19  C   UNK N   1      30.668  19.566  -7.733  0.00  0.00     0.037 C 
ENDBRANCH  17  18
BRANCH  17  20
HETATM   20  C   UNK N   1      31.361  22.844  -6.634  0.00  0.00     0.272 C 
BRANCH  20  21
HETATM   21  C   UNK N   1      29.878  23.075  -6.854  0.00  0.00     0.030 C 
BRANCH  21  22
HETATM   22  C   UNK N   1      29.642  24.452  -7.446  0.00  0.00     0.002 C 
BRANCH  22  23
HETATM   23  C   UNK N   1      28.160  24.767  -7.497  0.00  0.00     0.000 C 
BRANCH  23  24
HETATM   24  C   UNK N   1      27.378  23.494  -7.272  0.00  0.00    -0.000 C 
BRANCH  24  25
HETATM   25  C   UNK N   1      26.003  23.839  -6.746  0.00  0.00    -0.005 C 
HETATM   26  C   UNK N   1      25.719  25.302  -7.010  0.00  0.00     0.005 C 
ENDBRANCH  24  25
ENDBRANCH  23  24
ENDBRANCH  22  23
ENDBRANCH  21  22
ENDBRANCH  20  21
ENDBRANCH  17  20
ENDBRANCH  16  17
ENDBRANCH  15  16
ENDBRANCH  14  15
ENDBRANCH   1  14
BRANCH   1  27
HETATM   27  O   UNK N   1      30.708  22.873  -1.470  0.00  0.00    -0.391 OA
HETATM   28  H   UNK N   1      29.921  22.757  -0.916  0.00  0.00     0.210 HD
ENDBRANCH   1  27
TORSDOF 15
ENDMDL
MODEL 9
REMARK VINA RESULT:      -5.2      3.289      4.761
REMARK  15 active torsions:
REMARK  status: ('A' for Active; 'I' for Inactive)
REMARK    1  A    between atoms: C_1  and  C_4 
REMARK    2  A    between atoms: C_4  and  C_7 
REMARK    3  A    between atoms: C_4  and  O_8 
REMARK    4  A    between atoms: C_7  and  C_10 
REMARK    5  A    between atoms: C_9  and  N_11 
REMARK    6  A    between atoms: C_10  and  C_12 
REMARK    7  A    between atoms: N_11  and  S_13 
REMARK    8  A    between atoms: C_12  and  N_14 
REMARK    9  A    between atoms: N_14  and  C_18 
REMARK   10  A    between atoms: N_14  and  C_20 
REMARK   11  A    between atoms: C_20  and  C_21 
REMARK   12  A    between atoms: C_21  and  C_22 
REMARK   13  A    between atoms: C_22  and  C_23 
REMARK   14  A    between atoms: C_23  and  C_24 
REMARK   15  A    between atoms: C_24  and  C_25 
ROOT
HETATM    1  C   UNK N   1      31.234  17.147   4.303  0.00  0.00     0.151 C 
ENDROOT
BRANCH   1   2
HETATM    2  C   UNK N   1      31.926  17.230   5.641  0.00  0.00    -0.029 A 
HETATM    3  C   UNK N   1      33.296  17.519   5.709  0.00  0.00     0.012 A 
HETATM    4  C   UNK N   1      33.949  17.567   6.943  0.00  0.00     0.031 A 
HETATM    5  C   UNK N   1      33.245  17.313   8.124  0.00  0.00     0.042 A 
HETATM    6  C   UNK N   1      31.874  17.024   8.059  0.00  0.00     0.031 A 
HETATM    7  C   UNK N   1      31.219  16.983   6.828  0.00  0.00     0.012 A 
BRANCH   5   8
HETATM    8  N   UNK N   1      33.932  17.337   9.361  0.00  0.00    -0.285 N 
HETATM    9  H   UNK N   1      33.810  18.115   9.951  0.00  0.00     0.178 HD
BRANCH   8  10
HETATM   10  S   UNK N   1      34.996  16.041   9.894  0.00  0.00     0.227 S 
HETATM   11  C   UNK N   1      35.452  14.796   8.658  0.00  0.00     0.186 C 
HETATM   12  O   UNK N   1      34.297  15.433  11.120  0.00  0.00    -0.206 OA
HETATM   13  O   UNK N   1      36.207  16.751  10.518  0.00  0.00    -0.206 OA
ENDBRANCH   8  10
ENDBRANCH   5   8
ENDBRANCH   1   2
BRANCH   1  14
HETATM   14  C   UNK N   1      30.781  15.736   3.968  0.00  0.00     0.038 C 
BRANCH  14  15
HETATM   15  C   UNK N   1      29.906  15.737   2.728  0.00  0.00     0.033 C 
BRANCH  15  16
HETATM   16  C   UNK N   1      28.617  14.983   2.997  0.00  0.00     0.272 C 
BRANCH  16  17
HETATM   17  N   UNK N   1      27.466  15.778   2.588  0.00  0.00     0.088 N 
BRANCH  17  18
HETATM   18  C   UNK N   1      26.497  14.891   1.963  0.00  0.00     0.268 C 
HETATM   19  C   UNK N   1      25.100  15.250   2.429  0.00  0.00     0.037 C 
ENDBRANCH  17  18
BRANCH  17  20
HETATM   20  C   UNK N   1      26.859  16.271   3.809  0.00  0.00     0.272 C 
BRANCH  20  21
HETATM   21  C   UNK N   1      27.343  17.681   4.083  0.00  0.00     0.030 C 
BRANCH  21  22
HETATM   22  C   UNK N   1      26.284  18.689   3.679  0.00  0.00     0.002 C 
BRANCH  22  23
HETATM   23  C   UNK N   1      26.747  20.102   3.975  0.00  0.00     0.000 C 
BRANCH  23  24
HETATM   24  C   UNK N   1      27.969  20.043   4.863  0.00  0.00    -0.000 C 
BRANCH  24  25
HETATM   25  C   UNK N   1      27.564  20.343   6.288  0.00  0.00    -0.005 C 
HETATM   26  C   UNK N   1      26.797  21.647   6.328  0.00  0.00     0.005 C 
ENDBRANCH  24  25
ENDBRANCH  23  24
ENDBRANCH  22  23
ENDBRANCH  21  22
ENDBRANCH  20  21
ENDBRANCH  17  20
ENDBRANCH  16  17
ENDBRANCH  15  16
ENDBRANCH  14  15
ENDBRANCH   1  14
BRANCH   1  27
HETATM   27  O   UNK N   1      32.062  17.609   3.276  0.00  0.00    -0.391 OA
HETATM   28  H   UNK N   1      32.535  16.982   2.706  0.00  0.00     0.210 HD
ENDBRANCH   1  27
TORSDOF 15
ENDMDL
