MODEL 1
REMARK VINA RESULT:      -7.5      0.000      0.000
REMARK  3 active torsions:
REMARK  status: ('A' for Active; 'I' for Inactive)
REMARK    1  A    between atoms: C_5  and  O_12 
REMARK    2  A    between atoms: O_12  and  C_13 
REMARK    3  A    between atoms: C_13  and  C_14 
ROOT
HETATM    1  O   UNK N   1      30.714  16.476   5.119  0.00  0.00    -0.312 OA
ENDROOT
BRANCH   1   2
HETATM    2  C   UNK N   1      31.616  15.472   5.413  0.00  0.00     0.136 C 
HETATM    3  C   UNK N   1      31.376  15.018   6.901  0.00  0.00     0.068 C 
HETATM    4  C   UNK N   1      32.267  15.786   7.896  0.00  0.00     0.227 C 
HETATM    5  N   UNK N   1      33.661  15.529   7.434  0.00  0.00     0.104 N 
HETATM    6  C   UNK N   1      32.202  17.131   8.680  0.00  0.00     0.048 C 
HETATM    7  C   UNK N   1      33.913  16.440   6.304  0.00  0.00     0.227 C 
HETATM    8  C   UNK N   1      34.667  15.751   8.497  0.00  0.00     0.351 C 
HETATM    9  C   UNK N   1      33.066  15.950   5.107  0.00  0.00     0.068 C 
HETATM   10  C   UNK N   1      33.674  17.924   6.763  0.00  0.00     0.048 C 
HETATM   11  C   UNK N   1      33.470  17.966   8.316  0.00  0.00     0.061 C 
HETATM   12  C   UNK N   1      34.582  17.182   8.929  0.00  0.00     0.159 C 
HETATM   13  O   UNK N   1      35.349  17.656   9.752  0.00  0.00    -0.296 OA
ENDBRANCH   1   2
BRANCH   1  14
HETATM   14  C   UNK N   1      29.412  16.385   5.478  0.00  0.00     0.296 C 
HETATM   15  O   UNK N   1      28.774  15.378   5.214  0.00  0.00    -0.259 OA
BRANCH  14  16
HETATM   16  C   UNK N   1      28.802  17.461   6.270  0.00  0.00     0.067 A 
HETATM   17  C   UNK N   1      28.648  17.473   7.653  0.00  0.00     0.107 A 
HETATM   18  N   UNK N   1      27.994  18.603   8.027  0.00  0.00    -0.364 N 
HETATM   19  C   UNK N   1      27.745  19.282   6.893  0.00  0.00     0.043 A 
HETATM   20  H   UNK N   1      27.752  18.871   8.943  0.00  0.00     0.165 HD
HETATM   21  C   UNK N   1      27.084  20.502   6.776  0.00  0.00     0.030 A 
HETATM   22  C   UNK N   1      28.225  18.616   5.803  0.00  0.00     0.008 A 
HETATM   23  C   UNK N   1      26.925  21.039   5.484  0.00  0.00     0.002 A 
HETATM   24  C   UNK N   1      27.422  20.349   4.356  0.00  0.00     0.001 A 
HETATM   25  C   UNK N   1      28.081  19.115   4.510  0.00  0.00     0.015 A 
ENDBRANCH  14  16
ENDBRANCH   1  14
TORSDOF 3
ENDMDL
MODEL 2
REMARK VINA RESULT:      -7.4      3.154      5.527
REMARK  3 active torsions:
REMARK  status: ('A' for Active; 'I' for Inactive)
REMARK    1  A    between atoms: C_5  and  O_12 
REMARK    2  A    between atoms: O_12  and  C_13 
REMARK    3  A    between atoms: C_13  and  C_14 
ROOT
HETATM    1  O   UNK N   1      35.148  16.934   8.922  0.00  0.00    -0.312 OA
ENDROOT
BRANCH   1   2
HETATM    2  C   UNK N   1      34.585  16.458  10.089  0.00  0.00     0.136 C 
HETATM    3  C   UNK N   1      35.740  16.232  11.134  0.00  0.00     0.068 C 
HETATM    4  C   UNK N   1      36.292  14.795  11.093  0.00  0.00     0.227 C 
HETATM    5  N   UNK N   1      35.108  13.927  11.349  0.00  0.00     0.104 N 
HETATM    6  C   UNK N   1      37.367  14.011  10.283  0.00  0.00     0.048 C 
HETATM    7  C   UNK N   1      34.372  13.819  10.078  0.00  0.00     0.227 C 
HETATM    8  C   UNK N   1      35.481  12.578  11.833  0.00  0.00     0.351 C 
HETATM    9  C   UNK N   1      33.725  15.194   9.791  0.00  0.00     0.068 C 
HETATM   10  C   UNK N   1      35.329  13.256   8.964  0.00  0.00     0.048 C 
HETATM   11  C   UNK N   1      36.672  12.782   9.617  0.00  0.00     0.061 C 
HETATM   12  C   UNK N   1      36.317  11.918  10.781  0.00  0.00     0.159 C 
HETATM   13  O   UNK N   1      36.707  10.767  10.891  0.00  0.00    -0.296 OA
ENDBRANCH   1   2
BRANCH   1  14
HETATM   14  C   UNK N   1      34.568  17.930   8.211  0.00  0.00     0.296 C 
HETATM   15  O   UNK N   1      34.955  19.081   8.344  0.00  0.00    -0.259 OA
BRANCH  14  16
HETATM   16  C   UNK N   1      33.543  17.605   7.211  0.00  0.00     0.067 A 
HETATM   17  C   UNK N   1      33.771  17.317   5.869  0.00  0.00     0.107 A 
HETATM   18  N   UNK N   1      32.585  17.119   5.239  0.00  0.00    -0.364 N 
HETATM   19  C   UNK N   1      31.633  17.283   6.176  0.00  0.00     0.043 A 
HETATM   20  H   UNK N   1      32.448  16.900   4.288  0.00  0.00     0.165 HD
HETATM   21  C   UNK N   1      30.256  17.187   5.997  0.00  0.00     0.030 A 
HETATM   22  C   UNK N   1      32.182  17.579   7.390  0.00  0.00     0.008 A 
HETATM   23  C   UNK N   1      29.433  17.402   7.118  0.00  0.00     0.002 A 
HETATM   24  C   UNK N   1      30.001  17.708   8.375  0.00  0.00     0.001 A 
HETATM   25  C   UNK N   1      31.398  17.803   8.519  0.00  0.00     0.015 A 
ENDBRANCH  14  16
ENDBRANCH   1  14
TORSDOF 3
ENDMDL
MODEL 3
REMARK VINA RESULT:      -7.3     11.466     13.311
REMARK  3 active torsions:
REMARK  status: ('A' for Active; 'I' for Inactive)
REMARK    1  A    between atoms: C_5  and  O_12 
REMARK    2  A    between atoms: O_12  and  C_13 
REMARK    3  A    between atoms: C_13  and  C_14 
ROOT
HETATM    1  O   UNK N   1      28.676  23.210  -3.772  0.00  0.00    -0.312 OA
ENDROOT
BRANCH   1   2
HETATM    2  C   UNK N   1      29.904  23.696  -3.371  0.00  0.00     0.136 C 
HETATM    3  C   UNK N   1      30.678  24.191  -4.650  0.00  0.00     0.068 C 
HETATM    4  C   UNK N   1      31.573  23.091  -5.251  0.00  0.00     0.227 C 
HETATM    5  N   UNK N   1      32.488  22.699  -4.142  0.00  0.00     0.104 N 
HETATM    6  C   UNK N   1      31.409  21.911  -6.255  0.00  0.00     0.048 C 
HETATM    7  C   UNK N   1      31.734  21.786  -3.267  0.00  0.00     0.227 C 
HETATM    8  C   UNK N   1      33.721  22.034  -4.625  0.00  0.00     0.351 C 
HETATM    9  C   UNK N   1      30.657  22.619  -2.535  0.00  0.00     0.068 C 
HETATM   10  C   UNK N   1      31.213  20.563  -4.107  0.00  0.00     0.048 C 
HETATM   11  C   UNK N   1      31.855  20.599  -5.536  0.00  0.00     0.061 C 
HETATM   12  C   UNK N   1      33.324  20.790  -5.357  0.00  0.00     0.159 C 
HETATM   13  O   UNK N   1      34.150  20.010  -5.804  0.00  0.00    -0.296 OA
ENDBRANCH   1   2
BRANCH   1  14
HETATM   14  C   UNK N   1      27.519  23.746  -3.316  0.00  0.00     0.296 C 
HETATM   15  O   UNK N   1      27.277  23.749  -2.119  0.00  0.00    -0.259 OA
BRANCH  14  16
HETATM   16  C   UNK N   1      26.607  24.409  -4.257  0.00  0.00     0.067 A 
HETATM   17  C   UNK N   1      26.017  23.825  -5.374  0.00  0.00     0.107 A 
HETATM   18  N   UNK N   1      25.280  24.754  -6.036  0.00  0.00    -0.364 N 
HETATM   19  C   UNK N   1      25.412  25.898  -5.341  0.00  0.00     0.043 A 
HETATM   20  H   UNK N   1      24.755  24.618  -6.858  0.00  0.00     0.165 HD
HETATM   21  C   UNK N   1      24.842  27.132  -5.644  0.00  0.00     0.030 A 
HETATM   22  C   UNK N   1      26.214  25.724  -4.250  0.00  0.00     0.008 A 
HETATM   23  C   UNK N   1      25.115  28.209  -4.780  0.00  0.00     0.002 A 
HETATM   24  C   UNK N   1      25.945  28.029  -3.651  0.00  0.00     0.001 A 
HETATM   25  C   UNK N   1      26.509  26.769  -3.377  0.00  0.00     0.015 A 
ENDBRANCH  14  16
ENDBRANCH   1  14
TORSDOF 3
ENDMDL
MODEL 4
REMARK VINA RESULT:      -7.2      1.538      2.383
REMARK  3 active torsions:
REMARK  status: ('A' for Active; 'I' for Inactive)
REMARK    1  A    between atoms: C_5  and  O_12 
REMARK    2  A    between atoms: O_12  and  C_13 
REMARK    3  A    between atoms: C_13  and  C_14 
ROOT
HETATM    1  O   UNK N   1      31.085  17.040   6.672  0.00  0.00    -0.312 OA
ENDROOT
BRANCH   1   2
HETATM    2  C   UNK N   1      31.668  17.404   7.869  0.00  0.00     0.136 C 
HETATM    3  C   UNK N   1      33.117  17.940   7.566  0.00  0.00     0.068 C 
HETATM    4  C   UNK N   1      34.180  16.830   7.656  0.00  0.00     0.227 C 
HETATM    5  N   UNK N   1      34.046  16.287   9.038  0.00  0.00     0.104 N 
HETATM    6  C   UNK N   1      34.779  15.747   6.710  0.00  0.00     0.048 C 
HETATM    7  C   UNK N   1      32.898  15.365   9.026  0.00  0.00     0.227 C 
HETATM    8  C   UNK N   1      35.262  15.575   9.494  0.00  0.00     0.351 C 
HETATM    9  C   UNK N   1      31.614  16.213   8.872  0.00  0.00     0.068 C 
HETATM   10  C   UNK N   1      33.129  14.252   7.939  0.00  0.00     0.048 C 
HETATM   11  C   UNK N   1      34.592  14.353   7.389  0.00  0.00     0.061 C 
HETATM   12  C   UNK N   1      35.504  14.424   8.568  0.00  0.00     0.159 C 
HETATM   13  O   UNK N   1      36.408  13.624   8.752  0.00  0.00    -0.296 OA
ENDBRANCH   1   2
BRANCH   1  14
HETATM   14  C   UNK N   1      29.744  16.895   6.553  0.00  0.00     0.296 C 
HETATM   15  O   UNK N   1      29.276  15.835   6.164  0.00  0.00    -0.259 OA
BRANCH  14  16
HETATM   16  C   UNK N   1      28.856  17.981   6.986  0.00  0.00     0.067 A 
HETATM   17  C   UNK N   1      28.438  18.226   8.291  0.00  0.00     0.107 A 
HETATM   18  N   UNK N   1      27.581  19.279   8.303  0.00  0.00    -0.364 N 
HETATM   19  C   UNK N   1      27.467  19.681   7.024  0.00  0.00     0.043 A 
HETATM   20  H   UNK N   1      27.134  19.669   9.089  0.00  0.00     0.165 HD
HETATM   21  C   UNK N   1      26.685  20.727   6.543  0.00  0.00     0.030 A 
HETATM   22  C   UNK N   1      28.231  18.913   6.195  0.00  0.00     0.008 A 
HETATM   23  C   UNK N   1      26.707  20.978   5.158  0.00  0.00     0.002 A 
HETATM   24  C   UNK N   1      27.498  20.182   4.299  0.00  0.00     0.001 A 
HETATM   25  C   UNK N   1      28.273  19.129   4.819  0.00  0.00     0.015 A 
ENDBRANCH  14  16
ENDBRANCH   1  14
TORSDOF 3
ENDMDL
MODEL 5
REMARK VINA RESULT:      -7.2      1.721      2.121
REMARK  3 active torsions:
REMARK  status: ('A' for Active; 'I' for Inactive)
REMARK    1  A    between atoms: C_5  and  O_12 
REMARK    2  A    between atoms: O_12  and  C_13 
REMARK    3  A    between atoms: C_13  and  C_14 
ROOT
HETATM    1  O   UNK N   1      30.699  17.050   4.991  0.00  0.00    -0.312 OA
ENDROOT
BRANCH   1   2
HETATM    2  C   UNK N   1      30.847  15.995   5.869  0.00  0.00     0.136 C 
HETATM    3  C   UNK N   1      30.447  16.495   7.308  0.00  0.00     0.068 C 
HETATM    4  C   UNK N   1      31.659  17.017   8.101  0.00  0.00     0.227 C 
HETATM    5  N   UNK N   1      32.613  15.872   8.135  0.00  0.00     0.104 N 
HETATM    6  C   UNK N   1      32.431  18.363   8.247  0.00  0.00     0.048 C 
HETATM    7  C   UNK N   1      33.307  15.854   6.836  0.00  0.00     0.227 C 
HETATM    8  C   UNK N   1      33.599  15.980   9.234  0.00  0.00     0.351 C 
HETATM    9  C   UNK N   1      32.286  15.410   5.763  0.00  0.00     0.068 C 
HETATM   10  C   UNK N   1      34.007  17.241   6.596  0.00  0.00     0.048 C 
HETATM   11  C   UNK N   1      33.931  18.100   7.905  0.00  0.00     0.061 C 
HETATM   12  C   UNK N   1      34.391  17.233   9.029  0.00  0.00     0.159 C 
HETATM   13  O   UNK N   1      35.323  17.537   9.757  0.00  0.00    -0.296 OA
ENDBRANCH   1   2
BRANCH   1  14
HETATM   14  C   UNK N   1      29.990  16.923   3.844  0.00  0.00     0.296 C 
HETATM   15  O   UNK N   1      30.543  16.543   2.823  0.00  0.00    -0.259 OA
BRANCH  14  16
HETATM   16  C   UNK N   1      28.539  17.150   3.860  0.00  0.00     0.067 A 
HETATM   17  C   UNK N   1      27.566  16.256   3.426  0.00  0.00     0.107 A 
HETATM   18  N   UNK N   1      26.340  16.827   3.540  0.00  0.00    -0.364 N 
HETATM   19  C   UNK N   1      26.549  18.060   4.037  0.00  0.00     0.043 A 
HETATM   20  H   UNK N   1      25.474  16.422   3.307  0.00  0.00     0.165 HD
HETATM   21  C   UNK N   1      25.585  19.024   4.317  0.00  0.00     0.030 A 
HETATM   22  C   UNK N   1      27.878  18.290   4.245  0.00  0.00     0.008 A 
HETATM   23  C   UNK N   1      26.023  20.259   4.832  0.00  0.00     0.002 A 
HETATM   24  C   UNK N   1      27.399  20.497   5.047  0.00  0.00     0.001 A 
HETATM   25  C   UNK N   1      28.348  19.501   4.748  0.00  0.00     0.015 A 
ENDBRANCH  14  16
ENDBRANCH   1  14
TORSDOF 3
ENDMDL
MODEL 6
REMARK VINA RESULT:      -7.1     11.134     14.688
REMARK  3 active torsions:
REMARK  status: ('A' for Active; 'I' for Inactive)
REMARK    1  A    between atoms: C_5  and  O_12 
REMARK    2  A    between atoms: O_12  and  C_13 
REMARK    3  A    between atoms: C_13  and  C_14 
ROOT
HETATM    1  O   UNK N   1      28.943  23.056  -3.267  0.00  0.00    -0.312 OA
ENDROOT
BRANCH   1   2
HETATM    2  C   UNK N   1      28.475  24.355  -3.273  0.00  0.00     0.136 C 
HETATM    3  C   UNK N   1      26.902  24.311  -3.279  0.00  0.00     0.068 C 
HETATM    4  C   UNK N   1      26.323  24.346  -4.706  0.00  0.00     0.227 C 
HETATM    5  N   UNK N   1      26.864  25.599  -5.304  0.00  0.00     0.104 N 
HETATM    6  C   UNK N   1      25.992  23.315  -5.826  0.00  0.00     0.048 C 
HETATM    7  C   UNK N   1      28.243  25.309  -5.732  0.00  0.00     0.227 C 
HETATM    8  C   UNK N   1      26.066  26.074  -6.458  0.00  0.00     0.351 C 
HETATM    9  C   UNK N   1      29.105  25.144  -4.459  0.00  0.00     0.068 C 
HETATM   10  C   UNK N   1      28.238  24.093  -6.729  0.00  0.00     0.048 C 
HETATM   11  C   UNK N   1      26.762  23.739  -7.117  0.00  0.00     0.061 C 
HETATM   12  C   UNK N   1      26.091  25.012  -7.512  0.00  0.00     0.159 C 
HETATM   13  O   UNK N   1      25.566  25.169  -8.603  0.00  0.00    -0.296 OA
ENDBRANCH   1   2
BRANCH   1  14
HETATM   14  C   UNK N   1      30.087  22.718  -2.628  0.00  0.00     0.296 C 
HETATM   15  O   UNK N   1      30.274  23.081  -1.476  0.00  0.00    -0.259 OA
BRANCH  14  16
HETATM   16  C   UNK N   1      31.055  21.836  -3.292  0.00  0.00     0.067 A 
HETATM   17  C   UNK N   1      32.299  21.462  -2.793  0.00  0.00     0.107 A 
HETATM   18  N   UNK N   1      32.938  20.683  -3.703  0.00  0.00    -0.364 N 
HETATM   19  C   UNK N   1      32.104  20.576  -4.753  0.00  0.00     0.043 A 
HETATM   20  H   UNK N   1      33.831  20.279  -3.613  0.00  0.00     0.165 HD
HETATM   21  C   UNK N   1      32.333  19.879  -5.936  0.00  0.00     0.030 A 
HETATM   22  C   UNK N   1      30.946  21.266  -4.536  0.00  0.00     0.008 A 
HETATM   23  C   UNK N   1      31.321  19.901  -6.915  0.00  0.00     0.002 A 
HETATM   24  C   UNK N   1      30.123  20.615  -6.690  0.00  0.00     0.001 A 
HETATM   25  C   UNK N   1      29.927  21.313  -5.484  0.00  0.00     0.015 A 
ENDBRANCH  14  16
ENDBRANCH   1  14
TORSDOF 3
ENDMDL
MODEL 7
REMARK VINA RESULT:      -7.1      2.351      3.725
REMARK  3 active torsions:
REMARK  status: ('A' for Active; 'I' for Inactive)
REMARK    1  A    between atoms: C_5  and  O_12 
REMARK    2  A    between atoms: O_12  and  C_13 
REMARK    3  A    between atoms: C_13  and  C_14 
ROOT
HETATM    1  O   UNK N   1      29.679  18.053   6.948  0.00  0.00    -0.312 OA
ENDROOT
BRANCH   1   2
HETATM    2  C   UNK N   1      30.177  16.774   7.099  0.00  0.00     0.136 C 
HETATM    3  C   UNK N   1      31.738  16.873   7.274  0.00  0.00     0.068 C 
HETATM    4  C   UNK N   1      32.484  16.751   5.932  0.00  0.00     0.227 C 
HETATM    5  N   UNK N   1      32.051  15.439   5.374  0.00  0.00     0.104 N 
HETATM    6  C   UNK N   1      32.920  17.706   4.781  0.00  0.00     0.048 C 
HETATM    7  C   UNK N   1      30.726  15.648   4.766  0.00  0.00     0.227 C 
HETATM    8  C   UNK N   1      32.993  14.907   4.362  0.00  0.00     0.351 C 
HETATM    9  C   UNK N   1      29.714  15.878   5.913  0.00  0.00     0.068 C 
HETATM   10  C   UNK N   1      30.818  16.786   3.684  0.00  0.00     0.048 C 
HETATM   11  C   UNK N   1      32.320  17.161   3.446  0.00  0.00     0.061 C 
HETATM   12  C   UNK N   1      33.066  15.886   3.232  0.00  0.00     0.159 C 
HETATM   13  O   UNK N   1      33.722  15.666   2.226  0.00  0.00    -0.296 OA
ENDBRANCH   1   2
BRANCH   1  14
HETATM   14  C   UNK N   1      28.450  18.392   7.403  0.00  0.00     0.296 C 
HETATM   15  O   UNK N   1      28.072  17.996   8.495  0.00  0.00    -0.259 OA
BRANCH  14  16
HETATM   16  C   UNK N   1      27.617  19.315   6.621  0.00  0.00     0.067 A 
HETATM   17  C   UNK N   1      27.315  20.631   6.959  0.00  0.00     0.107 A 
HETATM   18  N   UNK N   1      26.477  21.157   6.030  0.00  0.00    -0.364 N 
HETATM   19  C   UNK N   1      26.261  20.183   5.128  0.00  0.00     0.043 A 
HETATM   20  H   UNK N   1      26.104  22.069   6.018  0.00  0.00     0.165 HD
HETATM   21  C   UNK N   1      25.456  20.254   3.995  0.00  0.00     0.030 A 
HETATM   22  C   UNK N   1      26.941  19.046   5.457  0.00  0.00     0.008 A 
HETATM   23  C   UNK N   1      25.364  19.108   3.183  0.00  0.00     0.002 A 
HETATM   24  C   UNK N   1      26.069  17.931   3.524  0.00  0.00     0.001 A 
HETATM   25  C   UNK N   1      26.870  17.892   4.681  0.00  0.00     0.015 A 
ENDBRANCH  14  16
ENDBRANCH   1  14
TORSDOF 3
ENDMDL
MODEL 8
REMARK VINA RESULT:      -7.1     12.061     15.308
REMARK  3 active torsions:
REMARK  status: ('A' for Active; 'I' for Inactive)
REMARK    1  A    between atoms: C_5  and  O_12 
REMARK    2  A    between atoms: O_12  and  C_13 
REMARK    3  A    between atoms: C_13  and  C_14 
ROOT
HETATM    1  O   UNK N   1      28.092  23.406  -7.049  0.00  0.00    -0.312 OA
ENDROOT
BRANCH   1   2
HETATM    2  C   UNK N   1      26.847  23.903  -7.382  0.00  0.00     0.136 C 
HETATM    3  C   UNK N   1      27.014  25.418  -7.777  0.00  0.00     0.068 C 
HETATM    4  C   UNK N   1      26.808  26.360  -6.576  0.00  0.00     0.227 C 
HETATM    5  N   UNK N   1      25.441  26.044  -6.076  0.00  0.00     0.104 N 
HETATM    6  C   UNK N   1      27.680  26.943  -5.425  0.00  0.00     0.048 C 
HETATM    7  C   UNK N   1      25.554  24.821  -5.262  0.00  0.00     0.227 C 
HETATM    8  C   UNK N   1      24.861  27.139  -5.265  0.00  0.00     0.351 C 
HETATM    9  C   UNK N   1      25.841  23.643  -6.222  0.00  0.00     0.068 C 
HETATM   10  C   UNK N   1      26.601  25.051  -4.112  0.00  0.00     0.048 C 
HETATM   11  C   UNK N   1      27.007  26.564  -4.068  0.00  0.00     0.061 C 
HETATM   12  C   UNK N   1      25.746  27.361  -4.078  0.00  0.00     0.159 C 
HETATM   13  O   UNK N   1      25.467  28.165  -3.203  0.00  0.00    -0.296 OA
ENDBRANCH   1   2
BRANCH   1  14
HETATM   14  C   UNK N   1      28.367  22.082  -7.119  0.00  0.00     0.296 C 
HETATM   15  O   UNK N   1      27.765  21.374  -7.912  0.00  0.00    -0.259 OA
BRANCH  14  16
HETATM   16  C   UNK N   1      29.456  21.524  -6.308  0.00  0.00     0.067 A 
HETATM   17  C   UNK N   1      30.194  20.382  -6.603  0.00  0.00     0.107 A 
HETATM   18  N   UNK N   1      31.078  20.142  -5.601  0.00  0.00    -0.364 N 
HETATM   19  C   UNK N   1      30.892  21.120  -4.697  0.00  0.00     0.043 A 
HETATM   20  H   UNK N   1      31.726  19.401  -5.548  0.00  0.00     0.165 HD
HETATM   21  C   UNK N   1      31.567  21.285  -3.491  0.00  0.00     0.030 A 
HETATM   22  C   UNK N   1      29.911  21.981  -5.096  0.00  0.00     0.008 A 
HETATM   23  C   UNK N   1      31.210  22.382  -2.685  0.00  0.00     0.002 A 
HETATM   24  C   UNK N   1      30.195  23.274  -3.098  0.00  0.00     0.001 A 
HETATM   25  C   UNK N   1      29.528  23.074  -4.322  0.00  0.00     0.015 A 
ENDBRANCH  14  16
ENDBRANCH   1  14
TORSDOF 3
ENDMDL
MODEL 9
REMARK VINA RESULT:      -7.0      8.617     11.669
REMARK  3 active torsions:
REMARK  status: ('A' for Active; 'I' for Inactive)
REMARK    1  A    between atoms: C_5  and  O_12 
REMARK    2  A    between atoms: O_12  and  C_13 
REMARK    3  A    between atoms: C_13  and  C_14 
ROOT
HETATM    1  O   UNK N   1      21.480  14.628   6.277  0.00  0.00    -0.312 OA
ENDROOT
BRANCH   1   2
HETATM    2  C   UNK N   1      21.173  15.963   6.105  0.00  0.00     0.136 C 
HETATM    3  C   UNK N   1      19.695  16.061   5.571  0.00  0.00     0.068 C 
HETATM    4  C   UNK N   1      19.632  16.092   4.032  0.00  0.00     0.227 C 
HETATM    5  N   UNK N   1      20.464  17.265   3.641  0.00  0.00     0.104 N 
HETATM    6  C   UNK N   1      19.594  15.052   2.873  0.00  0.00     0.048 C 
HETATM    7  C   UNK N   1      21.870  16.834   3.704  0.00  0.00     0.227 C 
HETATM    8  C   UNK N   1      20.148  17.765   2.283  0.00  0.00     0.351 C 
HETATM    9  C   UNK N   1      22.237  16.642   5.194  0.00  0.00     0.068 C 
HETATM   10  C   UNK N   1      22.078  15.585   2.772  0.00  0.00     0.048 C 
HETATM   11  C   UNK N   1      20.789  15.351   1.914  0.00  0.00     0.061 C 
HETATM   12  C   UNK N   1      20.418  16.663   1.306  0.00  0.00     0.159 C 
HETATM   13  O   UNK N   1      20.305  16.824   0.102  0.00  0.00    -0.296 OA
ENDBRANCH   1   2
BRANCH   1  14
HETATM   14  C   UNK N   1      21.431  14.041   7.496  0.00  0.00     0.296 C 
HETATM   15  O   UNK N   1      20.353  13.751   7.992  0.00  0.00    -0.259 OA
BRANCH  14  16
HETATM   16  C   UNK N   1      22.681  13.670   8.172  0.00  0.00     0.067 A 
HETATM   17  C   UNK N   1      23.963  13.795   7.648  0.00  0.00     0.107 A 
HETATM   18  N   UNK N   1      24.866  13.301   8.533  0.00  0.00    -0.364 N 
HETATM   19  C   UNK N   1      24.154  12.874   9.591  0.00  0.00     0.043 A 
HETATM   20  H   UNK N   1      25.844  13.263   8.423  0.00  0.00     0.165 HD
HETATM   21  C   UNK N   1      24.650  12.280  10.749  0.00  0.00     0.030 A 
HETATM   22  C   UNK N   1      22.819  13.084   9.406  0.00  0.00     0.008 A 
HETATM   23  C   UNK N   1      23.724  11.901  11.739  0.00  0.00     0.002 A 
HETATM   24  C   UNK N   1      22.341  12.119  11.547  0.00  0.00     0.001 A 
HETATM   25  C   UNK N   1      21.874  12.717  10.361  0.00  0.00     0.015 A 
ENDBRANCH  14  16
ENDBRANCH   1  14
TORSDOF 3
ENDMDL
