MODEL 1
REMARK VINA RESULT:      -5.0      0.000      0.000
REMARK  28 active torsions:
REMARK  status: ('A' for Active; 'I' for Inactive)
REMARK    1  A    between atoms: S_1  and  C_76 
REMARK    2  A    between atoms: S_2  and  C_77 
REMARK    3  A    between atoms: O_3  and  C_37 
REMARK    4  A    between atoms: O_4  and  C_38 
REMARK    5  A    between atoms: O_5  and  C_41 
REMARK    6  A    between atoms: O_6  and  C_42 
REMARK    7  A    between atoms: O_7  and  C_55 
REMARK    8  A    between atoms: O_8  and  C_56 
REMARK    9  A    between atoms: O_9  and  C_57 
REMARK   10  A    between atoms: O_10  and  C_58 
REMARK   11  A    between atoms: O_11  and  C_59 
REMARK   12  A    between atoms: O_11  and  C_67 
REMARK   13  A    between atoms: O_12  and  C_60 
REMARK   14  A    between atoms: O_12  and  C_68 
REMARK   15  A    between atoms: N_21  and  C_43 
REMARK   16  A    between atoms: N_22  and  C_44 
REMARK   17  A    between atoms: C_23  and  C_35 
REMARK   18  A    between atoms: C_24  and  C_36 
REMARK   19  A    between atoms: C_35  and  C_45 
REMARK   20  A    between atoms: C_36  and  C_46 
REMARK   21  A    between atoms: C_43  and  C_49 
REMARK   22  A    between atoms: C_44  and  C_50 
REMARK   23  A    between atoms: C_49  and  C_59 
REMARK   24  A    between atoms: C_50  and  C_60 
REMARK   25  A    between atoms: C_67  and  C_73 
REMARK   26  A    between atoms: C_68  and  C_74 
REMARK   27  A    between atoms: C_73  and  C_75 
REMARK   28  A    between atoms: C_74  and  C_75 
ROOT
HETATM    1  C   UNK N   1      22.076  13.346   9.874  0.00  0.00     0.080 A 
HETATM    2  C   UNK N   1      21.875  12.591  11.033  0.00  0.00     0.026 A 
HETATM    3  C   UNK N   1      23.351  13.434   9.307  0.00  0.00     0.026 A 
HETATM    4  C   UNK N   1      22.948  11.920  11.623  0.00  0.00     0.002 A 
HETATM    5  C   UNK N   1      24.425  12.763   9.897  0.00  0.00     0.002 A 
HETATM    6  C   UNK N   1      24.224  12.007  11.056  0.00  0.00     0.000 A 
ENDROOT
BRANCH   1   7
HETATM    7  S   UNK N   1      20.712  14.231   9.151  0.00  0.00     0.137 S 
HETATM    8  O   UNK N   1      20.825  15.928   8.913  0.00  0.00    -0.591 OA
HETATM    9  O   UNK N   1      19.403  14.008   9.922  0.00  0.00    -0.591 OA
HETATM   10  O   UNK N   1      20.361  13.632   7.782  0.00  0.00    -0.591 OA
ENDBRANCH   1   7
TORSDOF 28
ENDMDL
MODEL 2
REMARK VINA RESULT:      -5.0      0.072      1.534
REMARK  28 active torsions:
REMARK  status: ('A' for Active; 'I' for Inactive)
REMARK    1  A    between atoms: S_1  and  C_76 
REMARK    2  A    between atoms: S_2  and  C_77 
REMARK    3  A    between atoms: O_3  and  C_37 
REMARK    4  A    between atoms: O_4  and  C_38 
REMARK    5  A    between atoms: O_5  and  C_41 
REMARK    6  A    between atoms: O_6  and  C_42 
REMARK    7  A    between atoms: O_7  and  C_55 
REMARK    8  A    between atoms: O_8  and  C_56 
REMARK    9  A    between atoms: O_9  and  C_57 
REMARK   10  A    between atoms: O_10  and  C_58 
REMARK   11  A    between atoms: O_11  and  C_59 
REMARK   12  A    between atoms: O_11  and  C_67 
REMARK   13  A    between atoms: O_12  and  C_60 
REMARK   14  A    between atoms: O_12  and  C_68 
REMARK   15  A    between atoms: N_21  and  C_43 
REMARK   16  A    between atoms: N_22  and  C_44 
REMARK   17  A    between atoms: C_23  and  C_35 
REMARK   18  A    between atoms: C_24  and  C_36 
REMARK   19  A    between atoms: C_35  and  C_45 
REMARK   20  A    between atoms: C_36  and  C_46 
REMARK   21  A    between atoms: C_43  and  C_49 
REMARK   22  A    between atoms: C_44  and  C_50 
REMARK   23  A    between atoms: C_49  and  C_59 
REMARK   24  A    between atoms: C_50  and  C_60 
REMARK   25  A    between atoms: C_67  and  C_73 
REMARK   26  A    between atoms: C_68  and  C_74 
REMARK   27  A    between atoms: C_73  and  C_75 
REMARK   28  A    between atoms: C_74  and  C_75 
ROOT
HETATM    1  C   UNK N   1      22.129  13.372   9.890  0.00  0.00     0.080 A 
HETATM    2  C   UNK N   1      23.396  13.489   9.310  0.00  0.00     0.026 A 
HETATM    3  C   UNK N   1      21.946  12.565  11.017  0.00  0.00     0.026 A 
HETATM    4  C   UNK N   1      24.481  12.804   9.862  0.00  0.00     0.002 A 
HETATM    5  C   UNK N   1      23.031  11.879  11.568  0.00  0.00     0.002 A 
HETATM    6  C   UNK N   1      24.298  11.997  10.990  0.00  0.00     0.000 A 
ENDROOT
BRANCH   1   7
HETATM    7  S   UNK N   1      20.744  14.216   9.159  0.00  0.00     0.137 S 
HETATM    8  O   UNK N   1      20.823  15.909   8.883  0.00  0.00    -0.591 OA
HETATM    9  O   UNK N   1      19.445  13.987   9.945  0.00  0.00    -0.591 OA
HETATM   10  O   UNK N   1      20.394  13.581   7.806  0.00  0.00    -0.591 OA
ENDBRANCH   1   7
TORSDOF 28
ENDMDL
MODEL 3
REMARK VINA RESULT:      -4.8     12.165     13.084
REMARK  28 active torsions:
REMARK  status: ('A' for Active; 'I' for Inactive)
REMARK    1  A    between atoms: S_1  and  C_76 
REMARK    2  A    between atoms: S_2  and  C_77 
REMARK    3  A    between atoms: O_3  and  C_37 
REMARK    4  A    between atoms: O_4  and  C_38 
REMARK    5  A    between atoms: O_5  and  C_41 
REMARK    6  A    between atoms: O_6  and  C_42 
REMARK    7  A    between atoms: O_7  and  C_55 
REMARK    8  A    between atoms: O_8  and  C_56 
REMARK    9  A    between atoms: O_9  and  C_57 
REMARK   10  A    between atoms: O_10  and  C_58 
REMARK   11  A    between atoms: O_11  and  C_59 
REMARK   12  A    between atoms: O_11  and  C_67 
REMARK   13  A    between atoms: O_12  and  C_60 
REMARK   14  A    between atoms: O_12  and  C_68 
REMARK   15  A    between atoms: N_21  and  C_43 
REMARK   16  A    between atoms: N_22  and  C_44 
REMARK   17  A    between atoms: C_23  and  C_35 
REMARK   18  A    between atoms: C_24  and  C_36 
REMARK   19  A    between atoms: C_35  and  C_45 
REMARK   20  A    between atoms: C_36  and  C_46 
REMARK   21  A    between atoms: C_43  and  C_49 
REMARK   22  A    between atoms: C_44  and  C_50 
REMARK   23  A    between atoms: C_49  and  C_59 
REMARK   24  A    between atoms: C_50  and  C_60 
REMARK   25  A    between atoms: C_67  and  C_73 
REMARK   26  A    between atoms: C_68  and  C_74 
REMARK   27  A    between atoms: C_73  and  C_75 
REMARK   28  A    between atoms: C_74  and  C_75 
ROOT
HETATM    1  C   UNK N   1      34.511  16.628   9.390  0.00  0.00     0.080 A 
HETATM    2  C   UNK N   1      35.294  16.728  10.544  0.00  0.00     0.026 A 
HETATM    3  C   UNK N   1      33.850  15.432   9.092  0.00  0.00     0.026 A 
HETATM    4  C   UNK N   1      35.411  15.634  11.404  0.00  0.00     0.002 A 
HETATM    5  C   UNK N   1      33.968  14.338   9.952  0.00  0.00     0.002 A 
HETATM    6  C   UNK N   1      34.749  14.438  11.107  0.00  0.00     0.000 A 
ENDROOT
BRANCH   1   7
HETATM    7  S   UNK N   1      34.399  18.013   8.278  0.00  0.00     0.137 S 
HETATM    8  O   UNK N   1      35.383  19.397   8.535  0.00  0.00    -0.591 OA
HETATM    9  O   UNK N   1      32.964  18.545   8.158  0.00  0.00    -0.591 OA
HETATM   10  O   UNK N   1      34.674  17.558   6.838  0.00  0.00    -0.591 OA
ENDBRANCH   1   7
TORSDOF 28
ENDMDL
MODEL 4
REMARK VINA RESULT:      -4.7     11.315     12.074
REMARK  28 active torsions:
REMARK  status: ('A' for Active; 'I' for Inactive)
REMARK    1  A    between atoms: S_1  and  C_76 
REMARK    2  A    between atoms: S_2  and  C_77 
REMARK    3  A    between atoms: O_3  and  C_37 
REMARK    4  A    between atoms: O_4  and  C_38 
REMARK    5  A    between atoms: O_5  and  C_41 
REMARK    6  A    between atoms: O_6  and  C_42 
REMARK    7  A    between atoms: O_7  and  C_55 
REMARK    8  A    between atoms: O_8  and  C_56 
REMARK    9  A    between atoms: O_9  and  C_57 
REMARK   10  A    between atoms: O_10  and  C_58 
REMARK   11  A    between atoms: O_11  and  C_59 
REMARK   12  A    between atoms: O_11  and  C_67 
REMARK   13  A    between atoms: O_12  and  C_60 
REMARK   14  A    between atoms: O_12  and  C_68 
REMARK   15  A    between atoms: N_21  and  C_43 
REMARK   16  A    between atoms: N_22  and  C_44 
REMARK   17  A    between atoms: C_23  and  C_35 
REMARK   18  A    between atoms: C_24  and  C_36 
REMARK   19  A    between atoms: C_35  and  C_45 
REMARK   20  A    between atoms: C_36  and  C_46 
REMARK   21  A    between atoms: C_43  and  C_49 
REMARK   22  A    between atoms: C_44  and  C_50 
REMARK   23  A    between atoms: C_49  and  C_59 
REMARK   24  A    between atoms: C_50  and  C_60 
REMARK   25  A    between atoms: C_67  and  C_73 
REMARK   26  A    between atoms: C_68  and  C_74 
REMARK   27  A    between atoms: C_73  and  C_75 
REMARK   28  A    between atoms: C_74  and  C_75 
ROOT
HETATM    1  C   UNK N   1      32.276  17.673   7.747  0.00  0.00     0.080 A 
HETATM    2  C   UNK N   1      31.590  17.032   6.711  0.00  0.00     0.026 A 
HETATM    3  C   UNK N   1      31.566  18.280   8.787  0.00  0.00     0.026 A 
HETATM    4  C   UNK N   1      30.194  16.992   6.718  0.00  0.00     0.002 A 
HETATM    5  C   UNK N   1      30.170  18.240   8.795  0.00  0.00     0.002 A 
HETATM    6  C   UNK N   1      29.484  17.598   7.760  0.00  0.00     0.000 A 
ENDROOT
BRANCH   1   7
HETATM    7  S   UNK N   1      34.053  17.755   7.709  0.00  0.00     0.137 S 
HETATM    8  O   UNK N   1      34.858  19.135   8.338  0.00  0.00    -0.591 OA
HETATM    9  O   UNK N   1      34.612  17.562   6.292  0.00  0.00    -0.591 OA
HETATM   10  O   UNK N   1      34.652  16.544   8.438  0.00  0.00    -0.591 OA
ENDBRANCH   1   7
TORSDOF 28
ENDMDL
MODEL 5
REMARK VINA RESULT:      -4.6     14.625     15.344
REMARK  28 active torsions:
REMARK  status: ('A' for Active; 'I' for Inactive)
REMARK    1  A    between atoms: S_1  and  C_76 
REMARK    2  A    between atoms: S_2  and  C_77 
REMARK    3  A    between atoms: O_3  and  C_37 
REMARK    4  A    between atoms: O_4  and  C_38 
REMARK    5  A    between atoms: O_5  and  C_41 
REMARK    6  A    between atoms: O_6  and  C_42 
REMARK    7  A    between atoms: O_7  and  C_55 
REMARK    8  A    between atoms: O_8  and  C_56 
REMARK    9  A    between atoms: O_9  and  C_57 
REMARK   10  A    between atoms: O_10  and  C_58 
REMARK   11  A    between atoms: O_11  and  C_59 
REMARK   12  A    between atoms: O_11  and  C_67 
REMARK   13  A    between atoms: O_12  and  C_60 
REMARK   14  A    between atoms: O_12  and  C_68 
REMARK   15  A    between atoms: N_21  and  C_43 
REMARK   16  A    between atoms: N_22  and  C_44 
REMARK   17  A    between atoms: C_23  and  C_35 
REMARK   18  A    between atoms: C_24  and  C_36 
REMARK   19  A    between atoms: C_35  and  C_45 
REMARK   20  A    between atoms: C_36  and  C_46 
REMARK   21  A    between atoms: C_43  and  C_49 
REMARK   22  A    between atoms: C_44  and  C_50 
REMARK   23  A    between atoms: C_49  and  C_59 
REMARK   24  A    between atoms: C_50  and  C_60 
REMARK   25  A    between atoms: C_67  and  C_73 
REMARK   26  A    between atoms: C_68  and  C_74 
REMARK   27  A    between atoms: C_73  and  C_75 
REMARK   28  A    between atoms: C_74  and  C_75 
ROOT
HETATM    1  C   UNK N   1      35.675  12.661  16.390  0.00  0.00     0.080 A 
HETATM    2  C   UNK N   1      35.312  13.593  17.366  0.00  0.00     0.026 A 
HETATM    3  C   UNK N   1      35.875  11.322  16.739  0.00  0.00     0.026 A 
HETATM    4  C   UNK N   1      35.142  13.185  18.691  0.00  0.00     0.002 A 
HETATM    5  C   UNK N   1      35.705  10.914  18.064  0.00  0.00     0.002 A 
HETATM    6  C   UNK N   1      35.340  11.845  19.040  0.00  0.00     0.000 A 
ENDROOT
BRANCH   1   7
HETATM    7  S   UNK N   1      35.929  13.195  14.711  0.00  0.00     0.137 S 
HETATM    8  O   UNK N   1      36.683  14.706  14.401  0.00  0.00    -0.591 OA
HETATM    9  O   UNK N   1      34.622  13.213  13.905  0.00  0.00    -0.591 OA
HETATM   10  O   UNK N   1      36.744  12.147  13.941  0.00  0.00    -0.591 OA
ENDBRANCH   1   7
TORSDOF 28
ENDMDL
MODEL 6
REMARK VINA RESULT:      -4.6     14.159     14.894
REMARK  28 active torsions:
REMARK  status: ('A' for Active; 'I' for Inactive)
REMARK    1  A    between atoms: S_1  and  C_76 
REMARK    2  A    between atoms: S_2  and  C_77 
REMARK    3  A    between atoms: O_3  and  C_37 
REMARK    4  A    between atoms: O_4  and  C_38 
REMARK    5  A    between atoms: O_5  and  C_41 
REMARK    6  A    between atoms: O_6  and  C_42 
REMARK    7  A    between atoms: O_7  and  C_55 
REMARK    8  A    between atoms: O_8  and  C_56 
REMARK    9  A    between atoms: O_9  and  C_57 
REMARK   10  A    between atoms: O_10  and  C_58 
REMARK   11  A    between atoms: O_11  and  C_59 
REMARK   12  A    between atoms: O_11  and  C_67 
REMARK   13  A    between atoms: O_12  and  C_60 
REMARK   14  A    between atoms: O_12  and  C_68 
REMARK   15  A    between atoms: N_21  and  C_43 
REMARK   16  A    between atoms: N_22  and  C_44 
REMARK   17  A    between atoms: C_23  and  C_35 
REMARK   18  A    between atoms: C_24  and  C_36 
REMARK   19  A    between atoms: C_35  and  C_45 
REMARK   20  A    between atoms: C_36  and  C_46 
REMARK   21  A    between atoms: C_43  and  C_49 
REMARK   22  A    between atoms: C_44  and  C_50 
REMARK   23  A    between atoms: C_49  and  C_59 
REMARK   24  A    between atoms: C_50  and  C_60 
REMARK   25  A    between atoms: C_67  and  C_73 
REMARK   26  A    between atoms: C_68  and  C_74 
REMARK   27  A    between atoms: C_73  and  C_75 
REMARK   28  A    between atoms: C_74  and  C_75 
ROOT
HETATM    1  C   UNK N   1      35.022  11.979  16.639  0.00  0.00     0.080 A 
HETATM    2  C   UNK N   1      35.213  10.932  17.545  0.00  0.00     0.026 A 
HETATM    3  C   UNK N   1      34.994  13.302  17.091  0.00  0.00     0.026 A 
HETATM    4  C   UNK N   1      35.383  11.209  18.904  0.00  0.00     0.002 A 
HETATM    5  C   UNK N   1      35.164  13.578  18.449  0.00  0.00     0.002 A 
HETATM    6  C   UNK N   1      35.356  12.532  19.356  0.00  0.00     0.000 A 
ENDROOT
BRANCH   1   7
HETATM    7  S   UNK N   1      34.767  11.617  14.915  0.00  0.00     0.137 S 
HETATM    8  O   UNK N   1      35.968  10.763  14.034  0.00  0.00    -0.591 OA
HETATM    9  O   UNK N   1      34.475  12.882  14.095  0.00  0.00    -0.591 OA
HETATM   10  O   UNK N   1      33.463  10.829  14.729  0.00  0.00    -0.591 OA
ENDBRANCH   1   7
TORSDOF 28
ENDMDL
MODEL 7
REMARK VINA RESULT:      -4.5      8.411      9.474
REMARK  28 active torsions:
REMARK  status: ('A' for Active; 'I' for Inactive)
REMARK    1  A    between atoms: S_1  and  C_76 
REMARK    2  A    between atoms: S_2  and  C_77 
REMARK    3  A    between atoms: O_3  and  C_37 
REMARK    4  A    between atoms: O_4  and  C_38 
REMARK    5  A    between atoms: O_5  and  C_41 
REMARK    6  A    between atoms: O_6  and  C_42 
REMARK    7  A    between atoms: O_7  and  C_55 
REMARK    8  A    between atoms: O_8  and  C_56 
REMARK    9  A    between atoms: O_9  and  C_57 
REMARK   10  A    between atoms: O_10  and  C_58 
REMARK   11  A    between atoms: O_11  and  C_59 
REMARK   12  A    between atoms: O_11  and  C_67 
REMARK   13  A    between atoms: O_12  and  C_60 
REMARK   14  A    between atoms: O_12  and  C_68 
REMARK   15  A    between atoms: N_21  and  C_43 
REMARK   16  A    between atoms: N_22  and  C_44 
REMARK   17  A    between atoms: C_23  and  C_35 
REMARK   18  A    between atoms: C_24  and  C_36 
REMARK   19  A    between atoms: C_35  and  C_45 
REMARK   20  A    between atoms: C_36  and  C_46 
REMARK   21  A    between atoms: C_43  and  C_49 
REMARK   22  A    between atoms: C_44  and  C_50 
REMARK   23  A    between atoms: C_49  and  C_59 
REMARK   24  A    between atoms: C_50  and  C_60 
REMARK   25  A    between atoms: C_67  and  C_73 
REMARK   26  A    between atoms: C_68  and  C_74 
REMARK   27  A    between atoms: C_73  and  C_75 
REMARK   28  A    between atoms: C_74  and  C_75 
ROOT
HETATM    1  C   UNK N   1      22.869  19.832   3.206  0.00  0.00     0.080 A 
HETATM    2  C   UNK N   1      23.937  20.651   2.826  0.00  0.00     0.026 A 
HETATM    3  C   UNK N   1      23.103  18.684   3.968  0.00  0.00     0.026 A 
HETATM    4  C   UNK N   1      25.239  20.325   3.213  0.00  0.00     0.002 A 
HETATM    5  C   UNK N   1      24.405  18.357   4.356  0.00  0.00     0.002 A 
HETATM    6  C   UNK N   1      25.473  19.176   3.978  0.00  0.00     0.000 A 
ENDROOT
BRANCH   1   7
HETATM    7  S   UNK N   1      21.219  20.232   2.674  0.00  0.00     0.137 S 
HETATM    8  O   UNK N   1      20.980  21.385   1.424  0.00  0.00    -0.591 OA
HETATM    9  O   UNK N   1      20.332  20.696   3.839  0.00  0.00    -0.591 OA
HETATM   10  O   UNK N   1      20.486  18.961   2.225  0.00  0.00    -0.591 OA
ENDBRANCH   1   7
TORSDOF 28
ENDMDL
MODEL 8
REMARK VINA RESULT:      -4.5     17.686     18.483
REMARK  28 active torsions:
REMARK  status: ('A' for Active; 'I' for Inactive)
REMARK    1  A    between atoms: S_1  and  C_76 
REMARK    2  A    between atoms: S_2  and  C_77 
REMARK    3  A    between atoms: O_3  and  C_37 
REMARK    4  A    between atoms: O_4  and  C_38 
REMARK    5  A    between atoms: O_5  and  C_41 
REMARK    6  A    between atoms: O_6  and  C_42 
REMARK    7  A    between atoms: O_7  and  C_55 
REMARK    8  A    between atoms: O_8  and  C_56 
REMARK    9  A    between atoms: O_9  and  C_57 
REMARK   10  A    between atoms: O_10  and  C_58 
REMARK   11  A    between atoms: O_11  and  C_59 
REMARK   12  A    between atoms: O_11  and  C_67 
REMARK   13  A    between atoms: O_12  and  C_60 
REMARK   14  A    between atoms: O_12  and  C_68 
REMARK   15  A    between atoms: N_21  and  C_43 
REMARK   16  A    between atoms: N_22  and  C_44 
REMARK   17  A    between atoms: C_23  and  C_35 
REMARK   18  A    between atoms: C_24  and  C_36 
REMARK   19  A    between atoms: C_35  and  C_45 
REMARK   20  A    between atoms: C_36  and  C_46 
REMARK   21  A    between atoms: C_43  and  C_49 
REMARK   22  A    between atoms: C_44  and  C_50 
REMARK   23  A    between atoms: C_49  and  C_59 
REMARK   24  A    between atoms: C_50  and  C_60 
REMARK   25  A    between atoms: C_67  and  C_73 
REMARK   26  A    between atoms: C_68  and  C_74 
REMARK   27  A    between atoms: C_73  and  C_75 
REMARK   28  A    between atoms: C_74  and  C_75 
ROOT
HETATM    1  C   UNK N   1      30.248  22.051  -3.940  0.00  0.00     0.080 A 
HETATM    2  C   UNK N   1      31.178  21.055  -3.627  0.00  0.00     0.026 A 
HETATM    3  C   UNK N   1      29.712  22.129  -5.228  0.00  0.00     0.026 A 
HETATM    4  C   UNK N   1      31.566  20.132  -4.601  0.00  0.00     0.002 A 
HETATM    5  C   UNK N   1      30.100  21.207  -6.203  0.00  0.00     0.002 A 
HETATM    6  C   UNK N   1      31.028  20.210  -5.890  0.00  0.00     0.000 A 
ENDROOT
BRANCH   1   7
HETATM    7  S   UNK N   1      29.789  23.247  -2.705  0.00  0.00     0.137 S 
HETATM    8  O   UNK N   1      28.131  23.492  -2.327  0.00  0.00    -0.591 OA
HETATM    9  O   UNK N   1      30.352  24.643  -3.012  0.00  0.00    -0.591 OA
HETATM   10  O   UNK N   1      30.485  22.927  -1.375  0.00  0.00    -0.591 OA
ENDBRANCH   1   7
TORSDOF 28
ENDMDL
MODEL 9
REMARK VINA RESULT:      -4.4      8.327      9.389
REMARK  28 active torsions:
REMARK  status: ('A' for Active; 'I' for Inactive)
REMARK    1  A    between atoms: S_1  and  C_76 
REMARK    2  A    between atoms: S_2  and  C_77 
REMARK    3  A    between atoms: O_3  and  C_37 
REMARK    4  A    between atoms: O_4  and  C_38 
REMARK    5  A    between atoms: O_5  and  C_41 
REMARK    6  A    between atoms: O_6  and  C_42 
REMARK    7  A    between atoms: O_7  and  C_55 
REMARK    8  A    between atoms: O_8  and  C_56 
REMARK    9  A    between atoms: O_9  and  C_57 
REMARK   10  A    between atoms: O_10  and  C_58 
REMARK   11  A    between atoms: O_11  and  C_59 
REMARK   12  A    between atoms: O_11  and  C_67 
REMARK   13  A    between atoms: O_12  and  C_60 
REMARK   14  A    between atoms: O_12  and  C_68 
REMARK   15  A    between atoms: N_21  and  C_43 
REMARK   16  A    between atoms: N_22  and  C_44 
REMARK   17  A    between atoms: C_23  and  C_35 
REMARK   18  A    between atoms: C_24  and  C_36 
REMARK   19  A    between atoms: C_35  and  C_45 
REMARK   20  A    between atoms: C_36  and  C_46 
REMARK   21  A    between atoms: C_43  and  C_49 
REMARK   22  A    between atoms: C_44  and  C_50 
REMARK   23  A    between atoms: C_49  and  C_59 
REMARK   24  A    between atoms: C_50  and  C_60 
REMARK   25  A    between atoms: C_67  and  C_73 
REMARK   26  A    between atoms: C_68  and  C_74 
REMARK   27  A    between atoms: C_73  and  C_75 
REMARK   28  A    between atoms: C_74  and  C_75 
ROOT
HETATM    1  C   UNK N   1      22.834  19.765   3.263  0.00  0.00     0.080 A 
HETATM    2  C   UNK N   1      23.048  18.674   4.111  0.00  0.00     0.026 A 
HETATM    3  C   UNK N   1      23.901  20.592   2.901  0.00  0.00     0.026 A 
HETATM    4  C   UNK N   1      24.331  18.406   4.592  0.00  0.00     0.002 A 
HETATM    5  C   UNK N   1      25.185  20.324   3.383  0.00  0.00     0.002 A 
HETATM    6  C   UNK N   1      25.400  19.233   4.229  0.00  0.00     0.000 A 
ENDROOT
BRANCH   1   7
HETATM    7  S   UNK N   1      21.189  20.123   2.686  0.00  0.00     0.137 S 
HETATM    8  O   UNK N   1      20.249  18.883   1.961  0.00  0.00    -0.591 OA
HETATM    9  O   UNK N   1      21.166  21.293   1.692  0.00  0.00    -0.591 OA
HETATM   10  O   UNK N   1      20.339  20.686   3.833  0.00  0.00    -0.591 OA
ENDBRANCH   1   7
TORSDOF 28
ENDMDL
