MODEL 1
REMARK VINA RESULT:      -9.1      0.000      0.000
REMARK  9 active torsions:
REMARK  status: ('A' for Active; 'I' for Inactive)
REMARK    1  A    between atoms: C_10  and  C_8 
REMARK       I    between atoms: N_58  and  C_10 
REMARK    2  A    between atoms: N_15  and  C_11 
REMARK    3  A    between atoms: C_19  and  C_16 
REMARK       I    between atoms: N_24  and  C_19 
REMARK    4  A    between atoms: C_25  and  N_24 
REMARK    5  A    between atoms: C_43  and  C_44 
REMARK    6  A    between atoms: C_54  and  C_56 
REMARK    7  A    between atoms: C_59  and  N_58 
REMARK    8  A    between atoms: C_77  and  C_78 
REMARK    9  A    between atoms: C_88  and  C_90 
ROOT
HETATM    1  C   UNK N   1      31.546  11.381   0.752  0.00  0.00     0.086 A 
HETATM    2  C   UNK N   1      32.200  10.354  -0.080  0.00  0.00     0.114 A 
HETATM    3  O   UNK N   1      33.517  10.426  -0.281  0.00  0.00    -0.305 OA
HETATM    4  C   UNK N   1      33.627  12.375   1.077  0.00  0.00     0.083 A 
HETATM    5  C   UNK N   1      34.240  11.427   0.228  0.00  0.00     0.109 A 
HETATM    6  N   UNK N   1      32.307  12.309   1.324  0.00  0.00    -0.350 N 
ATOM      7  HN  UNK N   1      31.882  12.981   1.962  1.00  0.00     0.166 HD
HETATM    8  C   UNK N   1      30.162  11.500   0.797  0.00  0.00     0.091 A 
HETATM    9  C   UNK N   1      31.413   9.404  -0.722  0.00  0.00     0.027 A 
HETATM   10  C   UNK N   1      29.394  10.566   0.062  0.00  0.00     0.095 A 
HETATM   11  C   UNK N   1      30.010   9.511  -0.651  0.00  0.00     0.207 A 
HETATM   12  C   UNK N   1      32.055   8.336  -1.549  0.00  0.00     0.056 C 
HETATM   13  C   UNK N   1      34.332  13.449   1.587  0.00  0.00     0.061 A 
HETATM   14  C   UNK N   1      35.597  11.588  -0.105  0.00  0.00    -0.026 A 
HETATM   15  O   UNK N   1      29.315   8.704  -1.246  0.00  0.00    -0.285 OA
HETATM   16  C   UNK N   1      35.671  13.630   1.218  0.00  0.00     0.020 A 
HETATM   17  C   UNK N   1      36.301  12.701   0.377  0.00  0.00     0.011 A 
HETATM   18  C   UNK N   1      36.280  10.628  -1.016  0.00  0.00     0.051 C 
ENDROOT
BRANCH   8  19
HETATM   19  C   UNK N   1      29.522  12.658   1.517  0.00  0.00     0.257 C 
HETATM   20  N   UNK N   1      28.704  12.471   2.609  0.00  0.00    -0.341 N 
HETATM   21  H   UNK N   1      28.612  11.555   2.959  0.00  0.00     0.163 HD
HETATM   22  O   UNK N   1      29.704  13.782   1.074  0.00  0.00    -0.267 OA
BRANCH  20  23
HETATM   23  C   UNK N   1      27.952  13.545   3.294  0.00  0.00     0.206 C 
HETATM   24  C   UNK N   1      28.391  13.758   4.759  0.00  0.00     0.243 C 
HETATM   25  O   UNK N   1      29.440  13.251   5.125  0.00  0.00    -0.271 OA
HETATM   26  N   UNK N   1      27.668  14.471   5.689  0.00  0.00    -0.346 N 
HETATM   27  C   UNK N   1      26.347  15.072   5.506  0.00  0.00     0.180 C 
HETATM   28  H   UNK N   1      28.084  14.588   6.573  0.00  0.00     0.163 HD
HETATM   29  C   UNK N   1      25.234  14.055   5.851  0.00  0.00     0.243 C 
HETATM   30  N   UNK N   1      23.913  14.365   6.101  0.00  0.00    -0.337 N 
HETATM   31  O   UNK N   1      25.552  12.873   5.830  0.00  0.00    -0.271 OA
HETATM   32  C   UNK N   1      23.413  15.688   6.317  0.00  0.00     0.127 C 
HETATM   33  C   UNK N   1      22.895  13.336   6.187  0.00  0.00     0.179 C 
HETATM   34  C   UNK N   1      21.991  15.507   6.818  0.00  0.00     0.022 C 
HETATM   35  C   UNK N   1      21.602  14.071   6.497  0.00  0.00     0.037 C 
HETATM   36  C   UNK N   1      22.749  12.576   4.867  0.00  0.00     0.242 C 
HETATM   37  O   UNK N   1      23.427  12.923   3.909  0.00  0.00    -0.271 OA
HETATM   38  N   UNK N   1      21.912  11.496   4.743  0.00  0.00    -0.346 N 
HETATM   39  C   UNK N   1      21.930  10.669   3.548  0.00  0.00     0.228 C 
HETATM   40  C   UNK N   1      21.083  11.069   5.841  0.00  0.00     0.153 C 
HETATM   41  C   UNK N   1      23.304  10.066   3.418  0.00  0.00     0.238 C 
HETATM   42  O   UNK N   1      23.793   9.524   4.401  0.00  0.00    -0.272 OA
HETATM   43  N   UNK N   1      24.040  10.201   2.274  0.00  0.00    -0.341 N 
HETATM   44  C   UNK N   1      23.471  10.810   1.096  0.00  0.00     0.153 C 
HETATM   45  C   UNK N   1      25.464   9.917   2.272  0.00  0.00     0.190 C 
HETATM   46  C   UNK N   1      26.121  11.008   3.072  0.00  0.00     0.282 C 
HETATM   47  O   UNK N   1      25.938  12.275   2.630  0.00  0.00    -0.312 OA
HETATM   48  O   UNK N   1      26.774  10.770   4.079  0.00  0.00    -0.263 OA
HETATM   49  C   UNK N   1      26.428  13.432   3.185  0.00  0.00     0.159 C 
HETATM   50  C   UNK N   1      25.908  14.620   2.398  0.00  0.00     0.042 C 
BRANCH  27  51
HETATM   51  C   UNK N   1      26.255  16.551   5.950  0.00  0.00     0.009 C 
HETATM   52  C   UNK N   1      26.872  17.465   4.908  0.00  0.00     0.012 C 
HETATM   53  C   UNK N   1      27.059  16.814   7.203  0.00  0.00     0.012 C 
ENDBRANCH  27  51
BRANCH  45  54
HETATM   54  C   UNK N   1      25.798   8.469   2.667  0.00  0.00     0.010 C 
HETATM   55  C   UNK N   1      25.018   7.512   1.786  0.00  0.00     0.012 C 
HETATM   56  C   UNK N   1      27.278   8.170   2.490  0.00  0.00     0.012 C 
ENDBRANCH  45  54
ENDBRANCH  20  23
ENDBRANCH   8  19
BRANCH  10  57
HETATM   57  N   UNK N   1      27.987  10.677   0.035  0.00  0.00    -0.395 N 
HETATM   58  H   UNK N   1      27.438  10.971   0.798  0.00  0.00     0.156 HD
HETATM   59  H   UNK N   1      27.523  10.445  -0.802  0.00  0.00     0.156 HD
ENDBRANCH  10  57
BRANCH  13  60
HETATM   60  C   UNK N   1      33.665  14.345   2.555  0.00  0.00     0.254 C 
HETATM   61  N   UNK N   1      34.366  14.908   3.555  0.00  0.00    -0.341 N 
HETATM   62  H   UNK N   1      35.330  15.061   3.428  0.00  0.00     0.163 HD
HETATM   63  O   UNK N   1      32.448  14.458   2.523  0.00  0.00    -0.268 OA
BRANCH  61  64
HETATM   64  C   UNK N   1      33.765  15.300   4.816  0.00  0.00     0.206 C 
HETATM   65  C   UNK N   1      33.104  16.676   4.732  0.00  0.00     0.243 C 
HETATM   66  O   UNK N   1      33.062  17.243   3.651  0.00  0.00    -0.271 OA
HETATM   67  N   UNK N   1      32.675  17.363   5.824  0.00  0.00    -0.346 N 
HETATM   68  C   UNK N   1      32.629  16.891   7.192  0.00  0.00     0.180 C 
HETATM   69  H   UNK N   1      32.360  18.282   5.667  0.00  0.00     0.163 HD
HETATM   70  C   UNK N   1      33.768  17.477   7.993  0.00  0.00     0.243 C 
HETATM   71  N   UNK N   1      34.542  16.697   8.814  0.00  0.00    -0.337 N 
HETATM   72  O   UNK N   1      33.954  18.687   7.954  0.00  0.00    -0.271 OA
HETATM   73  C   UNK N   1      35.437  17.289   9.763  0.00  0.00     0.127 C 
HETATM   74  C   UNK N   1      34.312  15.295   9.082  0.00  0.00     0.179 C 
HETATM   75  C   UNK N   1      35.243  16.418  11.005  0.00  0.00     0.022 C 
HETATM   76  C   UNK N   1      34.227  15.336  10.598  0.00  0.00     0.037 C 
HETATM   77  C   UNK N   1      35.498  14.483   8.520  0.00  0.00     0.242 C 
HETATM   78  O   UNK N   1      35.849  14.766   7.385  0.00  0.00    -0.271 OA
HETATM   79  N   UNK N   1      36.163  13.472   9.203  0.00  0.00    -0.346 N 
HETATM   80  C   UNK N   1      37.334  12.792   8.645  0.00  0.00     0.228 C 
HETATM   81  C   UNK N   1      35.747  13.033  10.509  0.00  0.00     0.153 C 
HETATM   82  C   UNK N   1      37.124  12.341   7.228  0.00  0.00     0.238 C 
HETATM   83  O   UNK N   1      37.782  12.902   6.367  0.00  0.00    -0.272 OA
HETATM   84  N   UNK N   1      36.149  11.429   6.896  0.00  0.00    -0.341 N 
HETATM   85  C   UNK N   1      35.435  10.732   7.935  0.00  0.00     0.153 C 
HETATM   86  C   UNK N   1      35.600  11.322   5.549  0.00  0.00     0.190 C 
HETATM   87  C   UNK N   1      35.025  12.648   5.186  0.00  0.00     0.282 C 
HETATM   88  O   UNK N   1      33.671  12.855   5.293  0.00  0.00    -0.312 OA
HETATM   89  O   UNK N   1      35.800  13.557   4.946  0.00  0.00    -0.263 OA
HETATM   90  C   UNK N   1      32.943  14.053   5.244  0.00  0.00     0.159 C 
HETATM   91  C   UNK N   1      32.100  14.175   6.488  0.00  0.00     0.042 C 
BRANCH  68  92
HETATM   92  C   UNK N   1      31.287  17.327   7.811  0.00  0.00     0.009 C 
HETATM   93  C   UNK N   1      30.916  16.496   9.029  0.00  0.00     0.012 C 
HETATM   94  C   UNK N   1      30.150  17.241   6.808  0.00  0.00     0.012 C 
ENDBRANCH  68  92
BRANCH  86  95
HETATM   95  C   UNK N   1      36.484  10.698   4.442  0.00  0.00     0.010 C 
HETATM   96  C   UNK N   1      37.524   9.679   4.882  0.00  0.00     0.012 C 
HETATM   97  C   UNK N   1      35.664  10.157   3.293  0.00  0.00     0.012 C 
ENDBRANCH  86  95
ENDBRANCH  61  64
ENDBRANCH  13  60
TORSDOF 9
ENDMDL
MODEL 2
REMARK VINA RESULT:      -9.0      2.675     11.474
REMARK  9 active torsions:
REMARK  status: ('A' for Active; 'I' for Inactive)
REMARK    1  A    between atoms: C_10  and  C_8 
REMARK       I    between atoms: N_58  and  C_10 
REMARK    2  A    between atoms: N_15  and  C_11 
REMARK    3  A    between atoms: C_19  and  C_16 
REMARK       I    between atoms: N_24  and  C_19 
REMARK    4  A    between atoms: C_25  and  N_24 
REMARK    5  A    between atoms: C_43  and  C_44 
REMARK    6  A    between atoms: C_54  and  C_56 
REMARK    7  A    between atoms: C_59  and  N_58 
REMARK    8  A    between atoms: C_77  and  C_78 
REMARK    9  A    between atoms: C_88  and  C_90 
ROOT
HETATM    1  C   UNK N   1      26.288  15.447   3.128  0.00  0.00     0.086 A 
HETATM    2  C   UNK N   1      25.199  16.438   3.209  0.00  0.00     0.114 A 
HETATM    3  O   UNK N   1      23.994  16.116   2.735  0.00  0.00    -0.305 OA
HETATM    4  C   UNK N   1      24.795  13.956   2.140  0.00  0.00     0.083 A 
HETATM    5  C   UNK N   1      23.772  14.930   2.161  0.00  0.00     0.109 A 
HETATM    6  N   UNK N   1      26.011  14.242   2.640  0.00  0.00    -0.350 N 
ATOM      7  HN  UNK N   1      26.732  13.521   2.646  1.00  0.00     0.166 HD
HETATM    8  C   UNK N   1      27.608  15.803   3.377  0.00  0.00     0.091 A 
HETATM    9  C   UNK N   1      25.484  17.717   3.674  0.00  0.00     0.027 A 
HETATM   10  C   UNK N   1      27.871  17.138   3.766  0.00  0.00     0.095 A 
HETATM   11  C   UNK N   1      26.821  18.066   3.953  0.00  0.00     0.207 A 
HETATM   12  C   UNK N   1      24.391  18.731   3.790  0.00  0.00     0.056 C 
HETATM   13  C   UNK N   1      24.617  12.736   1.518  0.00  0.00     0.061 A 
HETATM   14  C   UNK N   1      22.549  14.646   1.529  0.00  0.00    -0.026 A 
HETATM   15  O   UNK N   1      27.081  19.200   4.322  0.00  0.00    -0.285 OA
HETATM   16  C   UNK N   1      23.413  12.473   0.851  0.00  0.00     0.020 A 
HETATM   17  C   UNK N   1      22.382  13.424   0.860  0.00  0.00     0.011 A 
HETATM   18  C   UNK N   1      21.449  15.649   1.503  0.00  0.00     0.051 C 
ENDROOT
BRANCH   8  19
HETATM   19  C   UNK N   1      28.721  14.819   3.124  0.00  0.00     0.257 C 
HETATM   20  N   UNK N   1      29.532  14.365   4.141  0.00  0.00    -0.341 N 
HETATM   21  H   UNK N   1      29.312  14.643   5.060  0.00  0.00     0.163 HD
HETATM   22  O   UNK N   1      28.927  14.465   1.973  0.00  0.00    -0.267 OA
BRANCH  20  23
HETATM   23  C   UNK N   1      30.711  13.492   3.954  0.00  0.00     0.206 C 
HETATM   24  C   UNK N   1      30.498  12.057   4.483  0.00  0.00     0.243 C 
HETATM   25  O   UNK N   1      29.359  11.702   4.740  0.00  0.00    -0.271 OA
HETATM   26  N   UNK N   1      31.513  11.152   4.699  0.00  0.00    -0.346 N 
HETATM   27  C   UNK N   1      32.950  11.389   4.559  0.00  0.00     0.180 C 
HETATM   28  H   UNK N   1      31.243  10.248   4.978  0.00  0.00     0.163 HD
HETATM   29  C   UNK N   1      33.543  11.927   5.883  0.00  0.00     0.243 C 
HETATM   30  N   UNK N   1      34.883  11.952   6.210  0.00  0.00    -0.337 N 
HETATM   31  O   UNK N   1      32.751  12.433   6.667  0.00  0.00    -0.271 OA
HETATM   32  C   UNK N   1      35.911  11.268   5.488  0.00  0.00     0.127 C 
HETATM   33  C   UNK N   1      35.369  12.682   7.366  0.00  0.00     0.179 C 
HETATM   34  C   UNK N   1      37.149  11.358   6.362  0.00  0.00     0.022 C 
HETATM   35  C   UNK N   1      36.869  12.440   7.395  0.00  0.00     0.037 C 
HETATM   36  C   UNK N   1      35.094  14.182   7.240  0.00  0.00     0.242 C 
HETATM   37  O   UNK N   1      34.569  14.602   6.217  0.00  0.00    -0.271 OA
HETATM   38  N   UNK N   1      35.381  15.057   8.258  0.00  0.00    -0.346 N 
HETATM   39  C   UNK N   1      34.938  16.440   8.202  0.00  0.00     0.228 C 
HETATM   40  C   UNK N   1      36.017  14.605   9.468  0.00  0.00     0.153 C 
HETATM   41  C   UNK N   1      33.433  16.446   8.148  0.00  0.00     0.238 C 
HETATM   42  O   UNK N   1      32.823  15.764   8.961  0.00  0.00    -0.272 OA
HETATM   43  N   UNK N   1      32.754  17.106   7.162  0.00  0.00    -0.341 N 
HETATM   44  C   UNK N   1      33.453  17.938   6.213  0.00  0.00     0.153 C 
HETATM   45  C   UNK N   1      31.348  16.835   6.923  0.00  0.00     0.190 C 
HETATM   46  C   UNK N   1      31.269  15.451   6.339  0.00  0.00     0.282 C 
HETATM   47  O   UNK N   1      31.947  15.245   5.184  0.00  0.00    -0.312 OA
HETATM   48  O   UNK N   1      30.642  14.552   6.882  0.00  0.00    -0.263 OA
HETATM   49  C   UNK N   1      32.032  14.078   4.464  0.00  0.00     0.159 C 
HETATM   50  C   UNK N   1      32.957  14.290   3.281  0.00  0.00     0.042 C 
BRANCH  27  51
HETATM   51  C   UNK N   1      33.690  10.323   3.718  0.00  0.00     0.009 C 
HETATM   52  C   UNK N   1      33.178  10.315   2.290  0.00  0.00     0.012 C 
HETATM   53  C   UNK N   1      33.424   8.923   4.220  0.00  0.00     0.012 C 
ENDBRANCH  27  51
BRANCH  45  54
HETATM   54  C   UNK N   1      30.454  17.126   8.140  0.00  0.00     0.010 C 
HETATM   55  C   UNK N   1      30.837  18.465   8.740  0.00  0.00     0.012 C 
HETATM   56  C   UNK N   1      28.986  17.189   7.751  0.00  0.00     0.012 C 
ENDBRANCH  45  54
ENDBRANCH  20  23
ENDBRANCH   8  19
BRANCH  10  57
HETATM   57  N   UNK N   1      29.201  17.560   3.980  0.00  0.00    -0.395 N 
HETATM   58  H   UNK N   1      29.695  18.168   3.382  0.00  0.00     0.156 HD
HETATM   59  H   UNK N   1      29.666  17.226   4.781  0.00  0.00     0.156 HD
ENDBRANCH  10  57
BRANCH  13  60
HETATM   60  C   UNK N   1      25.685  11.719   1.623  0.00  0.00     0.254 C 
HETATM   61  N   UNK N   1      25.373  10.415   1.731  0.00  0.00    -0.341 N 
HETATM   62  H   UNK N   1      24.521  10.101   1.351  0.00  0.00     0.163 HD
HETATM   63  O   UNK N   1      26.844  12.082   1.754  0.00  0.00    -0.268 OA
BRANCH  61  64
HETATM   64  C   UNK N   1      26.236   9.450   2.384  0.00  0.00     0.206 C 
HETATM   65  C   UNK N   1      27.276   8.868   1.425  0.00  0.00     0.243 C 
HETATM   66  O   UNK N   1      27.341   9.315   0.290  0.00  0.00    -0.271 OA
HETATM   67  N   UNK N   1      28.046   7.790   1.727  0.00  0.00    -0.346 N 
HETATM   68  C   UNK N   1      28.133   7.106   3.000  0.00  0.00     0.180 C 
HETATM   69  H   UNK N   1      28.606   7.436   1.000  0.00  0.00     0.163 HD
HETATM   70  C   UNK N   1      27.357   5.810   2.958  0.00  0.00     0.243 C 
HETATM   71  N   UNK N   1      26.501   5.455   3.970  0.00  0.00    -0.337 N 
HETATM   72  O   UNK N   1      27.555   5.035   2.031  0.00  0.00    -0.271 OA
HETATM   73  C   UNK N   1      25.978   4.124   4.058  0.00  0.00     0.127 C 
HETATM   74  C   UNK N   1      26.317   6.196   5.196  0.00  0.00     0.179 C 
HETATM   75  C   UNK N   1      26.061   3.823   5.555  0.00  0.00     0.022 C 
HETATM   76  C   UNK N   1      26.621   5.101   6.205  0.00  0.00     0.037 C 
HETATM   77  C   UNK N   1      24.870   6.733   5.238  0.00  0.00     0.242 C 
HETATM   78  O   UNK N   1      24.470   7.269   4.216  0.00  0.00    -0.271 OA
HETATM   79  N   UNK N   1      24.025   6.654   6.338  0.00  0.00    -0.346 N 
HETATM   80  C   UNK N   1      22.634   7.110   6.289  0.00  0.00     0.228 C 
HETATM   81  C   UNK N   1      24.461   6.110   7.597  0.00  0.00     0.153 C 
HETATM   82  C   UNK N   1      22.492   8.478   5.686  0.00  0.00     0.238 C 
HETATM   83  O   UNK N   1      21.930   8.551   4.606  0.00  0.00    -0.272 OA
HETATM   84  N   UNK N   1      23.078   9.585   6.257  0.00  0.00    -0.341 N 
HETATM   85  C   UNK N   1      23.676   9.485   7.564  0.00  0.00     0.153 C 
HETATM   86  C   UNK N   1      23.372  10.796   5.501  0.00  0.00     0.190 C 
HETATM   87  C   UNK N   1      24.276  10.422   4.376  0.00  0.00     0.282 C 
HETATM   88  O   UNK N   1      25.627  10.639   4.488  0.00  0.00    -0.312 OA
HETATM   89  O   UNK N   1      23.798   9.793   3.448  0.00  0.00    -0.263 OA
HETATM   90  C   UNK N   1      26.679  10.164   3.690  0.00  0.00     0.159 C 
HETATM   91  C   UNK N   1      27.683   9.453   4.562  0.00  0.00     0.042 C 
BRANCH  68  92
HETATM   92  C   UNK N   1      29.616   6.808   3.291  0.00  0.00     0.009 C 
HETATM   93  C   UNK N   1      29.915   6.765   4.780  0.00  0.00     0.012 C 
HETATM   94  C   UNK N   1      30.532   7.835   2.648  0.00  0.00     0.012 C 
ENDBRANCH  68  92
BRANCH  86  95
HETATM   95  C   UNK N   1      22.192  11.705   5.080  0.00  0.00     0.010 C 
HETATM   96  C   UNK N   1      20.917  11.607   5.903  0.00  0.00     0.012 C 
HETATM   97  C   UNK N   1      22.611  13.149   4.921  0.00  0.00     0.012 C 
ENDBRANCH  86  95
ENDBRANCH  61  64
ENDBRANCH  13  60
TORSDOF 9
ENDMDL
MODEL 3
REMARK VINA RESULT:      -8.9      2.840      8.819
REMARK  9 active torsions:
REMARK  status: ('A' for Active; 'I' for Inactive)
REMARK    1  A    between atoms: C_10  and  C_8 
REMARK       I    between atoms: N_58  and  C_10 
REMARK    2  A    between atoms: N_15  and  C_11 
REMARK    3  A    between atoms: C_19  and  C_16 
REMARK       I    between atoms: N_24  and  C_19 
REMARK    4  A    between atoms: C_25  and  N_24 
REMARK    5  A    between atoms: C_43  and  C_44 
REMARK    6  A    between atoms: C_54  and  C_56 
REMARK    7  A    between atoms: C_59  and  N_58 
REMARK    8  A    between atoms: C_77  and  C_78 
REMARK    9  A    between atoms: C_88  and  C_90 
ROOT
HETATM    1  C   UNK N   1      29.821  15.023   5.755  0.00  0.00     0.086 A 
HETATM    2  C   UNK N   1      30.837  15.854   6.426  0.00  0.00     0.114 A 
HETATM    3  O   UNK N   1      32.094  15.411   6.496  0.00  0.00    -0.305 OA
HETATM    4  C   UNK N   1      31.478  13.449   5.301  0.00  0.00     0.083 A 
HETATM    5  C   UNK N   1      32.434  14.218   6.001  0.00  0.00     0.109 A 
HETATM    6  N   UNK N   1      30.211  13.886   5.187  0.00  0.00    -0.350 N 
ATOM      7  HN  UNK N   1      29.537  13.336   4.654  1.00  0.00     0.166 HD
HETATM    8  C   UNK N   1      28.466  15.311   5.863  0.00  0.00     0.091 A 
HETATM    9  C   UNK N   1      30.438  17.023   7.066  0.00  0.00     0.027 A 
HETATM   10  C   UNK N   1      28.091  16.464   6.593  0.00  0.00     0.095 A 
HETATM   11  C   UNK N   1      29.064  17.328   7.148  0.00  0.00     0.207 A 
HETATM   12  C   UNK N   1      31.453  17.897   7.730  0.00  0.00     0.056 C 
HETATM   13  C   UNK N   1      31.780  12.192   4.812  0.00  0.00     0.061 A 
HETATM   14  C   UNK N   1      33.719  13.685   6.204  0.00  0.00    -0.026 A 
HETATM   15  O   UNK N   1      28.706  18.331   7.742  0.00  0.00    -0.285 OA
HETATM   16  C   UNK N   1      33.047  11.647   5.055  0.00  0.00     0.020 A 
HETATM   17  C   UNK N   1      34.013  12.392   5.746  0.00  0.00     0.011 A 
HETATM   18  C   UNK N   1      34.753  14.447   6.956  0.00  0.00     0.051 C 
ENDROOT
BRANCH   8  19
HETATM   19  C   UNK N   1      27.440  14.356   5.312  0.00  0.00     0.257 C 
HETATM   20  N   UNK N   1      26.976  14.456   4.018  0.00  0.00    -0.341 N 
HETATM   21  H   UNK N   1      27.397  15.127   3.433  0.00  0.00     0.163 HD
HETATM   22  O   UNK N   1      26.981  13.508   6.063  0.00  0.00    -0.267 OA
BRANCH  20  23
HETATM   23  C   UNK N   1      25.891  13.631   3.445  0.00  0.00     0.206 C 
HETATM   24  C   UNK N   1      26.095  13.310   1.948  0.00  0.00     0.243 C 
HETATM   25  O   UNK N   1      27.196  13.510   1.462  0.00  0.00    -0.271 OA
HETATM   26  N   UNK N   1      25.108  12.824   1.118  0.00  0.00    -0.346 N 
HETATM   27  C   UNK N   1      23.702  12.606   1.455  0.00  0.00     0.180 C 
HETATM   28  H   UNK N   1      25.379  12.599   0.200  0.00  0.00     0.163 HD
HETATM   29  C   UNK N   1      22.877  13.890   1.200  0.00  0.00     0.243 C 
HETATM   30  N   UNK N   1      21.503  13.954   1.098  0.00  0.00    -0.337 N 
HETATM   31  O   UNK N   1      23.506  14.940   1.156  0.00  0.00    -0.271 OA
HETATM   32  C   UNK N   1      20.641  12.820   0.971  0.00  0.00     0.127 C 
HETATM   33  C   UNK N   1      20.800  15.223   1.091  0.00  0.00     0.179 C 
HETATM   34  C   UNK N   1      19.277  13.384   0.617  0.00  0.00     0.022 C 
HETATM   35  C   UNK N   1      19.330  14.871   0.938  0.00  0.00     0.037 C 
HETATM   36  C   UNK N   1      21.010  15.990   2.399  0.00  0.00     0.242 C 
HETATM   37  O   UNK N   1      21.668  15.468   3.290  0.00  0.00    -0.271 OA
HETATM   38  N   UNK N   1      20.518  17.258   2.580  0.00  0.00    -0.346 N 
HETATM   39  C   UNK N   1      20.889  18.046   3.744  0.00  0.00     0.228 C 
HETATM   40  C   UNK N   1      19.723  17.898   1.563  0.00  0.00     0.153 C 
HETATM   41  C   UNK N   1      22.381  18.249   3.713  0.00  0.00     0.238 C 
HETATM   42  O   UNK N   1      22.889  18.639   2.670  0.00  0.00    -0.272 OA
HETATM   43  N   UNK N   1      23.171  17.915   4.777  0.00  0.00    -0.341 N 
HETATM   44  C   UNK N   1      22.588  17.481   6.024  0.00  0.00     0.153 C 
HETATM   45  C   UNK N   1      24.610  17.798   4.623  0.00  0.00     0.190 C 
HETATM   46  C   UNK N   1      24.855  16.571   3.788  0.00  0.00     0.282 C 
HETATM   47  O   UNK N   1      24.382  15.402   4.281  0.00  0.00    -0.312 OA
HETATM   48  O   UNK N   1      25.435  16.624   2.712  0.00  0.00    -0.263 OA
HETATM   49  C   UNK N   1      24.476  14.156   3.710  0.00  0.00     0.159 C 
HETATM   50  C   UNK N   1      23.741  13.154   4.578  0.00  0.00     0.042 C 
BRANCH  27  51
HETATM   51  C   UNK N   1      23.163  11.210   1.063  0.00  0.00     0.009 C 
HETATM   52  C   UNK N   1      23.697  10.145   2.002  0.00  0.00     0.012 C 
HETATM   53  C   UNK N   1      23.648  10.783  -0.304  0.00  0.00     0.012 C 
ENDBRANCH  27  51
BRANCH  45  54
HETATM   54  C   UNK N   1      25.281  19.101   4.156  0.00  0.00     0.010 C 
HETATM   55  C   UNK N   1      25.187  20.141   5.256  0.00  0.00     0.012 C 
HETATM   56  C   UNK N   1      26.752  18.886   3.837  0.00  0.00     0.012 C 
ENDBRANCH  45  54
ENDBRANCH  20  23
ENDBRANCH   8  19
BRANCH  10  57
HETATM   57  N   UNK N   1      26.725  16.770   6.774  0.00  0.00    -0.395 N 
HETATM   58  H   UNK N   1      26.203  17.357   6.179  0.00  0.00     0.156 HD
HETATM   59  H   UNK N   1      26.262  16.371   7.546  0.00  0.00     0.156 HD
ENDBRANCH  10  57
BRANCH  13  60
HETATM   60  C   UNK N   1      30.772  11.483   3.996  0.00  0.00     0.254 C 
HETATM   61  N   UNK N   1      31.138  10.464   3.198  0.00  0.00    -0.341 N 
HETATM   62  H   UNK N   1      31.936   9.941   3.438  0.00  0.00     0.163 HD
HETATM   63  O   UNK N   1      29.631  11.920   3.945  0.00  0.00    -0.268 OA
BRANCH  61  64
HETATM   64  C   UNK N   1      30.408  10.101   1.999  0.00  0.00     0.206 C 
HETATM   65  C   UNK N   1      29.226   9.180   2.304  0.00  0.00     0.243 C 
HETATM   66  O   UNK N   1      28.963   8.928   3.470  0.00  0.00    -0.271 OA
HETATM   67  N   UNK N   1      28.529   8.521   1.340  0.00  0.00    -0.346 N 
HETATM   68  C   UNK N   1      28.667   8.665  -0.093  0.00  0.00     0.180 C 
HETATM   69  H   UNK N   1      27.856   7.875   1.653  0.00  0.00     0.163 HD
HETATM   70  C   UNK N   1      29.437   7.500  -0.670  0.00  0.00     0.243 C 
HETATM   71  N   UNK N   1      30.456   7.689  -1.568  0.00  0.00    -0.337 N 
HETATM   72  O   UNK N   1      29.090   6.362  -0.376  0.00  0.00    -0.271 OA
HETATM   73  C   UNK N   1      31.000   6.589  -2.308  0.00  0.00     0.127 C 
HETATM   74  C   UNK N   1      30.840   8.965  -2.127  0.00  0.00     0.179 C 
HETATM   75  C   UNK N   1      31.176   7.174  -3.710  0.00  0.00     0.022 C 
HETATM   76  C   UNK N   1      30.723   8.641  -3.607  0.00  0.00     0.037 C 
HETATM   77  C   UNK N   1      32.268   9.306  -1.649  0.00  0.00     0.242 C 
HETATM   78  O   UNK N   1      32.482   9.151  -0.456  0.00  0.00    -0.271 OA
HETATM   79  N   UNK N   1      33.289   9.774  -2.466  0.00  0.00    -0.346 N 
HETATM   80  C   UNK N   1      34.647  10.003  -1.966  0.00  0.00     0.228 C 
HETATM   81  C   UNK N   1      33.080  10.057  -3.862  0.00  0.00     0.153 C 
HETATM   82  C   UNK N   1      34.670  10.791  -0.688  0.00  0.00     0.238 C 
HETATM   83  O   UNK N   1      35.040  10.205   0.317  0.00  0.00    -0.272 OA
HETATM   84  N   UNK N   1      34.180  12.075  -0.621  0.00  0.00    -0.341 N 
HETATM   85  C   UNK N   1      33.815  12.768  -1.830  0.00  0.00     0.153 C 
HETATM   86  C   UNK N   1      33.750  12.687   0.631  0.00  0.00     0.190 C 
HETATM   87  C   UNK N   1      32.670  11.835   1.206  0.00  0.00     0.282 C 
HETATM   88  O   UNK N   1      31.356  12.196   1.037  0.00  0.00    -0.312 OA
HETATM   89  O   UNK N   1      32.989  10.759   1.682  0.00  0.00    -0.263 OA
HETATM   90  C   UNK N   1      30.188  11.453   1.268  0.00  0.00     0.159 C 
HETATM   91  C   UNK N   1      29.355  11.434   0.012  0.00  0.00     0.042 C 
BRANCH  68  92
HETATM   92  C   UNK N   1      27.258   8.709  -0.715  0.00  0.00     0.009 C 
HETATM   93  C   UNK N   1      26.216   8.044   0.168  0.00  0.00     0.012 C 
HETATM   94  C   UNK N   1      27.224   8.045  -2.080  0.00  0.00     0.012 C 
ENDBRANCH  68  92
BRANCH  86  95
HETATM   95  C   UNK N   1      34.832  13.105   1.656  0.00  0.00     0.010 C 
HETATM   96  C   UNK N   1      36.205  13.458   1.106  0.00  0.00     0.012 C 
HETATM   97  C   UNK N   1      34.343  14.183   2.596  0.00  0.00     0.012 C 
ENDBRANCH  86  95
ENDBRANCH  61  64
ENDBRANCH  13  60
TORSDOF 9
ENDMDL
MODEL 4
REMARK VINA RESULT:      -8.9      2.497      8.004
REMARK  9 active torsions:
REMARK  status: ('A' for Active; 'I' for Inactive)
REMARK    1  A    between atoms: C_10  and  C_8 
REMARK       I    between atoms: N_58  and  C_10 
REMARK    2  A    between atoms: N_15  and  C_11 
REMARK    3  A    between atoms: C_19  and  C_16 
REMARK       I    between atoms: N_24  and  C_19 
REMARK    4  A    between atoms: C_25  and  N_24 
REMARK    5  A    between atoms: C_43  and  C_44 
REMARK    6  A    between atoms: C_54  and  C_56 
REMARK    7  A    between atoms: C_59  and  N_58 
REMARK    8  A    between atoms: C_77  and  C_78 
REMARK    9  A    between atoms: C_88  and  C_90 
ROOT
HETATM    1  C   UNK N   1      30.096  16.138   6.131  0.00  0.00     0.086 A 
HETATM    2  C   UNK N   1      30.493  17.221   7.050  0.00  0.00     0.114 A 
HETATM    3  O   UNK N   1      31.791  17.458   7.249  0.00  0.00    -0.305 OA
HETATM    4  C   UNK N   1      32.351  15.716   5.730  0.00  0.00     0.083 A 
HETATM    5  C   UNK N   1      32.728  16.711   6.659  0.00  0.00     0.109 A 
HETATM    6  N   UNK N   1      31.051  15.476   5.485  0.00  0.00    -0.350 N 
ATOM      7  HN  UNK N   1      30.792  14.776   4.791  1.00  0.00     0.166 HD
HETATM    8  C   UNK N   1      28.783  15.688   6.071  0.00  0.00     0.091 A 
HETATM    9  C   UNK N   1      29.508  17.892   7.768  0.00  0.00     0.027 A 
HETATM   10  C   UNK N   1      27.822  16.339   6.880  0.00  0.00     0.095 A 
HETATM   11  C   UNK N   1      28.173  17.450   7.682  0.00  0.00     0.207 A 
HETATM   12  C   UNK N   1      29.884  19.012   8.685  0.00  0.00     0.056 C 
HETATM   13  C   UNK N   1      33.288  14.894   5.133  0.00  0.00     0.061 A 
HETATM   14  C   UNK N   1      34.088  16.861   6.982  0.00  0.00    -0.026 A 
HETATM   15  O   UNK N   1      27.312  18.010   8.341  0.00  0.00    -0.285 OA
HETATM   16  C   UNK N   1      34.637  15.017   5.491  0.00  0.00     0.020 A 
HETATM   17  C   UNK N   1      35.035  15.999   6.409  0.00  0.00     0.011 A 
HETATM   18  C   UNK N   1      34.531  17.880   7.974  0.00  0.00     0.051 C 
ENDROOT
BRANCH   8  19
HETATM   19  C   UNK N   1      28.433  14.471   5.253  0.00  0.00     0.257 C 
HETATM   20  N   UNK N   1      27.248  14.382   4.556  0.00  0.00    -0.341 N 
HETATM   21  H   UNK N   1      26.666  15.176   4.542  0.00  0.00     0.163 HD
HETATM   22  O   UNK N   1      29.211  13.529   5.262  0.00  0.00    -0.267 OA
BRANCH  20  23
HETATM   23  C   UNK N   1      26.787  13.180   3.827  0.00  0.00     0.206 C 
HETATM   24  C   UNK N   1      27.269  13.134   2.361  0.00  0.00     0.243 C 
HETATM   25  O   UNK N   1      28.161  13.896   2.024  0.00  0.00    -0.271 OA
HETATM   26  N   UNK N   1      26.746  12.297   1.400  0.00  0.00    -0.346 N 
HETATM   27  C   UNK N   1      25.615  11.383   1.548  0.00  0.00     0.180 C 
HETATM   28  H   UNK N   1      27.181  12.317   0.517  0.00  0.00     0.163 HD
HETATM   29  C   UNK N   1      24.286  12.105   1.225  0.00  0.00     0.243 C 
HETATM   30  N   UNK N   1      23.083  11.488   0.950  0.00  0.00    -0.337 N 
HETATM   31  O   UNK N   1      24.302  13.327   1.288  0.00  0.00    -0.271 OA
HETATM   32  C   UNK N   1      22.925  10.091   0.684  0.00  0.00     0.127 C 
HETATM   33  C   UNK N   1      21.842  12.237   0.886  0.00  0.00     0.179 C 
HETATM   34  C   UNK N   1      21.504   9.933   0.175  0.00  0.00     0.022 C 
HETATM   35  C   UNK N   1      20.771  11.217   0.538  0.00  0.00     0.037 C 
HETATM   36  C   UNK N   1      21.509  12.890   2.230  0.00  0.00     0.242 C 
HETATM   37  O   UNK N   1      22.250  12.688   3.184  0.00  0.00    -0.271 OA
HETATM   38  N   UNK N   1      20.432  13.726   2.380  0.00  0.00    -0.346 N 
HETATM   39  C   UNK N   1      20.242  14.489   3.602  0.00  0.00     0.228 C 
HETATM   40  C   UNK N   1      19.526  13.973   1.288  0.00  0.00     0.153 C 
HETATM   41  C   UNK N   1      21.424  15.408   3.768  0.00  0.00     0.238 C 
HETATM   42  O   UNK N   1      21.766  16.087   2.809  0.00  0.00    -0.272 OA
HETATM   43  N   UNK N   1      22.168  15.418   4.914  0.00  0.00    -0.341 N 
HETATM   44  C   UNK N   1      21.764  14.647   6.065  0.00  0.00     0.153 C 
HETATM   45  C   UNK N   1      23.477  16.044   4.941  0.00  0.00     0.190 C 
HETATM   46  C   UNK N   1      24.386  15.178   4.113  0.00  0.00     0.282 C 
HETATM   47  O   UNK N   1      24.520  13.891   4.511  0.00  0.00    -0.312 OA
HETATM   48  O   UNK N   1      24.962  15.604   3.122  0.00  0.00    -0.263 OA
HETATM   49  C   UNK N   1      25.281  12.910   3.923  0.00  0.00     0.159 C 
HETATM   50  C   UNK N   1      25.070  11.604   4.664  0.00  0.00     0.042 C 
BRANCH  27  51
HETATM   51  C   UNK N   1      25.892   9.943   1.054  0.00  0.00     0.009 C 
HETATM   52  C   UNK N   1      25.830   8.958   2.207  0.00  0.00     0.012 C 
HETATM   53  C   UNK N   1      27.293   9.795   0.508  0.00  0.00     0.012 C 
ENDBRANCH  27  51
BRANCH  45  54
HETATM   54  C   UNK N   1      23.444  17.543   4.598  0.00  0.00     0.010 C 
HETATM   55  C   UNK N   1      22.413  18.238   5.467  0.00  0.00     0.012 C 
HETATM   56  C   UNK N   1      24.791  18.202   4.851  0.00  0.00     0.012 C 
ENDBRANCH  45  54
ENDBRANCH  20  23
ENDBRANCH   8  19
BRANCH  10  57
HETATM   57  N   UNK N   1      26.485  15.884   6.892  0.00  0.00    -0.395 N 
HETATM   58  H   UNK N   1      25.775  16.261   7.461  0.00  0.00     0.156 HD
HETATM   59  H   UNK N   1      26.248  15.141   6.292  0.00  0.00     0.156 HD
ENDBRANCH  10  57
BRANCH  13  60
HETATM   60  C   UNK N   1      32.844  13.946   4.090  0.00  0.00     0.254 C 
HETATM   61  N   UNK N   1      33.524  12.805   3.875  0.00  0.00    -0.341 N 
HETATM   62  H   UNK N   1      34.032  12.412   4.620  0.00  0.00     0.163 HD
HETATM   63  O   UNK N   1      31.942  14.271   3.333  0.00  0.00    -0.268 OA
BRANCH  61  64
HETATM   64  C   UNK N   1      33.541  12.128   2.592  0.00  0.00     0.206 C 
HETATM   65  C   UNK N   1      33.933  13.069   1.453  0.00  0.00     0.243 C 
HETATM   66  O   UNK N   1      34.269  14.212   1.724  0.00  0.00    -0.271 OA
HETATM   67  N   UNK N   1      33.803  12.742   0.140  0.00  0.00    -0.346 N 
HETATM   68  C   UNK N   1      33.425  11.456  -0.409  0.00  0.00     0.180 C 
HETATM   69  H   UNK N   1      33.986  13.459  -0.509  0.00  0.00     0.163 HD
HETATM   70  C   UNK N   1      31.988  11.480  -0.872  0.00  0.00     0.243 C 
HETATM   71  N   UNK N   1      31.116  10.469  -0.557  0.00  0.00    -0.337 N 
HETATM   72  O   UNK N   1      31.620  12.393  -1.602  0.00  0.00    -0.271 OA
HETATM   73  C   UNK N   1      29.846  10.361  -1.210  0.00  0.00     0.127 C 
HETATM   74  C   UNK N   1      31.474   9.257   0.145  0.00  0.00     0.179 C 
HETATM   75  C   UNK N   1      29.720   8.858  -1.464  0.00  0.00     0.022 C 
HETATM   76  C   UNK N   1      30.988   8.227  -0.860  0.00  0.00     0.037 C 
HETATM   77  C   UNK N   1      30.741   9.236   1.503  0.00  0.00     0.242 C 
HETATM   78  O   UNK N   1      30.787  10.270   2.151  0.00  0.00    -0.271 OA
HETATM   79  N   UNK N   1      30.060   8.141   2.021  0.00  0.00    -0.346 N 
HETATM   80  C   UNK N   1      29.315   8.208   3.280  0.00  0.00     0.228 C 
HETATM   81  C   UNK N   1      30.037   6.869   1.347  0.00  0.00     0.153 C 
HETATM   82  C   UNK N   1      30.106   8.837   4.391  0.00  0.00     0.238 C 
HETATM   83  O   UNK N   1      29.724   9.922   4.797  0.00  0.00    -0.272 OA
HETATM   84  N   UNK N   1      31.280   8.281   4.847  0.00  0.00    -0.341 N 
HETATM   85  C   UNK N   1      31.672   6.969   4.402  0.00  0.00     0.153 C 
HETATM   86  C   UNK N   1      32.295   9.058   5.550  0.00  0.00     0.190 C 
HETATM   87  C   UNK N   1      32.721  10.169   4.652  0.00  0.00     0.282 C 
HETATM   88  O   UNK N   1      33.880  10.050   3.926  0.00  0.00    -0.312 OA
HETATM   89  O   UNK N   1      31.941  11.089   4.477  0.00  0.00    -0.263 OA
HETATM   90  C   UNK N   1      34.353  10.832   2.862  0.00  0.00     0.159 C 
HETATM   91  C   UNK N   1      34.645   9.941   1.681  0.00  0.00     0.042 C 
BRANCH  68  92
HETATM   92  C   UNK N   1      34.347  11.149  -1.605  0.00  0.00     0.009 C 
HETATM   93  C   UNK N   1      34.395   9.666  -1.930  0.00  0.00     0.012 C 
HETATM   94  C   UNK N   1      35.766  11.633  -1.361  0.00  0.00     0.012 C 
ENDBRANCH  68  92
BRANCH  86  95
HETATM   95  C   UNK N   1      32.004   9.503   7.004  0.00  0.00     0.010 C 
HETATM   96  C   UNK N   1      31.314   8.496   7.910  0.00  0.00     0.012 C 
HETATM   97  C   UNK N   1      33.228  10.076   7.681  0.00  0.00     0.012 C 
ENDBRANCH  86  95
ENDBRANCH  61  64
ENDBRANCH  13  60
TORSDOF 9
ENDMDL
MODEL 5
REMARK VINA RESULT:      -8.9      5.425     10.869
REMARK  9 active torsions:
REMARK  status: ('A' for Active; 'I' for Inactive)
REMARK    1  A    between atoms: C_10  and  C_8 
REMARK       I    between atoms: N_58  and  C_10 
REMARK    2  A    between atoms: N_15  and  C_11 
REMARK    3  A    between atoms: C_19  and  C_16 
REMARK       I    between atoms: N_24  and  C_19 
REMARK    4  A    between atoms: C_25  and  N_24 
REMARK    5  A    between atoms: C_43  and  C_44 
REMARK    6  A    between atoms: C_54  and  C_56 
REMARK    7  A    between atoms: C_59  and  N_58 
REMARK    8  A    between atoms: C_77  and  C_78 
REMARK    9  A    between atoms: C_88  and  C_90 
ROOT
HETATM    1  C   UNK N   1      37.513  10.915  12.439  0.00  0.00     0.086 A 
HETATM    2  C   UNK N   1      37.605   9.965  13.563  0.00  0.00     0.114 A 
HETATM    3  O   UNK N   1      37.952   8.701  13.316  0.00  0.00    -0.305 OA
HETATM    4  C   UNK N   1      38.159   9.201  11.000  0.00  0.00     0.083 A 
HETATM    5  C   UNK N   1      38.183   8.279  12.070  0.00  0.00     0.109 A 
HETATM    6  N   UNK N   1      37.843  10.489  11.223  0.00  0.00    -0.350 N 
ATOM      7  HN  UNK N   1      37.858  11.151  10.448  1.00  0.00     0.166 HD
HETATM    8  C   UNK N   1      36.927  12.165  12.596  0.00  0.00     0.091 A 
HETATM    9  C   UNK N   1      37.218  10.382  14.832  0.00  0.00     0.027 A 
HETATM   10  C   UNK N   1      36.468  12.523  13.885  0.00  0.00     0.095 A 
HETATM   11  C   UNK N   1      36.650  11.662  14.993  0.00  0.00     0.207 A 
HETATM   12  C   UNK N   1      37.327   9.446  15.993  0.00  0.00     0.056 C 
HETATM   13  C   UNK N   1      38.350   8.795   9.693  0.00  0.00     0.061 A 
HETATM   14  C   UNK N   1      38.403   6.919  11.791  0.00  0.00    -0.026 A 
HETATM   15  O   UNK N   1      36.273  12.018  16.097  0.00  0.00    -0.285 OA
HETATM   16  C   UNK N   1      38.524   7.433   9.415  0.00  0.00     0.020 A 
HETATM   17  C   UNK N   1      38.554   6.499  10.460  0.00  0.00     0.011 A 
HETATM   18  C   UNK N   1      38.412   5.906  12.882  0.00  0.00     0.051 C 
ENDROOT
BRANCH   8  19
HETATM   19  C   UNK N   1      36.692  13.050  11.399  0.00  0.00     0.257 C 
HETATM   20  N   UNK N   1      35.427  13.279  10.903  0.00  0.00    -0.341 N 
HETATM   21  H   UNK N   1      34.666  12.909  11.406  0.00  0.00     0.163 HD
HETATM   22  O   UNK N   1      37.666  13.527  10.836  0.00  0.00    -0.267 OA
BRANCH  20  23
HETATM   23  C   UNK N   1      35.130  14.040   9.669  0.00  0.00     0.206 C 
HETATM   24  C   UNK N   1      33.937  15.008   9.823  0.00  0.00     0.243 C 
HETATM   25  O   UNK N   1      33.541  15.259  10.950  0.00  0.00    -0.271 OA
HETATM   26  N   UNK N   1      33.279  15.599   8.768  0.00  0.00    -0.346 N 
HETATM   27  C   UNK N   1      33.512  15.368   7.342  0.00  0.00     0.180 C 
HETATM   28  H   UNK N   1      32.575  16.247   8.997  0.00  0.00     0.163 HD
HETATM   29  C   UNK N   1      32.653  14.186   6.836  0.00  0.00     0.243 C 
HETATM   30  N   UNK N   1      32.377  13.903   5.514  0.00  0.00    -0.337 N 
HETATM   31  O   UNK N   1      32.247  13.405   7.687  0.00  0.00    -0.271 OA
HETATM   32  C   UNK N   1      32.636  14.786   4.420  0.00  0.00     0.127 C 
HETATM   33  C   UNK N   1      31.761  12.650   5.119  0.00  0.00     0.179 C 
HETATM   34  C   UNK N   1      31.926  14.173   3.226  0.00  0.00     0.022 C 
HETATM   35  C   UNK N   1      31.602  12.736   3.610  0.00  0.00     0.037 C 
HETATM   36  C   UNK N   1      32.645  11.452   5.472  0.00  0.00     0.242 C 
HETATM   37  O   UNK N   1      33.741  11.656   5.978  0.00  0.00    -0.271 OA
HETATM   38  N   UNK N   1      32.223  10.160   5.278  0.00  0.00    -0.346 N 
HETATM   39  C   UNK N   1      32.988   9.038   5.797  0.00  0.00     0.228 C 
HETATM   40  C   UNK N   1      30.949   9.879   4.669  0.00  0.00     0.153 C 
HETATM   41  C   UNK N   1      33.046   9.166   7.296  0.00  0.00     0.238 C 
HETATM   42  O   UNK N   1      32.001   9.373   7.899  0.00  0.00    -0.272 OA
HETATM   43  N   UNK N   1      34.235   9.157   7.970  0.00  0.00    -0.341 N 
HETATM   44  C   UNK N   1      35.474   8.885   7.281  0.00  0.00     0.153 C 
HETATM   45  C   UNK N   1      34.309   9.610   9.347  0.00  0.00     0.190 C 
HETATM   46  C   UNK N   1      34.096  11.099   9.323  0.00  0.00     0.282 C 
HETATM   47  O   UNK N   1      34.974  11.822   8.588  0.00  0.00    -0.312 OA
HETATM   48  O   UNK N   1      33.170  11.632   9.920  0.00  0.00    -0.263 OA
HETATM   49  C   UNK N   1      34.988  13.183   8.406  0.00  0.00     0.159 C 
HETATM   50  C   UNK N   1      36.105  13.546   7.446  0.00  0.00     0.042 C 
BRANCH  27  51
HETATM   51  C   UNK N   1      33.678  16.660   6.508  0.00  0.00     0.009 C 
HETATM   52  C   UNK N   1      34.481  17.695   7.274  0.00  0.00     0.012 C 
HETATM   53  C   UNK N   1      32.352  17.335   6.244  0.00  0.00     0.012 C 
ENDBRANCH  27  51
BRANCH  45  54
HETATM   54  C   UNK N   1      33.423   8.797  10.305  0.00  0.00     0.010 C 
HETATM   55  C   UNK N   1      33.757   7.324  10.177  0.00  0.00     0.012 C 
HETATM   56  C   UNK N   1      33.647   9.205  11.753  0.00  0.00     0.012 C 
ENDBRANCH  45  54
ENDBRANCH  20  23
ENDBRANCH   8  19
BRANCH  10  57
HETATM   57  N   UNK N   1      35.819  13.762  14.084  0.00  0.00    -0.395 N 
HETATM   58  H   UNK N   1      36.088  14.428  14.758  0.00  0.00     0.156 HD
HETATM   59  H   UNK N   1      35.047  13.973  13.510  0.00  0.00     0.156 HD
ENDBRANCH  10  57
BRANCH  13  60
HETATM   60  C   UNK N   1      38.421   9.820   8.630  0.00  0.00     0.254 C 
HETATM   61  N   UNK N   1      39.089   9.572   7.489  0.00  0.00    -0.341 N 
HETATM   62  H   UNK N   1      39.176   8.639   7.188  0.00  0.00     0.163 HD
HETATM   63  O   UNK N   1      37.991  10.942   8.854  0.00  0.00    -0.268 OA
BRANCH  61  64
HETATM   64  C   UNK N   1      39.688  10.618   6.683  0.00  0.00     0.206 C 
HETATM   65  C   UNK N   1      38.662  11.306   5.782  0.00  0.00     0.243 C 
HETATM   66  O   UNK N   1      37.486  10.994   5.887  0.00  0.00    -0.271 OA
HETATM   67  N   UNK N   1      39.005  12.153   4.776  0.00  0.00    -0.346 N 
HETATM   68  C   UNK N   1      40.327  12.658   4.469  0.00  0.00     0.180 C 
HETATM   69  H   UNK N   1      38.273  12.457   4.192  0.00  0.00     0.163 HD
HETATM   70  C   UNK N   1      40.905  11.936   3.275  0.00  0.00     0.243 C 
HETATM   71  N   UNK N   1      42.190  11.458   3.280  0.00  0.00    -0.337 N 
HETATM   72  O   UNK N   1      40.227  11.841   2.259  0.00  0.00    -0.271 OA
HETATM   73  C   UNK N   1      42.818  11.017   2.071  0.00  0.00     0.127 C 
HETATM   74  C   UNK N   1      43.145  11.662   4.346  0.00  0.00     0.179 C 
HETATM   75  C   UNK N   1      44.233  11.582   2.193  0.00  0.00     0.022 C 
HETATM   76  C   UNK N   1      44.277  12.296   3.556  0.00  0.00     0.037 C 
HETATM   77  C   UNK N   1      43.481  10.295   4.980  0.00  0.00     0.242 C 
HETATM   78  O   UNK N   1      42.527   9.578   5.238  0.00  0.00    -0.271 OA
HETATM   79  N   UNK N   1      44.763   9.850   5.274  0.00  0.00    -0.346 N 
HETATM   80  C   UNK N   1      45.023   8.508   5.801  0.00  0.00     0.228 C 
HETATM   81  C   UNK N   1      45.924  10.678   5.071  0.00  0.00     0.153 C 
HETATM   82  C   UNK N   1      44.128   8.153   6.953  0.00  0.00     0.238 C 
HETATM   83  O   UNK N   1      43.306   7.272   6.763  0.00  0.00    -0.272 OA
HETATM   84  N   UNK N   1      44.143   8.870   8.128  0.00  0.00    -0.341 N 
HETATM   85  C   UNK N   1      45.167   9.857   8.353  0.00  0.00     0.153 C 
HETATM   86  C   UNK N   1      43.017   8.881   9.055  0.00  0.00     0.190 C 
HETATM   87  C   UNK N   1      41.824   9.383   8.316  0.00  0.00     0.282 C 
HETATM   88  O   UNK N   1      41.440  10.694   8.454  0.00  0.00    -0.312 OA
HETATM   89  O   UNK N   1      41.315   8.645   7.491  0.00  0.00    -0.263 OA
HETATM   90  C   UNK N   1      40.525  11.443   7.699  0.00  0.00     0.159 C 
HETATM   91  C   UNK N   1      41.205  12.687   7.186  0.00  0.00     0.042 C 
BRANCH  68  92
HETATM   92  C   UNK N   1      40.211  14.162   4.155  0.00  0.00     0.009 C 
HETATM   93  C   UNK N   1      41.565  14.851   4.125  0.00  0.00     0.012 C 
HETATM   94  C   UNK N   1      39.330  14.881   5.162  0.00  0.00     0.012 C 
ENDBRANCH  68  92
BRANCH  86  95
HETATM   95  C   UNK N   1      42.744   7.610   9.896  0.00  0.00     0.010 C 
HETATM   96  C   UNK N   1      43.952   6.788  10.318  0.00  0.00     0.012 C 
HETATM   97  C   UNK N   1      41.853   7.892  11.084  0.00  0.00     0.012 C 
ENDBRANCH  86  95
ENDBRANCH  61  64
ENDBRANCH  13  60
TORSDOF 9
ENDMDL
MODEL 6
REMARK VINA RESULT:      -8.8      3.172      9.241
REMARK  9 active torsions:
REMARK  status: ('A' for Active; 'I' for Inactive)
REMARK    1  A    between atoms: C_10  and  C_8 
REMARK       I    between atoms: N_58  and  C_10 
REMARK    2  A    between atoms: N_15  and  C_11 
REMARK    3  A    between atoms: C_19  and  C_16 
REMARK       I    between atoms: N_24  and  C_19 
REMARK    4  A    between atoms: C_25  and  N_24 
REMARK    5  A    between atoms: C_43  and  C_44 
REMARK    6  A    between atoms: C_54  and  C_56 
REMARK    7  A    between atoms: C_59  and  N_58 
REMARK    8  A    between atoms: C_77  and  C_78 
REMARK    9  A    between atoms: C_88  and  C_90 
ROOT
HETATM    1  C   UNK N   1      32.659  12.307   0.039  0.00  0.00     0.086 A 
HETATM    2  C   UNK N   1      31.853  11.731  -1.054  0.00  0.00     0.114 A 
HETATM    3  O   UNK N   1      30.705  11.119  -0.759  0.00  0.00    -0.305 OA
HETATM    4  C   UNK N   1      31.032  11.598   1.548  0.00  0.00     0.083 A 
HETATM    5  C   UNK N   1      30.296  10.991   0.506  0.00  0.00     0.109 A 
HETATM    6  N   UNK N   1      32.177  12.249   1.277  0.00  0.00    -0.350 N 
ATOM      7  HN  UNK N   1      32.684  12.708   2.033  1.00  0.00     0.166 HD
HETATM    8  C   UNK N   1      33.964  12.734  -0.174  0.00  0.00     0.091 A 
HETATM    9  C   UNK N   1      32.365  11.741  -2.347  0.00  0.00     0.027 A 
HETATM   10  C   UNK N   1      34.480  12.652  -1.489  0.00  0.00     0.095 A 
HETATM   11  C   UNK N   1      33.679  12.203  -2.564  0.00  0.00     0.207 A 
HETATM   12  C   UNK N   1      31.556  11.188  -3.476  0.00  0.00     0.056 C 
HETATM   13  C   UNK N   1      30.664  11.452   2.872  0.00  0.00     0.061 A 
HETATM   14  C   UNK N   1      29.166  10.220   0.831  0.00  0.00    -0.026 A 
HETATM   15  O   UNK N   1      34.146  12.177  -3.690  0.00  0.00    -0.285 OA
HETATM   16  C   UNK N   1      29.564  10.646   3.195  0.00  0.00     0.020 A 
HETATM   17  C   UNK N   1      28.817  10.036   2.178  0.00  0.00     0.011 A 
HETATM   18  C   UNK N   1      28.372   9.541  -0.230  0.00  0.00     0.051 C 
ENDROOT
BRANCH   8  19
HETATM   19  C   UNK N   1      34.822  13.161   0.988  0.00  0.00     0.257 C 
HETATM   20  N   UNK N   1      35.865  12.384   1.443  0.00  0.00    -0.341 N 
HETATM   21  H   UNK N   1      36.086  11.572   0.932  0.00  0.00     0.163 HD
HETATM   22  O   UNK N   1      34.539  14.202   1.561  0.00  0.00    -0.267 OA
BRANCH  20  23
HETATM   23  C   UNK N   1      36.676  12.680   2.644  0.00  0.00     0.206 C 
HETATM   24  C   UNK N   1      38.194  12.524   2.408  0.00  0.00     0.243 C 
HETATM   25  O   UNK N   1      38.593  12.448   1.258  0.00  0.00    -0.271 OA
HETATM   26  N   UNK N   1      39.131  12.449   3.415  0.00  0.00    -0.346 N 
HETATM   27  C   UNK N   1      38.877  12.417   4.855  0.00  0.00     0.180 C 
HETATM   28  H   UNK N   1      40.074  12.414   3.136  0.00  0.00     0.163 HD
HETATM   29  C   UNK N   1      38.670  10.961   5.337  0.00  0.00     0.243 C 
HETATM   30  N   UNK N   1      38.732  10.534   6.648  0.00  0.00    -0.337 N 
HETATM   31  O   UNK N   1      38.360  10.144   4.481  0.00  0.00    -0.271 OA
HETATM   32  C   UNK N   1      39.231  11.315   7.737  0.00  0.00     0.127 C 
HETATM   33  C   UNK N   1      38.300   9.204   7.034  0.00  0.00     0.179 C 
HETATM   34  C   UNK N   1      39.359  10.350   8.903  0.00  0.00     0.022 C 
HETATM   35  C   UNK N   1      38.551   9.115   8.530  0.00  0.00     0.037 C 
HETATM   36  C   UNK N   1      36.811   8.992   6.751  0.00  0.00     0.242 C 
HETATM   37  O   UNK N   1      36.157   9.925   6.301  0.00  0.00    -0.271 OA
HETATM   38  N   UNK N   1      36.203   7.777   6.947  0.00  0.00    -0.346 N 
HETATM   39  C   UNK N   1      34.844   7.538   6.492  0.00  0.00     0.228 C 
HETATM   40  C   UNK N   1      36.933   6.662   7.493  0.00  0.00     0.153 C 
HETATM   41  C   UNK N   1      34.816   7.707   4.995  0.00  0.00     0.238 C 
HETATM   42  O   UNK N   1      35.668   7.128   4.333  0.00  0.00    -0.272 OA
HETATM   43  N   UNK N   1      33.938   8.559   4.387  0.00  0.00    -0.341 N 
HETATM   44  C   UNK N   1      32.908   9.226   5.146  0.00  0.00     0.153 C 
HETATM   45  C   UNK N   1      34.136   8.964   3.007  0.00  0.00     0.190 C 
HETATM   46  C   UNK N   1      35.341   9.863   2.991  0.00  0.00     0.282 C 
HETATM   47  O   UNK N   1      35.272  10.978   3.758  0.00  0.00    -0.312 OA
HETATM   48  O   UNK N   1      36.339   9.599   2.336  0.00  0.00    -0.263 OA
HETATM   49  C   UNK N   1      36.235  11.945   3.914  0.00  0.00     0.159 C 
HETATM   50  C   UNK N   1      35.755  12.968   4.925  0.00  0.00     0.042 C 
BRANCH  27  51
HETATM   51  C   UNK N   1      39.717  13.426   5.672  0.00  0.00     0.009 C 
HETATM   52  C   UNK N   1      39.340  14.852   5.316  0.00  0.00     0.012 C 
HETATM   53  C   UNK N   1      41.188  13.333   5.341  0.00  0.00     0.012 C 
ENDBRANCH  27  51
BRANCH  45  54
HETATM   54  C   UNK N   1      34.136   7.786   2.018  0.00  0.00     0.010 C 
HETATM   55  C   UNK N   1      32.875   6.965   2.210  0.00  0.00     0.012 C 
HETATM   56  C   UNK N   1      34.167   8.269   0.577  0.00  0.00     0.012 C 
ENDBRANCH  45  54
ENDBRANCH  20  23
ENDBRANCH   8  19
BRANCH  10  57
HETATM   57  N   UNK N   1      35.817  13.027  -1.745  0.00  0.00    -0.395 N 
HETATM   58  H   UNK N   1      36.085  13.860  -2.197  0.00  0.00     0.156 HD
HETATM   59  H   UNK N   1      36.531  12.413  -1.453  0.00  0.00     0.156 HD
ENDBRANCH  10  57
BRANCH  13  60
HETATM   60  C   UNK N   1      31.411  12.199   3.906  0.00  0.00     0.254 C 
HETATM   61  N   UNK N   1      30.760  12.767   4.938  0.00  0.00    -0.341 N 
HETATM   62  H   UNK N   1      29.905  12.376   5.228  0.00  0.00     0.163 HD
HETATM   63  O   UNK N   1      32.602  12.415   3.743  0.00  0.00    -0.268 OA
BRANCH  61  64
HETATM   64  C   UNK N   1      31.262  13.931   5.641  0.00  0.00     0.206 C 
HETATM   65  C   UNK N   1      32.380  13.572   6.620  0.00  0.00     0.243 C 
HETATM   66  O   UNK N   1      32.788  12.421   6.648  0.00  0.00    -0.271 OA
HETATM   67  N   UNK N   1      32.856  14.436   7.555  0.00  0.00    -0.346 N 
HETATM   68  C   UNK N   1      32.519  15.836   7.705  0.00  0.00     0.180 C 
HETATM   69  H   UNK N   1      33.502  14.069   8.201  0.00  0.00     0.163 HD
HETATM   70  C   UNK N   1      31.561  16.029   8.857  0.00  0.00     0.243 C 
HETATM   71  N   UNK N   1      30.442  16.813   8.734  0.00  0.00    -0.337 N 
HETATM   72  O   UNK N   1      31.833  15.526   9.940  0.00  0.00    -0.271 OA
HETATM   73  C   UNK N   1      29.688  17.206   9.886  0.00  0.00     0.127 C 
HETATM   74  C   UNK N   1      30.105  17.598   7.568  0.00  0.00     0.179 C 
HETATM   75  C   UNK N   1      29.361  18.672   9.598  0.00  0.00     0.022 C 
HETATM   76  C   UNK N   1      29.967  18.967   8.214  0.00  0.00     0.037 C 
HETATM   77  C   UNK N   1      28.807  17.038   6.951  0.00  0.00     0.242 C 
HETATM   78  O   UNK N   1      28.760  15.825   6.818  0.00  0.00    -0.271 OA
HETATM   79  N   UNK N   1      27.725  17.807   6.541  0.00  0.00    -0.346 N 
HETATM   80  C   UNK N   1      26.487  17.209   6.036  0.00  0.00     0.228 C 
HETATM   81  C   UNK N   1      27.749  19.246   6.593  0.00  0.00     0.153 C 
HETATM   82  C   UNK N   1      26.734  16.154   4.996  0.00  0.00     0.238 C 
HETATM   83  O   UNK N   1      26.463  15.004   5.300  0.00  0.00    -0.272 OA
HETATM   84  N   UNK N   1      27.352  16.446   3.801  0.00  0.00    -0.341 N 
HETATM   85  C   UNK N   1      27.598  17.818   3.438  0.00  0.00     0.153 C 
HETATM   86  C   UNK N   1      28.024  15.432   2.997  0.00  0.00     0.190 C 
HETATM   87  C   UNK N   1      29.088  14.815   3.838  0.00  0.00     0.282 C 
HETATM   88  O   UNK N   1      30.391  15.224   3.696  0.00  0.00    -0.312 OA
HETATM   89  O   UNK N   1      28.740  14.069   4.737  0.00  0.00    -0.263 OA
HETATM   90  C   UNK N   1      31.502  14.975   4.516  0.00  0.00     0.159 C 
HETATM   91  C   UNK N   1      32.131  16.287   4.912  0.00  0.00     0.042 C 
BRANCH  68  92
HETATM   92  C   UNK N   1      33.816  16.622   7.978  0.00  0.00     0.009 C 
HETATM   93  C   UNK N   1      33.673  18.101   7.660  0.00  0.00     0.012 C 
HETATM   94  C   UNK N   1      34.985  16.071   7.180  0.00  0.00     0.012 C 
ENDBRANCH  68  92
BRANCH  86  95
HETATM   95  C   UNK N   1      27.154  14.405   2.232  0.00  0.00     0.010 C 
HETATM   96  C   UNK N   1      25.893  14.929   1.563  0.00  0.00     0.012 C 
HETATM   97  C   UNK N   1      27.966  13.579   1.261  0.00  0.00     0.012 C 
ENDBRANCH  86  95
ENDBRANCH  61  64
ENDBRANCH  13  60
TORSDOF 9
ENDMDL
MODEL 7
REMARK VINA RESULT:      -8.7      5.159     10.249
REMARK  9 active torsions:
REMARK  status: ('A' for Active; 'I' for Inactive)
REMARK    1  A    between atoms: C_10  and  C_8 
REMARK       I    between atoms: N_58  and  C_10 
REMARK    2  A    between atoms: N_15  and  C_11 
REMARK    3  A    between atoms: C_19  and  C_16 
REMARK       I    between atoms: N_24  and  C_19 
REMARK    4  A    between atoms: C_25  and  N_24 
REMARK    5  A    between atoms: C_43  and  C_44 
REMARK    6  A    between atoms: C_54  and  C_56 
REMARK    7  A    between atoms: C_59  and  N_58 
REMARK    8  A    between atoms: C_77  and  C_78 
REMARK    9  A    between atoms: C_88  and  C_90 
ROOT
HETATM    1  C   UNK N   1      37.148  11.771  11.497  0.00  0.00     0.086 A 
HETATM    2  C   UNK N   1      37.273  11.321  12.896  0.00  0.00     0.114 A 
HETATM    3  O   UNK N   1      37.865  10.153  13.150  0.00  0.00    -0.305 OA
HETATM    4  C   UNK N   1      38.251   9.832  10.825  0.00  0.00     0.083 A 
HETATM    5  C   UNK N   1      38.311   9.375  12.161  0.00  0.00     0.109 A 
HETATM    6  N   UNK N   1      37.689  11.020  10.542  0.00  0.00    -0.350 N 
ATOM      7  HN  UNK N   1      37.678  11.352   9.578  1.00  0.00     0.166 HD
HETATM    8  C   UNK N   1      36.336  12.845  11.153  0.00  0.00     0.091 A 
HETATM    9  C   UNK N   1      36.673  12.072  13.902  0.00  0.00     0.027 A 
HETATM   10  C   UNK N   1      35.673  13.533  12.197  0.00  0.00     0.095 A 
HETATM   11  C   UNK N   1      35.873  13.178  13.551  0.00  0.00     0.207 A 
HETATM   12  C   UNK N   1      36.809  11.651  15.330  0.00  0.00     0.056 C 
HETATM   13  C   UNK N   1      38.662   9.038   9.772  0.00  0.00     0.061 A 
HETATM   14  C   UNK N   1      38.799   8.081  12.416  0.00  0.00    -0.026 A 
HETATM   15  O   UNK N   1      35.312  13.815  14.427  0.00  0.00    -0.285 OA
HETATM   16  C   UNK N   1      39.106   7.734  10.026  0.00  0.00     0.020 A 
HETATM   17  C   UNK N   1      39.176   7.259  11.344  0.00  0.00     0.011 A 
HETATM   18  C   UNK N   1      38.859   7.546  13.804  0.00  0.00     0.051 C 
ENDROOT
BRANCH   8  19
HETATM   19  C   UNK N   1      36.092  13.179   9.705  0.00  0.00     0.257 C 
HETATM   20  N   UNK N   1      34.838  13.083   9.140  0.00  0.00    -0.341 N 
HETATM   21  H   UNK N   1      34.085  12.865   9.735  0.00  0.00     0.163 HD
HETATM   22  O   UNK N   1      37.051  13.492   9.016  0.00  0.00    -0.267 OA
BRANCH  20  23
HETATM   23  C   UNK N   1      34.543  13.283   7.704  0.00  0.00     0.206 C 
HETATM   24  C   UNK N   1      33.254  14.098   7.455  0.00  0.00     0.243 C 
HETATM   25  O   UNK N   1      32.769  14.708   8.394  0.00  0.00    -0.271 OA
HETATM   26  N   UNK N   1      32.605  14.168   6.242  0.00  0.00    -0.346 N 
HETATM   27  C   UNK N   1      32.945  13.445   5.017  0.00  0.00     0.180 C 
HETATM   28  H   UNK N   1      31.829  14.771   6.195  0.00  0.00     0.163 HD
HETATM   29  C   UNK N   1      32.237  12.070   4.985  0.00  0.00     0.243 C 
HETATM   30  N   UNK N   1      32.069  11.280   3.867  0.00  0.00    -0.337 N 
HETATM   31  O   UNK N   1      31.859  11.627   6.062  0.00  0.00    -0.271 OA
HETATM   32  C   UNK N   1      32.306  11.709   2.523  0.00  0.00     0.127 C 
HETATM   33  C   UNK N   1      31.603   9.910   3.967  0.00  0.00     0.179 C 
HETATM   34  C   UNK N   1      31.731  10.614   1.640  0.00  0.00     0.022 C 
HETATM   35  C   UNK N   1      31.526   9.402   2.537  0.00  0.00     0.037 C 
HETATM   36  C   UNK N   1      32.576   9.041   4.768  0.00  0.00     0.242 C 
HETATM   37  O   UNK N   1      33.615   9.544   5.177  0.00  0.00    -0.271 OA
HETATM   38  N   UNK N   1      32.295   7.733   5.073  0.00  0.00    -0.346 N 
HETATM   39  C   UNK N   1      33.132   6.984   5.994  0.00  0.00     0.228 C 
HETATM   40  C   UNK N   1      31.093   7.101   4.594  0.00  0.00     0.153 C 
HETATM   41  C   UNK N   1      33.088   7.673   7.332  0.00  0.00     0.238 C 
HETATM   42  O   UNK N   1      31.994   7.974   7.792  0.00  0.00    -0.272 OA
HETATM   43  N   UNK N   1      34.231   8.053   7.980  0.00  0.00    -0.341 N 
HETATM   44  C   UNK N   1      35.528   7.683   7.469  0.00  0.00     0.153 C 
HETATM   45  C   UNK N   1      34.178   8.998   9.081  0.00  0.00     0.190 C 
HETATM   46  C   UNK N   1      33.822  10.333   8.487  0.00  0.00     0.282 C 
HETATM   47  O   UNK N   1      34.668  10.819   7.548  0.00  0.00    -0.312 OA
HETATM   48  O   UNK N   1      32.815  10.943   8.819  0.00  0.00    -0.263 OA
HETATM   49  C   UNK N   1      34.560  12.004   6.861  0.00  0.00     0.159 C 
HETATM   50  C   UNK N   1      35.692  12.101   5.856  0.00  0.00     0.042 C 
BRANCH  27  51
HETATM   51  C   UNK N   1      33.034  14.336   3.757  0.00  0.00     0.009 C 
HETATM   52  C   UNK N   1      34.187  15.316   3.872  0.00  0.00     0.012 C 
HETATM   53  C   UNK N   1      31.812  15.211   3.597  0.00  0.00     0.012 C 
ENDBRANCH  27  51
BRANCH  45  54
HETATM   54  C   UNK N   1      33.319   8.512  10.261  0.00  0.00     0.010 C 
HETATM   55  C   UNK N   1      33.784   7.135  10.692  0.00  0.00     0.012 C 
HETATM   56  C   UNK N   1      33.437   9.443  11.457  0.00  0.00     0.012 C 
ENDBRANCH  45  54
ENDBRANCH  20  23
ENDBRANCH   8  19
BRANCH  10  57
HETATM   57  N   UNK N   1      34.798  14.598  11.893  0.00  0.00    -0.395 N 
HETATM   58  H   UNK N   1      34.616  14.927  10.983  0.00  0.00     0.156 HD
HETATM   59  H   UNK N   1      34.338  15.043  12.642  0.00  0.00     0.156 HD
ENDBRANCH  10  57
BRANCH  13  60
HETATM   60  C   UNK N   1      38.676   9.612   8.410  0.00  0.00     0.254 C 
HETATM   61  N   UNK N   1      39.814   9.634   7.693  0.00  0.00    -0.341 N 
HETATM   62  H   UNK N   1      40.499   8.951   7.874  0.00  0.00     0.163 HD
HETATM   63  O   UNK N   1      37.682  10.191   7.996  0.00  0.00    -0.268 OA
BRANCH  61  64
HETATM   64  C   UNK N   1      40.077  10.621   6.663  0.00  0.00     0.206 C 
HETATM   65  C   UNK N   1      40.211  12.031   7.241  0.00  0.00     0.243 C 
HETATM   66  O   UNK N   1      40.181  12.173   8.454  0.00  0.00    -0.271 OA
HETATM   67  N   UNK N   1      40.231  13.151   6.471  0.00  0.00    -0.346 N 
HETATM   68  C   UNK N   1      40.273  13.219   5.026  0.00  0.00     0.180 C 
HETATM   69  H   UNK N   1      40.215  14.010   6.950  0.00  0.00     0.163 HD
HETATM   70  C   UNK N   1      38.911  13.566   4.472  0.00  0.00     0.243 C 
HETATM   71  N   UNK N   1      38.370  12.877   3.416  0.00  0.00    -0.337 N 
HETATM   72  O   UNK N   1      38.314  14.528   4.938  0.00  0.00    -0.271 OA
HETATM   73  C   UNK N   1      37.214  13.370   2.729  0.00  0.00     0.127 C 
HETATM   74  C   UNK N   1      39.049  11.842   2.669  0.00  0.00     0.179 C 
HETATM   75  C   UNK N   1      37.551  13.107   1.261  0.00  0.00     0.022 C 
HETATM   76  C   UNK N   1      38.927  12.418   1.268  0.00  0.00     0.037 C 
HETATM   77  C   UNK N   1      38.307  10.506   2.889  0.00  0.00     0.242 C 
HETATM   78  O   UNK N   1      38.020  10.239   4.045  0.00  0.00    -0.271 OA
HETATM   79  N   UNK N   1      37.966   9.612   1.882  0.00  0.00    -0.346 N 
HETATM   80  C   UNK N   1      37.191   8.398   2.144  0.00  0.00     0.228 C 
HETATM   81  C   UNK N   1      38.347   9.827   0.510  0.00  0.00     0.153 C 
HETATM   82  C   UNK N   1      37.719   7.612   3.310  0.00  0.00     0.238 C 
HETATM   83  O   UNK N   1      37.017   7.560   4.306  0.00  0.00    -0.272 OA
HETATM   84  N   UNK N   1      38.988   7.079   3.307  0.00  0.00    -0.341 N 
HETATM   85  C   UNK N   1      39.770   7.094   2.097  0.00  0.00     0.153 C 
HETATM   86  C   UNK N   1      39.700   6.741   4.534  0.00  0.00     0.190 C 
HETATM   87  C   UNK N   1      39.807   7.981   5.355  0.00  0.00     0.282 C 
HETATM   88  O   UNK N   1      40.974   8.705   5.346  0.00  0.00    -0.312 OA
HETATM   89  O   UNK N   1      38.795   8.395   5.893  0.00  0.00    -0.263 OA
HETATM   90  C   UNK N   1      41.229   9.997   5.829  0.00  0.00     0.159 C 
HETATM   91  C   UNK N   1      41.815  10.835   4.722  0.00  0.00     0.042 C 
BRANCH  68  92
HETATM   92  C   UNK N   1      41.286  14.308   4.621  0.00  0.00     0.009 C 
HETATM   93  C   UNK N   1      41.613  14.269   3.137  0.00  0.00     0.012 C 
HETATM   94  C   UNK N   1      42.583  14.188   5.401  0.00  0.00     0.012 C 
ENDBRANCH  68  92
BRANCH  86  95
HETATM   95  C   UNK N   1      39.239   5.498   5.334  0.00  0.00     0.010 C 
HETATM   96  C   UNK N   1      38.915   4.245   4.536  0.00  0.00     0.012 C 
HETATM   97  C   UNK N   1      40.174   5.174   6.476  0.00  0.00     0.012 C 
ENDBRANCH  86  95
ENDBRANCH  61  64
ENDBRANCH  13  60
TORSDOF 9
ENDMDL
MODEL 8
REMARK VINA RESULT:      -8.5      4.215     11.731
REMARK  9 active torsions:
REMARK  status: ('A' for Active; 'I' for Inactive)
REMARK    1  A    between atoms: C_10  and  C_8 
REMARK       I    between atoms: N_58  and  C_10 
REMARK    2  A    between atoms: N_15  and  C_11 
REMARK    3  A    between atoms: C_19  and  C_16 
REMARK       I    between atoms: N_24  and  C_19 
REMARK    4  A    between atoms: C_25  and  N_24 
REMARK    5  A    between atoms: C_43  and  C_44 
REMARK    6  A    between atoms: C_54  and  C_56 
REMARK    7  A    between atoms: C_59  and  N_58 
REMARK    8  A    between atoms: C_77  and  C_78 
REMARK    9  A    between atoms: C_88  and  C_90 
ROOT
HETATM    1  C   UNK N   1      33.409  14.002   6.477  0.00  0.00     0.086 A 
HETATM    2  C   UNK N   1      33.527  14.964   5.366  0.00  0.00     0.114 A 
HETATM    3  O   UNK N   1      33.907  14.523   4.165  0.00  0.00    -0.305 OA
HETATM    4  C   UNK N   1      34.038  12.304   5.012  0.00  0.00     0.083 A 
HETATM    5  C   UNK N   1      34.212  13.238   3.967  0.00  0.00     0.109 A 
HETATM    6  N   UNK N   1      33.626  12.715   6.224  0.00  0.00    -0.350 N 
ATOM      7  HN  UNK N   1      33.476  12.027   6.962  1.00  0.00     0.166 HD
HETATM    8  C   UNK N   1      33.258  14.431   7.790  0.00  0.00     0.091 A 
HETATM    9  C   UNK N   1      33.349  16.319   5.624  0.00  0.00     0.027 A 
HETATM   10  C   UNK N   1      33.165  15.823   8.025  0.00  0.00     0.095 A 
HETATM   11  C   UNK N   1      33.168  16.748   6.954  0.00  0.00     0.207 A 
HETATM   12  C   UNK N   1      33.437  17.311   4.509  0.00  0.00     0.056 C 
HETATM   13  C   UNK N   1      34.384  10.975   4.858  0.00  0.00     0.061 A 
HETATM   14  C   UNK N   1      34.753  12.799   2.745  0.00  0.00    -0.026 A 
HETATM   15  O   UNK N   1      33.051  17.939   7.191  0.00  0.00    -0.285 OA
HETATM   16  C   UNK N   1      34.965  10.551   3.655  0.00  0.00     0.020 A 
HETATM   17  C   UNK N   1      35.145  11.459   2.602  0.00  0.00     0.011 A 
HETATM   18  C   UNK N   1      34.979  13.750   1.622  0.00  0.00     0.051 C 
ENDROOT
BRANCH   8  19
HETATM   19  C   UNK N   1      33.310  13.440   8.924  0.00  0.00     0.257 C 
HETATM   20  N   UNK N   1      34.373  13.393   9.800  0.00  0.00    -0.341 N 
HETATM   21  H   UNK N   1      35.067  14.086   9.712  0.00  0.00     0.163 HD
HETATM   22  O   UNK N   1      32.400  12.630   9.022  0.00  0.00    -0.267 OA
BRANCH  20  23
HETATM   23  C   UNK N   1      34.547  12.379  10.862  0.00  0.00     0.206 C 
HETATM   24  C   UNK N   1      35.061  12.971  12.192  0.00  0.00     0.243 C 
HETATM   25  O   UNK N   1      35.018  14.182  12.338  0.00  0.00    -0.271 OA
HETATM   26  N   UNK N   1      35.581  12.222  13.224  0.00  0.00    -0.346 N 
HETATM   27  C   UNK N   1      35.823  10.779  13.231  0.00  0.00     0.180 C 
HETATM   28  H   UNK N   1      35.817  12.709  14.046  0.00  0.00     0.163 HD
HETATM   29  C   UNK N   1      37.232  10.461  12.678  0.00  0.00     0.243 C 
HETATM   30  N   UNK N   1      37.906   9.268  12.837  0.00  0.00    -0.337 N 
HETATM   31  O   UNK N   1      37.752  11.326  11.985  0.00  0.00    -0.271 OA
HETATM   32  C   UNK N   1      37.518   8.226  13.736  0.00  0.00     0.127 C 
HETATM   33  C   UNK N   1      39.117   8.975  12.094  0.00  0.00     0.179 C 
HETATM   34  C   UNK N   1      38.688   7.259  13.766  0.00  0.00     0.022 C 
HETATM   35  C   UNK N   1      39.560   7.601  12.566  0.00  0.00     0.037 C 
HETATM   36  C   UNK N   1      38.857   8.939  10.586  0.00  0.00     0.242 C 
HETATM   37  O   UNK N   1      37.714   9.101  10.180  0.00  0.00    -0.271 OA
HETATM   38  N   UNK N   1      39.876   8.775   9.681  0.00  0.00    -0.346 N 
HETATM   39  C   UNK N   1      39.643   8.938   8.255  0.00  0.00     0.228 C 
HETATM   40  C   UNK N   1      41.231   8.562  10.119  0.00  0.00     0.153 C 
HETATM   41  C   UNK N   1      39.186  10.353   8.016  0.00  0.00     0.238 C 
HETATM   42  O   UNK N   1      39.834  11.262   8.518  0.00  0.00    -0.272 OA
HETATM   43  N   UNK N   1      38.026  10.628   7.347  0.00  0.00    -0.341 N 
HETATM   44  C   UNK N   1      37.264   9.573   6.723  0.00  0.00     0.153 C 
HETATM   45  C   UNK N   1      37.429  11.950   7.412  0.00  0.00     0.190 C 
HETATM   46  C   UNK N   1      36.907  12.118   8.812  0.00  0.00     0.282 C 
HETATM   47  O   UNK N   1      35.987  11.213   9.225  0.00  0.00    -0.312 OA
HETATM   48  O   UNK N   1      37.299  13.012   9.549  0.00  0.00    -0.263 OA
HETATM   49  C   UNK N   1      35.367  11.152  10.449  0.00  0.00     0.159 C 
HETATM   50  C   UNK N   1      34.469   9.931  10.492  0.00  0.00     0.042 C 
BRANCH  27  51
HETATM   51  C   UNK N   1      35.258  10.046  14.471  0.00  0.00     0.009 C 
HETATM   52  C   UNK N   1      33.812  10.436  14.713  0.00  0.00     0.012 C 
HETATM   53  C   UNK N   1      35.974  10.451  15.739  0.00  0.00     0.012 C 
ENDBRANCH  27  51
BRANCH  45  54
HETATM   54  C   UNK N   1      38.348  13.061   6.876  0.00  0.00     0.010 C 
HETATM   55  C   UNK N   1      39.026  12.588   5.605  0.00  0.00     0.012 C 
HETATM   56  C   UNK N   1      37.564  14.322   6.549  0.00  0.00     0.012 C 
ENDBRANCH  45  54
ENDBRANCH  20  23
ENDBRANCH   8  19
BRANCH  10  57
HETATM   57  N   UNK N   1      33.063  16.310   9.346  0.00  0.00    -0.395 N 
HETATM   58  H   UNK N   1      33.056  17.265   9.588  0.00  0.00     0.156 HD
HETATM   59  H   UNK N   1      32.993  15.651  10.075  0.00  0.00     0.156 HD
ENDBRANCH  10  57
BRANCH  13  60
HETATM   60  C   UNK N   1      34.078  10.027   5.950  0.00  0.00     0.254 C 
HETATM   61  N   UNK N   1      33.568   8.813   5.673  0.00  0.00    -0.341 N 
HETATM   62  H   UNK N   1      33.765   8.407   4.799  0.00  0.00     0.163 HD
HETATM   63  O   UNK N   1      34.160  10.405   7.109  0.00  0.00    -0.268 OA
BRANCH  61  64
HETATM   64  C   UNK N   1      32.738   8.076   6.607  0.00  0.00     0.206 C 
HETATM   65  C   UNK N   1      33.570   7.211   7.554  0.00  0.00     0.243 C 
HETATM   66  O   UNK N   1      34.788   7.289   7.503  0.00  0.00    -0.271 OA
HETATM   67  N   UNK N   1      33.029   6.261   8.362  0.00  0.00    -0.346 N 
HETATM   68  C   UNK N   1      31.622   5.995   8.580  0.00  0.00     0.180 C 
HETATM   69  H   UNK N   1      33.664   5.692   8.853  0.00  0.00     0.163 HD
HETATM   70  C   UNK N   1      31.193   4.763   7.818  0.00  0.00     0.243 C 
HETATM   71  N   UNK N   1      30.044   4.749   7.069  0.00  0.00    -0.337 N 
HETATM   72  O   UNK N   1      31.855   3.739   7.934  0.00  0.00    -0.271 OA
HETATM   73  C   UNK N   1      29.504   3.519   6.571  0.00  0.00     0.127 C 
HETATM   74  C   UNK N   1      29.090   5.832   6.997  0.00  0.00     0.179 C 
HETATM   75  C   UNK N   1      28.002   3.686   6.804  0.00  0.00     0.022 C 
HETATM   76  C   UNK N   1      27.830   5.090   7.410  0.00  0.00     0.037 C 
HETATM   77  C   UNK N   1      29.074   6.383   5.555  0.00  0.00     0.242 C 
HETATM   78  O   UNK N   1      30.168   6.591   5.052  0.00  0.00    -0.271 OA
HETATM   79  N   UNK N   1      27.927   6.659   4.822  0.00  0.00    -0.346 N 
HETATM   80  C   UNK N   1      27.979   7.105   3.428  0.00  0.00     0.228 C 
HETATM   81  C   UNK N   1      26.610   6.515   5.384  0.00  0.00     0.153 C 
HETATM   82  C   UNK N   1      28.954   8.227   3.213  0.00  0.00     0.238 C 
HETATM   83  O   UNK N   1      29.945   7.979   2.547  0.00  0.00    -0.272 OA
HETATM   84  N   UNK N   1      28.805   9.444   3.839  0.00  0.00    -0.341 N 
HETATM   85  C   UNK N   1      27.594   9.735   4.563  0.00  0.00     0.153 C 
HETATM   86  C   UNK N   1      29.920  10.362   4.045  0.00  0.00     0.190 C 
HETATM   87  C   UNK N   1      30.958   9.646   4.839  0.00  0.00     0.282 C 
HETATM   88  O   UNK N   1      31.048   9.861   6.192  0.00  0.00    -0.312 OA
HETATM   89  O   UNK N   1      31.600   8.774   4.280  0.00  0.00    -0.263 OA
HETATM   90  C   UNK N   1      31.761   9.146   7.166  0.00  0.00     0.159 C 
HETATM   91  C   UNK N   1      30.814   8.715   8.258  0.00  0.00     0.042 C 
BRANCH  68  92
HETATM   92  C   UNK N   1      31.398   5.772  10.088  0.00  0.00     0.009 C 
HETATM   93  C   UNK N   1      30.043   6.279  10.552  0.00  0.00     0.012 C 
HETATM   94  C   UNK N   1      32.473   6.447  10.922  0.00  0.00     0.012 C 
ENDBRANCH  68  92
BRANCH  86  95
HETATM   95  C   UNK N   1      30.482  11.122   2.819  0.00  0.00     0.010 C 
HETATM   96  C   UNK N   1      29.589  11.209   1.591  0.00  0.00     0.012 C 
HETATM   97  C   UNK N   1      31.011  12.489   3.188  0.00  0.00     0.012 C 
ENDBRANCH  86  95
ENDBRANCH  61  64
ENDBRANCH  13  60
TORSDOF 9
ENDMDL
MODEL 9
REMARK VINA RESULT:      -8.5      2.791      9.309
REMARK  9 active torsions:
REMARK  status: ('A' for Active; 'I' for Inactive)
REMARK    1  A    between atoms: C_10  and  C_8 
REMARK       I    between atoms: N_58  and  C_10 
REMARK    2  A    between atoms: N_15  and  C_11 
REMARK    3  A    between atoms: C_19  and  C_16 
REMARK       I    between atoms: N_24  and  C_19 
REMARK    4  A    between atoms: C_25  and  N_24 
REMARK    5  A    between atoms: C_43  and  C_44 
REMARK    6  A    between atoms: C_54  and  C_56 
REMARK    7  A    between atoms: C_59  and  N_58 
REMARK    8  A    between atoms: C_77  and  C_78 
REMARK    9  A    between atoms: C_88  and  C_90 
ROOT
HETATM    1  C   UNK N   1      33.038   9.688   1.114  0.00  0.00     0.086 A 
HETATM    2  C   UNK N   1      32.422   8.576   0.366  0.00  0.00     0.114 A 
HETATM    3  O   UNK N   1      31.224   8.127   0.744  0.00  0.00    -0.305 OA
HETATM    4  C   UNK N   1      31.153   9.751   2.481  0.00  0.00     0.083 A 
HETATM    5  C   UNK N   1      30.595   8.644   1.803  0.00  0.00     0.109 A 
HETATM    6  N   UNK N   1      32.345  10.245   2.102  0.00  0.00    -0.350 N 
ATOM      7  HN  UNK N   1      32.724  11.062   2.580  1.00  0.00     0.166 HD
HETATM    8  C   UNK N   1      34.371  10.033   0.926  0.00  0.00     0.091 A 
HETATM    9  C   UNK N   1      33.153   7.952  -0.640  0.00  0.00     0.027 A 
HETATM   10  C   UNK N   1      35.108   9.318  -0.048  0.00  0.00     0.095 A 
HETATM   11  C   UNK N   1      34.496   8.324  -0.846  0.00  0.00     0.207 A 
HETATM   12  C   UNK N   1      32.540   6.840  -1.430  0.00  0.00     0.056 C 
HETATM   13  C   UNK N   1      30.555  10.285   3.606  0.00  0.00     0.061 A 
HETATM   14  C   UNK N   1      29.405   8.076   2.292  0.00  0.00    -0.026 A 
HETATM   15  O   UNK N   1      35.154   7.753  -1.700  0.00  0.00    -0.285 OA
HETATM   16  C   UNK N   1      29.394   9.688   4.116  0.00  0.00     0.020 A 
HETATM   17  C   UNK N   1      28.821   8.590   3.459  0.00  0.00     0.011 A 
HETATM   18  C   UNK N   1      28.792   6.893   1.627  0.00  0.00     0.051 C 
ENDROOT
BRANCH   8  19
HETATM   19  C   UNK N   1      35.024  11.056   1.818  0.00  0.00     0.257 C 
HETATM   20  N   UNK N   1      35.980  10.706   2.747  0.00  0.00    -0.341 N 
HETATM   21  H   UNK N   1      36.285   9.770   2.756  0.00  0.00     0.163 HD
HETATM   22  O   UNK N   1      34.645  12.215   1.738  0.00  0.00    -0.267 OA
BRANCH  20  23
HETATM   23  C   UNK N   1      36.579  11.632   3.732  0.00  0.00     0.206 C 
HETATM   24  C   UNK N   1      38.110  11.479   3.859  0.00  0.00     0.243 C 
HETATM   25  O   UNK N   1      38.699  10.848   2.997  0.00  0.00    -0.271 OA
HETATM   26  N   UNK N   1      38.857  11.998   4.894  0.00  0.00    -0.346 N 
HETATM   27  C   UNK N   1      38.358  12.695   6.078  0.00  0.00     0.180 C 
HETATM   28  H   UNK N   1      39.833  11.887   4.829  0.00  0.00     0.163 HD
HETATM   29  C   UNK N   1      38.033  11.686   7.205  0.00  0.00     0.243 C 
HETATM   30  N   UNK N   1      37.857  12.001   8.537  0.00  0.00    -0.337 N 
HETATM   31  O   UNK N   1      37.853  10.526   6.861  0.00  0.00    -0.271 OA
HETATM   32  C   UNK N   1      38.181  13.263   9.127  0.00  0.00     0.127 C 
HETATM   33  C   UNK N   1      37.329  11.034   9.482  0.00  0.00     0.179 C 
HETATM   34  C   UNK N   1      38.080  13.048  10.627  0.00  0.00     0.022 C 
HETATM   35  C   UNK N   1      37.316  11.746  10.824  0.00  0.00     0.037 C 
HETATM   36  C   UNK N   1      35.906  10.607   9.115  0.00  0.00     0.242 C 
HETATM   37  O   UNK N   1      35.365  11.128   8.148  0.00  0.00    -0.271 OA
HETATM   38  N   UNK N   1      35.242   9.630   9.813  0.00  0.00    -0.346 N 
HETATM   39  C   UNK N   1      33.976   9.099   9.336  0.00  0.00     0.228 C 
HETATM   40  C   UNK N   1      35.837   9.007  10.967  0.00  0.00     0.153 C 
HETATM   41  C   UNK N   1      34.211   8.470   7.988  0.00  0.00     0.238 C 
HETATM   42  O   UNK N   1      35.148   7.692   7.869  0.00  0.00    -0.272 OA
HETATM   43  N   UNK N   1      33.473   8.825   6.893  0.00  0.00    -0.341 N 
HETATM   44  C   UNK N   1      32.346   9.718   7.019  0.00  0.00     0.153 C 
HETATM   45  C   UNK N   1      33.917   8.474   5.556  0.00  0.00     0.190 C 
HETATM   46  C   UNK N   1      35.130   9.315   5.270  0.00  0.00     0.282 C 
HETATM   47  O   UNK N   1      34.960  10.657   5.325  0.00  0.00    -0.312 OA
HETATM   48  O   UNK N   1      36.219   8.819   5.018  0.00  0.00    -0.263 OA
HETATM   49  C   UNK N   1      35.906  11.629   5.109  0.00  0.00     0.159 C 
HETATM   50  C   UNK N   1      35.286  12.991   5.349  0.00  0.00     0.042 C 
BRANCH  27  51
HETATM   51  C   UNK N   1      39.071  14.035   6.375  0.00  0.00     0.009 C 
HETATM   52  C   UNK N   1      39.047  14.938   5.156  0.00  0.00     0.012 C 
HETATM   53  C   UNK N   1      40.540  13.838   6.668  0.00  0.00     0.012 C 
ENDBRANCH  27  51
BRANCH  45  54
HETATM   54  C   UNK N   1      34.056   6.958   5.338  0.00  0.00     0.010 C 
HETATM   55  C   UNK N   1      32.757   6.271   5.714  0.00  0.00     0.012 C 
HETATM   56  C   UNK N   1      34.357   6.630   3.885  0.00  0.00     0.012 C 
ENDBRANCH  45  54
ENDBRANCH  20  23
ENDBRANCH   8  19
BRANCH  10  57
HETATM   57  N   UNK N   1      36.479   9.598  -0.239  0.00  0.00    -0.395 N 
HETATM   58  H   UNK N   1      37.173   8.912  -0.374  0.00  0.00     0.156 HD
HETATM   59  H   UNK N   1      36.760  10.542  -0.237  0.00  0.00     0.156 HD
ENDBRANCH  10  57
BRANCH  13  60
HETATM   60  C   UNK N   1      31.128  11.508   4.206  0.00  0.00     0.254 C 
HETATM   61  N   UNK N   1      30.357  12.330   4.940  0.00  0.00    -0.341 N 
HETATM   62  H   UNK N   1      29.575  11.954   5.404  0.00  0.00     0.163 HD
HETATM   63  O   UNK N   1      32.267  11.838   3.914  0.00  0.00    -0.268 OA
BRANCH  61  64
HETATM   64  C   UNK N   1      30.626  13.749   5.078  0.00  0.00     0.206 C 
HETATM   65  C   UNK N   1      31.764  14.023   6.062  0.00  0.00     0.243 C 
HETATM   66  O   UNK N   1      32.368  13.075   6.540  0.00  0.00    -0.271 OA
HETATM   67  N   UNK N   1      32.055  15.264   6.535  0.00  0.00    -0.346 N 
HETATM   68  C   UNK N   1      31.471  16.520   6.114  0.00  0.00     0.180 C 
HETATM   69  H   UNK N   1      32.738  15.313   7.242  0.00  0.00     0.163 HD
HETATM   70  C   UNK N   1      30.464  17.003   7.131  0.00  0.00     0.243 C 
HETATM   71  N   UNK N   1      29.228  17.461   6.752  0.00  0.00    -0.337 N 
HETATM   72  O   UNK N   1      30.792  17.047   8.310  0.00  0.00    -0.271 OA
HETATM   73  C   UNK N   1      28.386  18.159   7.677  0.00  0.00     0.127 C 
HETATM   74  C   UNK N   1      28.789  17.625   5.385  0.00  0.00     0.179 C 
HETATM   75  C   UNK N   1      27.813  19.295   6.829  0.00  0.00     0.022 C 
HETATM   76  C   UNK N   1      28.394  19.092   5.418  0.00  0.00     0.037 C 
HETATM   77  C   UNK N   1      27.627  16.646   5.117  0.00  0.00     0.242 C 
HETATM   78  O   UNK N   1      27.799  15.498   5.496  0.00  0.00    -0.271 OA
HETATM   79  N   UNK N   1      26.438  16.979   4.480  0.00  0.00    -0.346 N 
HETATM   80  C   UNK N   1      25.339  16.024   4.327  0.00  0.00     0.228 C 
HETATM   81  C   UNK N   1      26.206  18.292   3.936  0.00  0.00     0.153 C 
HETATM   82  C   UNK N   1      25.795  14.693   3.801  0.00  0.00     0.238 C 
HETATM   83  O   UNK N   1      25.725  13.743   4.563  0.00  0.00    -0.272 OA
HETATM   84  N   UNK N   1      26.384  14.568   2.563  0.00  0.00    -0.341 N 
HETATM   85  C   UNK N   1      26.393  15.688   1.657  0.00  0.00     0.153 C 
HETATM   86  C   UNK N   1      27.245  13.445   2.213  0.00  0.00     0.190 C 
HETATM   87  C   UNK N   1      28.379  13.422   3.181  0.00  0.00     0.282 C 
HETATM   88  O   UNK N   1      29.593  13.953   2.819  0.00  0.00    -0.312 OA
HETATM   89  O   UNK N   1      28.145  13.065   4.322  0.00  0.00    -0.263 OA
HETATM   90  C   UNK N   1      30.708  14.260   3.614  0.00  0.00     0.159 C 
HETATM   91  C   UNK N   1      31.085  15.705   3.405  0.00  0.00     0.042 C 
BRANCH  68  92
HETATM   92  C   UNK N   1      32.602  17.558   5.976  0.00  0.00     0.009 C 
HETATM   93  C   UNK N   1      32.991  17.800   4.527  0.00  0.00     0.012 C 
HETATM   94  C   UNK N   1      33.845  17.141   6.743  0.00  0.00     0.012 C 
ENDBRANCH  68  92
BRANCH  86  95
HETATM   95  C   UNK N   1      26.592  12.060   1.982  0.00  0.00     0.010 C 
HETATM   96  C   UNK N   1      25.177  12.050   1.425  0.00  0.00     0.012 C 
HETATM   97  C   UNK N   1      27.483  11.133   1.187  0.00  0.00     0.012 C 
ENDBRANCH  86  95
ENDBRANCH  61  64
ENDBRANCH  13  60
TORSDOF 9
ENDMDL
