MODEL 1
REMARK VINA RESULT:      -9.8      0.000      0.000
REMARK  11 active torsions:
REMARK  status: ('A' for Active; 'I' for Inactive)
REMARK    1  A    between atoms: C_2  and  O_1 
REMARK    2  A    between atoms: C_28  and  O_1 
REMARK    3  A    between atoms: C_12  and  O_26 
REMARK    4  A    between atoms: C_18  and  C_19 
REMARK    5  A    between atoms: C_31  and  O_34 
REMARK    6  A    between atoms: C_32  and  O_37 
REMARK    7  A    between atoms: C_35  and  O_34 
REMARK    8  A    between atoms: C_40  and  O_45 
REMARK    9  A    between atoms: C_44  and  O_45 
REMARK   10  A    between atoms: C_47  and  O_50 
REMARK   11  A    between atoms: C_48  and  O_51 
ROOT
HETATM    1  C   UNK N   1      21.566  13.733   4.314  0.00  0.00     0.263 C 
HETATM    2  O   UNK N   1      22.788  13.142   4.675  0.00  0.00    -0.354 OA
HETATM    3  C   UNK N   1      20.425  13.152   5.164  0.00  0.00     0.095 C 
HETATM    4  C   UNK N   1      20.707  13.325   6.654  0.00  0.00     0.154 C 
HETATM    5  C   UNK N   1      22.220  13.282   7.032  0.00  0.00     0.182 C 
HETATM    6  C   UNK N   1      23.152  13.719   5.898  0.00  0.00     0.152 C 
HETATM    7  O   UNK N   1      20.054  14.458   7.142  0.00  0.00    -0.393 OA
HETATM    8  C   UNK N   1      24.605  13.419   6.210  0.00  0.00     0.042 C 
HETATM    9  H   UNK N   1      19.683  15.292   7.470  0.00  0.00     0.210 HD
ENDROOT
BRANCH   5  10
HETATM   10  O   UNK N   1      22.469  14.096   8.146  0.00  0.00    -0.351 OA
BRANCH  10  11
HETATM   11  C   UNK N   1      22.645  13.207   9.197  0.00  0.00     0.263 C 
HETATM   12  O   UNK N   1      21.676  13.431  10.183  0.00  0.00    -0.354 OA
HETATM   13  C   UNK N   1      21.607  12.224  10.884  0.00  0.00     0.151 C 
HETATM   14  C   UNK N   1      22.873  12.088  11.741  0.00  0.00     0.175 C 
HETATM   15  C   UNK N   1      20.350  12.212  11.730  0.00  0.00     0.042 C 
HETATM   16  C   UNK N   1      24.115  12.178  10.835  0.00  0.00     0.154 C 
HETATM   17  C   UNK N   1      24.018  13.329   9.833  0.00  0.00     0.095 C 
BRANCH  14  18
HETATM   18  O   UNK N   1      22.868  10.854  12.393  0.00  0.00    -0.390 OA
HETATM   19  H   UNK N   1      22.430  10.669  13.237  0.00  0.00     0.210 HD
ENDBRANCH  14  18
BRANCH  16  20
HETATM   20  O   UNK N   1      25.268  12.313  11.605  0.00  0.00    -0.393 OA
HETATM   21  H   UNK N   1      25.559  11.666  12.267  0.00  0.00     0.210 HD
ENDBRANCH  16  20
ENDBRANCH  10  11
ENDBRANCH   5  10
BRANCH   1  22
HETATM   22  O   UNK N   1      21.692  15.143   4.158  0.00  0.00    -0.351 OA
BRANCH  22  23
HETATM   23  C   UNK N   1      20.509  15.888   4.370  0.00  0.00     0.182 C 
HETATM   24  C   UNK N   1      20.076  16.515   3.053  0.00  0.00     0.152 C 
HETATM   25  O   UNK N   1      21.031  17.427   2.508  0.00  0.00    -0.354 OA
HETATM   26  C   UNK N   1      19.719  15.445   2.032  0.00  0.00     0.042 C 
HETATM   27  C   UNK N   1      22.018  17.951   3.407  0.00  0.00     0.263 C 
HETATM   28  C   UNK N   1      21.342  18.326   4.717  0.00  0.00     0.095 C 
HETATM   29  C   UNK N   1      20.691  17.081   5.344  0.00  0.00     0.154 C 
BRANCH  27  30
HETATM   30  O   UNK N   1      23.114  17.086   3.716  0.00  0.00    -0.356 OA
BRANCH  30  31
HETATM   31  C   UNK N   1      24.391  17.352   3.143  0.00  0.00     0.125 C 
HETATM   32  C   UNK N   1      25.200  16.176   2.620  0.00  0.00     0.037 C 
HETATM   33  C   UNK N   1      25.927  15.501   3.773  0.00  0.00    -0.004 C 
HETATM   34  C   UNK N   1      26.725  16.493   4.688  0.00  0.00    -0.036 C 
HETATM   35  C   UNK N   1      26.848  14.400   3.233  0.00  0.00     0.006 C 
HETATM   36  C   UNK N   1      25.962  17.778   5.003  0.00  0.00     0.012 C 
HETATM   37  C   UNK N   1      28.067  16.971   4.079  0.00  0.00     0.003 C 
HETATM   38  C   UNK N   1      26.912  15.796   6.035  0.00  0.00     0.016 C 
HETATM   39  C   UNK N   1      25.266  18.401   3.806  0.00  0.00     0.033 C 
HETATM   40  C   UNK N   1      28.930  15.859   3.417  0.00  0.00     0.026 C 
HETATM   41  C   UNK N   1      28.804  17.753   5.200  0.00  0.00     0.038 C 
HETATM   42  C   UNK N   1      28.057  14.989   2.495  0.00  0.00     0.008 C 
HETATM   43  C   UNK N   1      29.770  15.060   4.438  0.00  0.00     0.072 C 
HETATM   44  C   UNK N   1      30.649  16.024   5.312  0.00  0.00     0.021 C 
HETATM   45  C   UNK N   1      30.757  14.129   3.727  0.00  0.00     0.040 C 
HETATM   46  C   UNK N   1      30.292  17.537   5.219  0.00  0.00     0.130 C 
HETATM   47  C   UNK N   1      32.056  15.831   4.752  0.00  0.00     0.030 C 
HETATM   48  C   UNK N   1      30.600  15.579   6.785  0.00  0.00     0.022 C 
HETATM   49  O   UNK N   1      30.831  18.157   4.089  0.00  0.00    -0.395 OA
HETATM   50  H   UNK N   1      31.050  18.551   3.230  0.00  0.00     0.210 HD
HETATM   51  C   UNK N   1      32.121  14.377   4.347  0.00  0.00     0.013 C 
BRANCH  43  52
HETATM   52  O   UNK N   1      28.938  14.257   5.225  0.00  0.00    -0.389 OA
HETATM   53  H   UNK N   1      28.325  14.052   5.948  0.00  0.00     0.210 HD
ENDBRANCH  43  52
BRANCH  47  54
HETATM   54  C   UNK N   1      33.152  16.319   5.669  0.00  0.00    -0.045 A 
HETATM   55  C   UNK N   1      33.202  17.523   6.212  0.00  0.00     0.087 A 
HETATM   56  C   UNK N   1      34.440  17.548   6.942  0.00  0.00     0.283 A 
HETATM   57  O   UNK N   1      35.098  16.384   6.816  0.00  0.00    -0.314 OA
HETATM   58  O   UNK N   1      34.855  18.491   7.579  0.00  0.00    -0.260 OA
HETATM   59  C   UNK N   1      34.378  15.504   6.033  0.00  0.00     0.213 A 
ENDBRANCH  47  54
ENDBRANCH  30  31
ENDBRANCH  27  30
BRANCH  29  60
HETATM   60  O   UNK N   1      21.368  16.726   6.505  0.00  0.00    -0.393 OA
HETATM   61  H   UNK N   1      22.323  16.645   6.652  0.00  0.00     0.210 HD
ENDBRANCH  29  60
ENDBRANCH  22  23
ENDBRANCH   1  22
TORSDOF 11
ENDMDL
MODEL 2
REMARK VINA RESULT:      -9.7      1.575      2.086
REMARK  11 active torsions:
REMARK  status: ('A' for Active; 'I' for Inactive)
REMARK    1  A    between atoms: C_2  and  O_1 
REMARK    2  A    between atoms: C_28  and  O_1 
REMARK    3  A    between atoms: C_12  and  O_26 
REMARK    4  A    between atoms: C_18  and  C_19 
REMARK    5  A    between atoms: C_31  and  O_34 
REMARK    6  A    between atoms: C_32  and  O_37 
REMARK    7  A    between atoms: C_35  and  O_34 
REMARK    8  A    between atoms: C_40  and  O_45 
REMARK    9  A    between atoms: C_44  and  O_45 
REMARK   10  A    between atoms: C_47  and  O_50 
REMARK   11  A    between atoms: C_48  and  O_51 
ROOT
HETATM    1  C   UNK N   1      21.723  11.401   4.059  0.00  0.00     0.263 C 
HETATM    2  O   UNK N   1      22.957  10.896   4.502  0.00  0.00    -0.354 OA
HETATM    3  C   UNK N   1      20.645  11.184   5.131  0.00  0.00     0.095 C 
HETATM    4  C   UNK N   1      21.058  11.813   6.459  0.00  0.00     0.154 C 
HETATM    5  C   UNK N   1      22.597  11.816   6.720  0.00  0.00     0.182 C 
HETATM    6  C   UNK N   1      23.438  11.816   5.441  0.00  0.00     0.152 C 
HETATM    7  O   UNK N   1      20.478  13.075   6.600  0.00  0.00    -0.393 OA
HETATM    8  C   UNK N   1      24.905  11.558   5.727  0.00  0.00     0.042 C 
HETATM    9  H   UNK N   1      20.158  13.988   6.665  0.00  0.00     0.210 HD
ENDROOT
BRANCH   5  10
HETATM   10  O   UNK N   1      22.960  12.931   7.488  0.00  0.00    -0.351 OA
BRANCH  10  11
HETATM   11  C   UNK N   1      22.982  12.464   8.794  0.00  0.00     0.263 C 
HETATM   12  O   UNK N   1      21.917  13.015   9.519  0.00  0.00    -0.354 OA
HETATM   13  C   UNK N   1      21.723  12.128  10.581  0.00  0.00     0.151 C 
HETATM   14  C   UNK N   1      22.877  12.303  11.577  0.00  0.00     0.175 C 
HETATM   15  C   UNK N   1      20.378  12.408  11.222  0.00  0.00     0.042 C 
HETATM   16  C   UNK N   1      24.216  12.075  10.850  0.00  0.00     0.154 C 
HETATM   17  C   UNK N   1      24.278  12.804   9.508  0.00  0.00     0.095 C 
BRANCH  14  18
HETATM   18  O   UNK N   1      22.751  11.373  12.610  0.00  0.00    -0.390 OA
HETATM   19  H   UNK N   1      22.169  11.468  13.380  0.00  0.00     0.210 HD
ENDBRANCH  14  18
BRANCH  16  20
HETATM   20  O   UNK N   1      25.279  12.473  11.659  0.00  0.00    -0.393 OA
HETATM   21  H   UNK N   1      25.302  13.304  12.157  0.00  0.00     0.210 HD
ENDBRANCH  16  20
ENDBRANCH  10  11
ENDBRANCH   5  10
BRANCH   1  22
HETATM   22  O   UNK N   1      21.871  12.677   3.444  0.00  0.00    -0.351 OA
BRANCH  22  23
HETATM   23  C   UNK N   1      20.693  13.457   3.367  0.00  0.00     0.182 C 
HETATM   24  C   UNK N   1      20.178  13.437   1.937  0.00  0.00     0.152 C 
HETATM   25  O   UNK N   1      21.089  13.994   0.988  0.00  0.00    -0.354 OA
HETATM   26  C   UNK N   1      19.774  12.029   1.524  0.00  0.00     0.042 C 
HETATM   27  C   UNK N   1      22.120  14.849   1.500  0.00  0.00     0.263 C 
HETATM   28  C   UNK N   1      21.518  15.780   2.541  0.00  0.00     0.095 C 
HETATM   29  C   UNK N   1      20.919  14.957   3.694  0.00  0.00     0.154 C 
BRANCH  27  30
HETATM   30  O   UNK N   1      23.243  14.195   2.100  0.00  0.00    -0.356 OA
BRANCH  30  31
HETATM   31  C   UNK N   1      24.546  14.437   1.579  0.00  0.00     0.125 C 
HETATM   32  C   UNK N   1      25.571  13.317   1.666  0.00  0.00     0.037 C 
HETATM   33  C   UNK N   1      26.196  13.301   3.051  0.00  0.00    -0.004 C 
HETATM   34  C   UNK N   1      26.710  14.701   3.532  0.00  0.00    -0.036 C 
HETATM   35  C   UNK N   1      27.322  12.262   3.101  0.00  0.00     0.006 C 
HETATM   36  C   UNK N   1      25.749  15.845   3.216  0.00  0.00     0.012 C 
HETATM   37  C   UNK N   1      28.056  15.131   2.896  0.00  0.00     0.003 C 
HETATM   38  C   UNK N   1      26.779  14.646   5.058  0.00  0.00     0.016 C 
HETATM   39  C   UNK N   1      25.167  15.802   1.813  0.00  0.00     0.033 C 
HETATM   40  C   UNK N   1      29.146  14.023   2.834  0.00  0.00     0.026 C 
HETATM   41  C   UNK N   1      28.507  16.414   3.644  0.00  0.00     0.038 C 
HETATM   42  C   UNK N   1      28.543  12.716   2.290  0.00  0.00     0.008 C 
HETATM   43  C   UNK N   1      29.918  13.864   4.163  0.00  0.00     0.072 C 
HETATM   44  C   UNK N   1      30.522  15.237   4.625  0.00  0.00     0.021 C 
HETATM   45  C   UNK N   1      31.113  12.921   3.992  0.00  0.00     0.040 C 
HETATM   46  C   UNK N   1      29.990  16.497   3.878  0.00  0.00     0.130 C 
HETATM   47  C   UNK N   1      32.011  15.095   4.318  0.00  0.00     0.030 C 
HETATM   48  C   UNK N   1      30.308  15.416   6.138  0.00  0.00     0.022 C 
HETATM   49  O   UNK N   1      30.609  16.701   2.642  0.00  0.00    -0.395 OA
HETATM   50  H   UNK N   1      30.903  16.752   1.719  0.00  0.00     0.210 HD
HETATM   51  C   UNK N   1      32.324  13.638   4.566  0.00  0.00     0.013 C 
BRANCH  43  52
HETATM   52  O   UNK N   1      29.087  13.305   5.140  0.00  0.00    -0.389 OA
HETATM   53  H   UNK N   1      28.361  12.763   5.486  0.00  0.00     0.210 HD
ENDBRANCH  43  52
BRANCH  47  54
HETATM   54  C   UNK N   1      32.882  16.097   5.036  0.00  0.00    -0.045 A 
HETATM   55  C   UNK N   1      33.528  15.865   6.165  0.00  0.00     0.087 A 
HETATM   56  C   UNK N   1      34.160  17.113   6.493  0.00  0.00     0.283 A 
HETATM   57  O   UNK N   1      33.878  18.053   5.576  0.00  0.00    -0.314 OA
HETATM   58  O   UNK N   1      34.848  17.311   7.471  0.00  0.00    -0.260 OA
HETATM   59  C   UNK N   1      33.074  17.532   4.582  0.00  0.00     0.213 A 
ENDBRANCH  47  54
ENDBRANCH  30  31
ENDBRANCH  27  30
BRANCH  29  60
HETATM   60  O   UNK N   1      21.666  15.147   4.850  0.00  0.00    -0.393 OA
HETATM   61  H   UNK N   1      21.380  15.485   5.712  0.00  0.00     0.210 HD
ENDBRANCH  29  60
ENDBRANCH  22  23
ENDBRANCH   1  22
TORSDOF 11
ENDMDL
MODEL 3
REMARK VINA RESULT:      -9.5      7.011     12.625
REMARK  11 active torsions:
REMARK  status: ('A' for Active; 'I' for Inactive)
REMARK    1  A    between atoms: C_2  and  O_1 
REMARK    2  A    between atoms: C_28  and  O_1 
REMARK    3  A    between atoms: C_12  and  O_26 
REMARK    4  A    between atoms: C_18  and  C_19 
REMARK    5  A    between atoms: C_31  and  O_34 
REMARK    6  A    between atoms: C_32  and  O_37 
REMARK    7  A    between atoms: C_35  and  O_34 
REMARK    8  A    between atoms: C_40  and  O_45 
REMARK    9  A    between atoms: C_44  and  O_45 
REMARK   10  A    between atoms: C_47  and  O_50 
REMARK   11  A    between atoms: C_48  and  O_51 
ROOT
HETATM    1  C   UNK N   1      33.393  12.577   6.739  0.00  0.00     0.263 C 
HETATM    2  O   UNK N   1      32.895  12.853   8.024  0.00  0.00    -0.354 OA
HETATM    3  C   UNK N   1      32.313  12.852   5.682  0.00  0.00     0.095 C 
HETATM    4  C   UNK N   1      31.801  14.286   5.782  0.00  0.00     0.154 C 
HETATM    5  C   UNK N   1      31.814  14.875   7.226  0.00  0.00     0.182 C 
HETATM    6  C   UNK N   1      32.872  14.248   8.138  0.00  0.00     0.152 C 
HETATM    7  O   UNK N   1      32.453  15.100   4.854  0.00  0.00    -0.393 OA
HETATM    8  C   UNK N   1      32.685  14.654   9.588  0.00  0.00     0.042 C 
HETATM    9  H   UNK N   1      32.964  15.692   4.280  0.00  0.00     0.210 HD
ENDROOT
BRANCH   5  10
HETATM   10  O   UNK N   1      32.030  16.261   7.187  0.00  0.00    -0.351 OA
BRANCH  10  11
HETATM   11  C   UNK N   1      30.848  16.812   7.661  0.00  0.00     0.263 C 
HETATM   12  O   UNK N   1      30.230  17.563   6.652  0.00  0.00    -0.354 OA
HETATM   13  C   UNK N   1      28.887  17.617   7.032  0.00  0.00     0.151 C 
HETATM   14  C   UNK N   1      28.758  18.570   8.228  0.00  0.00     0.175 C 
HETATM   15  C   UNK N   1      28.055  18.078   5.852  0.00  0.00     0.042 C 
HETATM   16  C   UNK N   1      29.678  18.087   9.366  0.00  0.00     0.154 C 
HETATM   17  C   UNK N   1      31.072  17.712   8.864  0.00  0.00     0.095 C 
BRANCH  14  18
HETATM   18  O   UNK N   1      27.438  18.582   8.678  0.00  0.00    -0.390 OA
HETATM   19  H   UNK N   1      26.661  18.357   8.143  0.00  0.00     0.210 HD
ENDBRANCH  14  18
BRANCH  16  20
HETATM   20  O   UNK N   1      29.774  19.062  10.356  0.00  0.00    -0.393 OA
HETATM   21  H   UNK N   1      29.014  19.434  10.830  0.00  0.00     0.210 HD
ENDBRANCH  16  20
ENDBRANCH  10  11
ENDBRANCH   5  10
BRANCH   1  22
HETATM   22  O   UNK N   1      34.709  13.092   6.565  0.00  0.00    -0.351 OA
BRANCH  22  23
HETATM   23  C   UNK N   1      35.096  13.340   5.228  0.00  0.00     0.182 C 
HETATM   24  C   UNK N   1      36.039  12.237   4.773  0.00  0.00     0.152 C 
HETATM   25  O   UNK N   1      37.248  12.163   5.531  0.00  0.00    -0.354 OA
HETATM   26  C   UNK N   1      35.334  10.889   4.761  0.00  0.00     0.042 C 
HETATM   27  C   UNK N   1      37.613  13.323   6.290  0.00  0.00     0.263 C 
HETATM   28  C   UNK N   1      37.380  14.562   5.438  0.00  0.00     0.095 C 
HETATM   29  C   UNK N   1      35.897  14.657   5.046  0.00  0.00     0.154 C 
BRANCH  27  30
HETATM   30  O   UNK N   1      36.921  13.512   7.528  0.00  0.00    -0.356 OA
BRANCH  30  31
HETATM   31  C   UNK N   1      37.654  13.451   8.748  0.00  0.00     0.125 C 
HETATM   32  C   UNK N   1      37.897  12.085   9.369  0.00  0.00     0.037 C 
HETATM   33  C   UNK N   1      36.671  11.653  10.156  0.00  0.00    -0.004 C 
HETATM   34  C   UNK N   1      36.139  12.743  11.151  0.00  0.00    -0.036 C 
HETATM   35  C   UNK N   1      36.961  10.341  10.893  0.00  0.00     0.006 C 
HETATM   36  C   UNK N   1      36.129  14.151  10.562  0.00  0.00     0.012 C 
HETATM   37  C   UNK N   1      36.971  12.866  12.453  0.00  0.00     0.003 C 
HETATM   38  C   UNK N   1      34.673  12.411  11.426  0.00  0.00     0.016 C 
HETATM   39  C   UNK N   1      37.387  14.518   9.795  0.00  0.00     0.033 C 
HETATM   40  C   UNK N   1      37.371  11.517  13.117  0.00  0.00     0.026 C 
HETATM   41  C   UNK N   1      36.181  13.818  13.392  0.00  0.00     0.038 C 
HETATM   42  C   UNK N   1      37.935  10.553  12.060  0.00  0.00     0.008 C 
HETATM   43  C   UNK N   1      36.245  10.919  13.989  0.00  0.00     0.072 C 
HETATM   44  C   UNK N   1      35.753  11.959  15.056  0.00  0.00     0.021 C 
HETATM   45  C   UNK N   1      36.752   9.714  14.787  0.00  0.00     0.040 C 
HETATM   46  C   UNK N   1      36.231  13.427  14.842  0.00  0.00     0.130 C 
HETATM   47  C   UNK N   1      36.356  11.447  16.361  0.00  0.00     0.030 C 
HETATM   48  C   UNK N   1      34.216  11.933  15.138  0.00  0.00     0.022 C 
HETATM   49  O   UNK N   1      37.531  13.650  15.303  0.00  0.00    -0.395 OA
HETATM   50  H   UNK N   1      38.482  13.770  15.456  0.00  0.00     0.210 HD
HETATM   51  C   UNK N   1      36.345   9.941  16.233  0.00  0.00     0.013 C 
BRANCH  43  52
HETATM   52  O   UNK N   1      35.196  10.467  13.180  0.00  0.00    -0.389 OA
HETATM   53  H   UNK N   1      34.509  10.528  12.499  0.00  0.00     0.210 HD
ENDBRANCH  43  52
BRANCH  47  54
HETATM   54  C   UNK N   1      35.710  12.017  17.600  0.00  0.00    -0.045 A 
HETATM   55  C   UNK N   1      35.468  13.300  17.804  0.00  0.00     0.087 A 
HETATM   56  C   UNK N   1      34.912  13.366  19.128  0.00  0.00     0.283 A 
HETATM   57  O   UNK N   1      34.842  12.146  19.683  0.00  0.00    -0.314 OA
HETATM   58  O   UNK N   1      34.563  14.382  19.687  0.00  0.00    -0.260 OA
HETATM   59  C   UNK N   1      35.313  11.188  18.807  0.00  0.00     0.213 A 
ENDBRANCH  47  54
ENDBRANCH  30  31
ENDBRANCH  27  30
BRANCH  29  60
HETATM   60  O   UNK N   1      35.303  15.737   5.687  0.00  0.00    -0.393 OA
HETATM   61  H   UNK N   1      34.557  15.743   6.305  0.00  0.00     0.210 HD
ENDBRANCH  29  60
ENDBRANCH  22  23
ENDBRANCH   1  22
TORSDOF 11
ENDMDL
MODEL 4
REMARK VINA RESULT:      -9.3      3.028     10.547
REMARK  11 active torsions:
REMARK  status: ('A' for Active; 'I' for Inactive)
REMARK    1  A    between atoms: C_2  and  O_1 
REMARK    2  A    between atoms: C_28  and  O_1 
REMARK    3  A    between atoms: C_12  and  O_26 
REMARK    4  A    between atoms: C_18  and  C_19 
REMARK    5  A    between atoms: C_31  and  O_34 
REMARK    6  A    between atoms: C_32  and  O_37 
REMARK    7  A    between atoms: C_35  and  O_34 
REMARK    8  A    between atoms: C_40  and  O_45 
REMARK    9  A    between atoms: C_44  and  O_45 
REMARK   10  A    between atoms: C_47  and  O_50 
REMARK   11  A    between atoms: C_48  and  O_51 
ROOT
HETATM    1  C   UNK N   1      33.329  14.169   2.607  0.00  0.00     0.263 C 
HETATM    2  O   UNK N   1      32.985  15.531   2.641  0.00  0.00    -0.354 OA
HETATM    3  C   UNK N   1      34.545  13.906   3.508  0.00  0.00     0.095 C 
HETATM    4  C   UNK N   1      34.282  14.377   4.936  0.00  0.00     0.154 C 
HETATM    5  C   UNK N   1      33.335  15.613   5.042  0.00  0.00     0.182 C 
HETATM    6  C   UNK N   1      32.355  15.741   3.873  0.00  0.00     0.152 C 
HETATM    7  O   UNK N   1      33.873  13.306   5.732  0.00  0.00    -0.393 OA
HETATM    8  C   UNK N   1      31.638  17.078   3.877  0.00  0.00     0.042 C 
HETATM    9  H   UNK N   1      33.499  12.591   6.270  0.00  0.00     0.210 HD
ENDROOT
BRANCH   5  10
HETATM   10  O   UNK N   1      32.598  15.563   6.234  0.00  0.00    -0.351 OA
BRANCH  10  11
HETATM   11  C   UNK N   1      33.471  16.028   7.206  0.00  0.00     0.263 C 
HETATM   12  O   UNK N   1      33.020  15.649   8.477  0.00  0.00    -0.354 OA
HETATM   13  C   UNK N   1      34.164  15.690   9.278  0.00  0.00     0.151 C 
HETATM   14  C   UNK N   1      34.534  17.159   9.523  0.00  0.00     0.175 C 
HETATM   15  C   UNK N   1      33.889  14.955  10.575  0.00  0.00     0.042 C 
HETATM   16  C   UNK N   1      34.732  17.868   8.169  0.00  0.00     0.154 C 
HETATM   17  C   UNK N   1      33.618  17.539   7.176  0.00  0.00     0.095 C 
BRANCH  14  18
HETATM   18  O   UNK N   1      35.719  17.230  10.256  0.00  0.00    -0.390 OA
HETATM   19  H   UNK N   1      35.903  16.739  11.072  0.00  0.00     0.210 HD
ENDBRANCH  14  18
BRANCH  16  20
HETATM   20  O   UNK N   1      34.816  19.247   8.352  0.00  0.00    -0.393 OA
HETATM   21  H   UNK N   1      34.680  19.898   7.647  0.00  0.00     0.210 HD
ENDBRANCH  16  20
ENDBRANCH  10  11
ENDBRANCH   5  10
BRANCH   1  22
HETATM   22  O   UNK N   1      32.178  13.336   2.702  0.00  0.00    -0.351 OA
BRANCH  22  23
HETATM   23  C   UNK N   1      32.404  12.039   3.220  0.00  0.00     0.182 C 
HETATM   24  C   UNK N   1      32.172  11.018   2.117  0.00  0.00     0.152 C 
HETATM   25  O   UNK N   1      30.838  11.017   1.604  0.00  0.00    -0.354 OA
HETATM   26  C   UNK N   1      33.177  11.199   0.988  0.00  0.00     0.042 C 
HETATM   27  C   UNK N   1      29.826  11.619   2.421  0.00  0.00     0.263 C 
HETATM   28  C   UNK N   1      30.035  11.186   3.865  0.00  0.00     0.095 C 
HETATM   29  C   UNK N   1      31.420  11.641   4.352  0.00  0.00     0.154 C 
BRANCH  27  30
HETATM   30  O   UNK N   1      29.765  13.048   2.402  0.00  0.00    -0.356 OA
BRANCH  30  31
HETATM   31  C   UNK N   1      28.582  13.686   1.929  0.00  0.00     0.125 C 
HETATM   32  C   UNK N   1      28.392  15.162   2.238  0.00  0.00     0.037 C 
HETATM   33  C   UNK N   1      27.843  15.324   3.646  0.00  0.00    -0.004 C 
HETATM   34  C   UNK N   1      26.596  14.424   3.949  0.00  0.00    -0.036 C 
HETATM   35  C   UNK N   1      27.524  16.800   3.913  0.00  0.00     0.006 C 
HETATM   36  C   UNK N   1      26.729  13.000   3.414  0.00  0.00     0.012 C 
HETATM   37  C   UNK N   1      25.274  14.952   3.338  0.00  0.00     0.003 C 
HETATM   38  C   UNK N   1      26.517  14.276   5.468  0.00  0.00     0.016 C 
HETATM   39  C   UNK N   1      27.277  12.912   2.001  0.00  0.00     0.033 C 
HETATM   40  C   UNK N   1      25.029  16.480   3.502  0.00  0.00     0.026 C 
HETATM   41  C   UNK N   1      24.136  14.069   3.919  0.00  0.00     0.038 C 
HETATM   42  C   UNK N   1      26.296  17.264   3.118  0.00  0.00     0.008 C 
HETATM   43  C   UNK N   1      24.445  16.851   4.884  0.00  0.00     0.072 C 
HETATM   44  C   UNK N   1      23.141  16.027   5.177  0.00  0.00     0.021 C 
HETATM   45  C   UNK N   1      24.023  18.323   4.922  0.00  0.00     0.040 C 
HETATM   46  C   UNK N   1      22.872  14.823   4.226  0.00  0.00     0.130 C 
HETATM   47  C   UNK N   1      22.022  17.046   4.983  0.00  0.00     0.030 C 
HETATM   48  C   UNK N   1      23.158  15.530   6.634  0.00  0.00     0.022 C 
HETATM   49  O   UNK N   1      22.294  15.204   3.012  0.00  0.00    -0.395 OA
HETATM   50  H   UNK N   1      22.058  15.473   2.110  0.00  0.00     0.210 HD
HETATM   51  C   UNK N   1      22.601  18.359   5.457  0.00  0.00     0.013 C 
BRANCH  43  52
HETATM   52  O   UNK N   1      25.410  16.671   5.880  0.00  0.00    -0.389 OA
HETATM   53  H   UNK N   1      25.781  16.324   6.707  0.00  0.00     0.210 HD
ENDBRANCH  43  52
BRANCH  47  54
HETATM   54  C   UNK N   1      20.706  16.636   5.599  0.00  0.00    -0.045 A 
HETATM   55  C   UNK N   1      20.364  16.842   6.859  0.00  0.00     0.087 A 
HETATM   56  C   UNK N   1      19.071  16.231   6.995  0.00  0.00     0.283 A 
HETATM   57  O   UNK N   1      18.675  15.673   5.840  0.00  0.00    -0.314 OA
HETATM   58  O   UNK N   1      18.418  16.202   8.016  0.00  0.00    -0.260 OA
HETATM   59  C   UNK N   1      19.627  15.868   4.859  0.00  0.00     0.213 A 
ENDBRANCH  47  54
ENDBRANCH  30  31
ENDBRANCH  27  30
BRANCH  29  60
HETATM   60  O   UNK N   1      31.282  12.634   5.314  0.00  0.00    -0.393 OA
HETATM   61  H   UNK N   1      30.546  13.249   5.454  0.00  0.00     0.210 HD
ENDBRANCH  29  60
ENDBRANCH  22  23
ENDBRANCH   1  22
TORSDOF 11
ENDMDL
MODEL 5
REMARK VINA RESULT:      -9.3      1.557      2.131
REMARK  11 active torsions:
REMARK  status: ('A' for Active; 'I' for Inactive)
REMARK    1  A    between atoms: C_2  and  O_1 
REMARK    2  A    between atoms: C_28  and  O_1 
REMARK    3  A    between atoms: C_12  and  O_26 
REMARK    4  A    between atoms: C_18  and  C_19 
REMARK    5  A    between atoms: C_31  and  O_34 
REMARK    6  A    between atoms: C_32  and  O_37 
REMARK    7  A    between atoms: C_35  and  O_34 
REMARK    8  A    between atoms: C_40  and  O_45 
REMARK    9  A    between atoms: C_44  and  O_45 
REMARK   10  A    between atoms: C_47  and  O_50 
REMARK   11  A    between atoms: C_48  and  O_51 
ROOT
HETATM    1  C   UNK N   1      21.016  12.443   4.277  0.00  0.00     0.263 C 
HETATM    2  O   UNK N   1      22.292  11.875   4.427  0.00  0.00    -0.354 OA
HETATM    3  C   UNK N   1      20.118  12.048   5.459  0.00  0.00     0.095 C 
HETATM    4  C   UNK N   1      20.752  12.451   6.788  0.00  0.00     0.154 C 
HETATM    5  C   UNK N   1      22.312  12.415   6.794  0.00  0.00     0.182 C 
HETATM    6  C   UNK N   1      22.939  12.629   5.413  0.00  0.00     0.152 C 
HETATM    7  O   UNK N   1      20.233  13.671   7.224  0.00  0.00    -0.393 OA
HETATM    8  C   UNK N   1      24.426  12.333   5.412  0.00  0.00     0.042 C 
HETATM    9  H   UNK N   1      19.948  14.559   7.489  0.00  0.00     0.210 HD
ENDROOT
BRANCH   5  10
HETATM   10  O   UNK N   1      22.820  13.390   7.665  0.00  0.00    -0.351 OA
BRANCH  10  11
HETATM   11  C   UNK N   1      22.896  12.754   8.895  0.00  0.00     0.263 C 
HETATM   12  O   UNK N   1      21.852  13.186   9.724  0.00  0.00    -0.354 OA
HETATM   13  C   UNK N   1      21.708  12.162  10.664  0.00  0.00     0.151 C 
HETATM   14  C   UNK N   1      22.896  12.221  11.633  0.00  0.00     0.175 C 
HETATM   15  C   UNK N   1      20.385  12.332  11.385  0.00  0.00     0.042 C 
HETATM   16  C   UNK N   1      24.211  12.114  10.836  0.00  0.00     0.154 C 
HETATM   17  C   UNK N   1      24.214  13.016   9.602  0.00  0.00     0.095 C 
BRANCH  14  18
HETATM   18  O   UNK N   1      22.819  11.160  12.536  0.00  0.00    -0.390 OA
HETATM   19  H   UNK N   1      22.923  11.235  13.497  0.00  0.00     0.210 HD
ENDBRANCH  14  18
BRANCH  16  20
HETATM   20  O   UNK N   1      25.298  12.418  11.652  0.00  0.00    -0.393 OA
HETATM   21  H   UNK N   1      26.056  11.828  11.790  0.00  0.00     0.210 HD
ENDBRANCH  16  20
ENDBRANCH  10  11
ENDBRANCH   5  10
BRANCH   1  22
HETATM   22  O   UNK N   1      21.093  13.804   3.863  0.00  0.00    -0.351 OA
BRANCH  22  23
HETATM   23  C   UNK N   1      19.935  14.317   3.235  0.00  0.00     0.182 C 
HETATM   24  C   UNK N   1      20.277  14.704   1.805  0.00  0.00     0.152 C 
HETATM   25  O   UNK N   1      21.272  15.724   1.705  0.00  0.00    -0.354 OA
HETATM   26  C   UNK N   1      20.685  13.482   0.994  0.00  0.00     0.042 C 
HETATM   27  C   UNK N   1      21.501  16.526   2.872  0.00  0.00     0.263 C 
HETATM   28  C   UNK N   1      20.159  16.894   3.488  0.00  0.00     0.095 C 
HETATM   29  C   UNK N   1      19.399  15.619   3.888  0.00  0.00     0.154 C 
BRANCH  27  30
HETATM   30  O   UNK N   1      22.301  15.933   3.899  0.00  0.00    -0.356 OA
BRANCH  30  31
HETATM   31  C   UNK N   1      23.199  16.754   4.640  0.00  0.00     0.125 C 
HETATM   32  C   UNK N   1      24.237  17.555   3.871  0.00  0.00     0.037 C 
HETATM   33  C   UNK N   1      25.424  16.667   3.535  0.00  0.00    -0.004 C 
HETATM   34  C   UNK N   1      25.987  15.869   4.762  0.00  0.00    -0.036 C 
HETATM   35  C   UNK N   1      26.530  17.503   2.879  0.00  0.00     0.006 C 
HETATM   36  C   UNK N   1      24.898  15.270   5.649  0.00  0.00     0.012 C 
HETATM   37  C   UNK N   1      26.854  16.720   5.724  0.00  0.00     0.003 C 
HETATM   38  C   UNK N   1      26.749  14.671   4.197  0.00  0.00     0.016 C 
HETATM   39  C   UNK N   1      23.746  16.213   5.949  0.00  0.00     0.033 C 
HETATM   40  C   UNK N   1      27.881  17.663   5.034  0.00  0.00     0.026 C 
HETATM   41  C   UNK N   1      27.492  15.729   6.735  0.00  0.00     0.038 C 
HETATM   42  C   UNK N   1      27.205  18.439   3.891  0.00  0.00     0.008 C 
HETATM   43  C   UNK N   1      29.185  16.939   4.629  0.00  0.00     0.072 C 
HETATM   44  C   UNK N   1      29.820  16.202   5.861  0.00  0.00     0.021 C 
HETATM   45  C   UNK N   1      30.242  17.940   4.154  0.00  0.00     0.040 C 
HETATM   46  C   UNK N   1      28.906  16.069   7.116  0.00  0.00     0.130 C 
HETATM   47  C   UNK N   1      31.010  17.083   6.230  0.00  0.00     0.030 C 
HETATM   48  C   UNK N   1      30.306  14.805   5.437  0.00  0.00     0.022 C 
HETATM   49  O   UNK N   1      28.874  17.230   7.894  0.00  0.00    -0.395 OA
HETATM   50  H   UNK N   1      28.709  18.075   8.339  0.00  0.00     0.210 HD
HETATM   51  C   UNK N   1      31.519  17.626   4.915  0.00  0.00     0.013 C 
BRANCH  43  52
HETATM   52  O   UNK N   1      28.940  16.062   3.567  0.00  0.00    -0.389 OA
HETATM   53  H   UNK N   1      28.408  15.597   2.902  0.00  0.00     0.210 HD
ENDBRANCH  43  52
BRANCH  47  54
HETATM   54  C   UNK N   1      32.029  16.399   7.109  0.00  0.00    -0.045 A 
HETATM   55  C   UNK N   1      31.918  16.246   8.418  0.00  0.00     0.087 A 
HETATM   56  C   UNK N   1      33.139  15.606   8.820  0.00  0.00     0.283 A 
HETATM   57  O   UNK N   1      33.946  15.399   7.767  0.00  0.00    -0.314 OA
HETATM   58  O   UNK N   1      33.424  15.300   9.958  0.00  0.00    -0.260 OA
HETATM   59  C   UNK N   1      33.352  15.852   6.607  0.00  0.00     0.213 A 
ENDBRANCH  47  54
ENDBRANCH  30  31
ENDBRANCH  27  30
BRANCH  29  60
HETATM   60  O   UNK N   1      19.317  15.529   5.272  0.00  0.00    -0.393 OA
HETATM   61  H   UNK N   1      19.998  15.257   5.906  0.00  0.00     0.210 HD
ENDBRANCH  29  60
ENDBRANCH  22  23
ENDBRANCH   1  22
TORSDOF 11
ENDMDL
MODEL 6
REMARK VINA RESULT:      -9.2      1.992      3.045
REMARK  11 active torsions:
REMARK  status: ('A' for Active; 'I' for Inactive)
REMARK    1  A    between atoms: C_2  and  O_1 
REMARK    2  A    between atoms: C_28  and  O_1 
REMARK    3  A    between atoms: C_12  and  O_26 
REMARK    4  A    between atoms: C_18  and  C_19 
REMARK    5  A    between atoms: C_31  and  O_34 
REMARK    6  A    between atoms: C_32  and  O_37 
REMARK    7  A    between atoms: C_35  and  O_34 
REMARK    8  A    between atoms: C_40  and  O_45 
REMARK    9  A    between atoms: C_44  and  O_45 
REMARK   10  A    between atoms: C_47  and  O_50 
REMARK   11  A    between atoms: C_48  and  O_51 
ROOT
HETATM    1  C   UNK N   1      21.100  12.813   3.792  0.00  0.00     0.263 C 
HETATM    2  O   UNK N   1      21.143  11.703   4.652  0.00  0.00    -0.354 OA
HETATM    3  C   UNK N   1      20.599  14.051   4.550  0.00  0.00     0.095 C 
HETATM    4  C   UNK N   1      21.464  14.332   5.776  0.00  0.00     0.154 C 
HETATM    5  C   UNK N   1      22.072  13.057   6.440  0.00  0.00     0.182 C 
HETATM    6  C   UNK N   1      22.264  11.888   5.470  0.00  0.00     0.152 C 
HETATM    7  O   UNK N   1      22.422  15.304   5.482  0.00  0.00    -0.393 OA
HETATM    8  C   UNK N   1      22.608  10.601   6.193  0.00  0.00     0.042 C 
HETATM    9  H   UNK N   1      23.148  15.908   5.263  0.00  0.00     0.210 HD
ENDROOT
BRANCH   5  10
HETATM   10  O   UNK N   1      23.312  13.355   7.024  0.00  0.00    -0.351 OA
BRANCH  10  11
HETATM   11  C   UNK N   1      23.233  12.823   8.303  0.00  0.00     0.263 C 
HETATM   12  O   UNK N   1      22.175  13.415   9.005  0.00  0.00    -0.354 OA
HETATM   13  C   UNK N   1      21.863  12.493  10.007  0.00  0.00     0.151 C 
HETATM   14  C   UNK N   1      22.974  12.530  11.065  0.00  0.00     0.175 C 
HETATM   15  C   UNK N   1      20.511  12.841  10.599  0.00  0.00     0.042 C 
HETATM   16  C   UNK N   1      24.329  12.238  10.391  0.00  0.00     0.154 C 
HETATM   17  C   UNK N   1      24.512  13.027   9.094  0.00  0.00     0.095 C 
BRANCH  14  18
HETATM   18  O   UNK N   1      22.728  11.562  12.039  0.00  0.00    -0.390 OA
HETATM   19  H   UNK N   1      22.977  11.632  12.973  0.00  0.00     0.210 HD
ENDBRANCH  14  18
BRANCH  16  20
HETATM   20  O   UNK N   1      25.375  12.514  11.269  0.00  0.00    -0.393 OA
HETATM   21  H   UNK N   1      26.314  12.448  11.034  0.00  0.00     0.210 HD
ENDBRANCH  16  20
ENDBRANCH  10  11
ENDBRANCH   5  10
BRANCH   1  22
HETATM   22  O   UNK N   1      22.271  12.896   2.985  0.00  0.00    -0.351 OA
BRANCH  22  23
HETATM   23  C   UNK N   1      22.123  12.461   1.647  0.00  0.00     0.182 C 
HETATM   24  C   UNK N   1      23.112  11.338   1.380  0.00  0.00     0.152 C 
HETATM   25  O   UNK N   1      24.479  11.727   1.524  0.00  0.00    -0.354 OA
HETATM   26  C   UNK N   1      22.809  10.126   2.250  0.00  0.00     0.042 C 
HETATM   27  C   UNK N   1      24.765  13.131   1.473  0.00  0.00     0.263 C 
HETATM   28  C   UNK N   1      23.960  13.758   0.345  0.00  0.00     0.095 C 
HETATM   29  C   UNK N   1      22.457  13.553   0.597  0.00  0.00     0.154 C 
BRANCH  27  30
HETATM   30  O   UNK N   1      24.492  13.875   2.665  0.00  0.00    -0.356 OA
BRANCH  30  31
HETATM   31  C   UNK N   1      25.251  15.049   2.938  0.00  0.00     0.125 C 
HETATM   32  C   UNK N   1      26.500  15.303   2.111  0.00  0.00     0.037 C 
HETATM   33  C   UNK N   1      27.660  14.498   2.673  0.00  0.00    -0.004 C 
HETATM   34  C   UNK N   1      27.853  14.659   4.221  0.00  0.00    -0.036 C 
HETATM   35  C   UNK N   1      28.951  14.854   1.926  0.00  0.00     0.006 C 
HETATM   36  C   UNK N   1      26.542  14.632   5.004  0.00  0.00     0.012 C 
HETATM   37  C   UNK N   1      28.532  15.988   4.637  0.00  0.00     0.003 C 
HETATM   38  C   UNK N   1      28.631  13.434   4.698  0.00  0.00     0.016 C 
HETATM   39  C   UNK N   1      25.429  15.462   4.389  0.00  0.00     0.033 C 
HETATM   40  C   UNK N   1      29.763  16.402   3.781  0.00  0.00     0.026 C 
HETATM   41  C   UNK N   1      28.834  15.872   6.155  0.00  0.00     0.038 C 
HETATM   42  C   UNK N   1      29.438  16.265   2.283  0.00  0.00     0.008 C 
HETATM   43  C   UNK N   1      31.065  15.694   4.218  0.00  0.00     0.072 C 
HETATM   44  C   UNK N   1      31.332  15.913   5.749  0.00  0.00     0.021 C 
HETATM   45  C   UNK N   1      32.279  16.287   3.496  0.00  0.00     0.040 C 
HETATM   46  C   UNK N   1      30.140  16.492   6.569  0.00  0.00     0.130 C 
HETATM   47  C   UNK N   1      32.467  16.934   5.773  0.00  0.00     0.030 C 
HETATM   48  C   UNK N   1      31.795  14.592   6.390  0.00  0.00     0.022 C 
HETATM   49  O   UNK N   1      30.016  17.878   6.447  0.00  0.00    -0.395 OA
HETATM   50  H   UNK N   1      29.816  18.803   6.233  0.00  0.00     0.210 HD
HETATM   51  C   UNK N   1      33.312  16.608   4.563  0.00  0.00     0.013 C 
BRANCH  43  52
HETATM   52  O   UNK N   1      31.010  14.336   3.888  0.00  0.00    -0.389 OA
HETATM   53  H   UNK N   1      31.136  13.550   3.333  0.00  0.00     0.210 HD
ENDBRANCH  43  52
BRANCH  47  54
HETATM   54  C   UNK N   1      33.192  17.012   7.094  0.00  0.00    -0.045 A 
HETATM   55  C   UNK N   1      34.185  16.220   7.459  0.00  0.00     0.087 A 
HETATM   56  C   UNK N   1      34.507  16.623   8.800  0.00  0.00     0.283 A 
HETATM   57  O   UNK N   1      33.709  17.624   9.208  0.00  0.00    -0.314 OA
HETATM   58  O   UNK N   1      35.370  16.127   9.490  0.00  0.00    -0.260 OA
HETATM   59  C   UNK N   1      32.826  17.976   8.207  0.00  0.00     0.213 A 
ENDBRANCH  47  54
ENDBRANCH  30  31
ENDBRANCH  27  30
BRANCH  29  60
HETATM   60  O   UNK N   1      21.853  14.771   0.881  0.00  0.00    -0.393 OA
HETATM   61  H   UNK N   1      21.190  15.257   0.367  0.00  0.00     0.210 HD
ENDBRANCH  29  60
ENDBRANCH  22  23
ENDBRANCH   1  22
TORSDOF 11
ENDMDL
MODEL 7
REMARK VINA RESULT:      -9.1      5.922     11.323
REMARK  11 active torsions:
REMARK  status: ('A' for Active; 'I' for Inactive)
REMARK    1  A    between atoms: C_2  and  O_1 
REMARK    2  A    between atoms: C_28  and  O_1 
REMARK    3  A    between atoms: C_12  and  O_26 
REMARK    4  A    between atoms: C_18  and  C_19 
REMARK    5  A    between atoms: C_31  and  O_34 
REMARK    6  A    between atoms: C_32  and  O_37 
REMARK    7  A    between atoms: C_35  and  O_34 
REMARK    8  A    between atoms: C_40  and  O_45 
REMARK    9  A    between atoms: C_44  and  O_45 
REMARK   10  A    between atoms: C_47  and  O_50 
REMARK   11  A    between atoms: C_48  and  O_51 
ROOT
HETATM    1  C   UNK N   1      31.757  13.392   5.803  0.00  0.00     0.263 C 
HETATM    2  O   UNK N   1      31.562  14.126   6.985  0.00  0.00    -0.354 OA
HETATM    3  C   UNK N   1      30.518  13.501   4.901  0.00  0.00     0.095 C 
HETATM    4  C   UNK N   1      30.186  14.960   4.600  0.00  0.00     0.154 C 
HETATM    5  C   UNK N   1      30.553  15.954   5.746  0.00  0.00     0.182 C 
HETATM    6  C   UNK N   1      31.705  15.473   6.633  0.00  0.00     0.152 C 
HETATM    7  O   UNK N   1      30.715  15.334   3.363  0.00  0.00    -0.393 OA
HETATM    8  C   UNK N   1      31.860  16.329   7.876  0.00  0.00     0.042 C 
HETATM    9  H   UNK N   1      31.157  15.629   2.552  0.00  0.00     0.210 HD
ENDROOT
BRANCH   5  10
HETATM   10  O   UNK N   1      30.897  17.206   5.216  0.00  0.00    -0.351 OA
BRANCH  10  11
HETATM   11  C   UNK N   1      29.855  18.042   5.588  0.00  0.00     0.263 C 
HETATM   12  O   UNK N   1      29.223  17.540   6.733  0.00  0.00    -0.354 OA
HETATM   13  C   UNK N   1      28.592  18.652   7.298  0.00  0.00     0.151 C 
HETATM   14  C   UNK N   1      27.381  19.017   6.430  0.00  0.00     0.175 C 
HETATM   15  C   UNK N   1      28.187  18.323   8.721  0.00  0.00     0.042 C 
HETATM   16  C   UNK N   1      27.848  19.271   4.984  0.00  0.00     0.154 C 
HETATM   17  C   UNK N   1      28.816  18.196   4.491  0.00  0.00     0.095 C 
BRANCH  14  18
HETATM   18  O   UNK N   1      26.778  20.173   6.928  0.00  0.00    -0.390 OA
HETATM   19  H   UNK N   1      26.196  20.762   6.424  0.00  0.00     0.210 HD
ENDBRANCH  14  18
BRANCH  16  20
HETATM   20  O   UNK N   1      26.751  19.353   4.129  0.00  0.00    -0.393 OA
HETATM   21  H   UNK N   1      25.848  19.551   4.420  0.00  0.00     0.210 HD
ENDBRANCH  16  20
ENDBRANCH  10  11
ENDBRANCH   5  10
BRANCH   1  22
HETATM   22  O   UNK N   1      33.056  13.608   5.261  0.00  0.00    -0.351 OA
BRANCH  22  23
HETATM   23  C   UNK N   1      33.301  13.004   4.005  0.00  0.00     0.182 C 
HETATM   24  C   UNK N   1      34.091  11.722   4.219  0.00  0.00     0.152 C 
HETATM   25  O   UNK N   1      35.370  11.926   4.821  0.00  0.00    -0.354 OA
HETATM   26  C   UNK N   1      33.281  10.711   5.018  0.00  0.00     0.042 C 
HETATM   27  C   UNK N   1      35.915  13.250   4.758  0.00  0.00     0.263 C 
HETATM   28  C   UNK N   1      35.687  13.812   3.363  0.00  0.00     0.095 C 
HETATM   29  C   UNK N   1      34.180  13.867   3.062  0.00  0.00     0.154 C 
BRANCH  27  30
HETATM   30  O   UNK N   1      35.392  14.194   5.697  0.00  0.00    -0.356 OA
BRANCH  30  31
HETATM   31  C   UNK N   1      36.181  14.561   6.825  0.00  0.00     0.125 C 
HETATM   32  C   UNK N   1      37.120  13.519   7.411  0.00  0.00     0.037 C 
HETATM   33  C   UNK N   1      36.345  12.591   8.332  0.00  0.00    -0.004 C 
HETATM   34  C   UNK N   1      35.455  13.339   9.384  0.00  0.00    -0.036 C 
HETATM   35  C   UNK N   1      37.310  11.624   9.028  0.00  0.00     0.006 C 
HETATM   36  C   UNK N   1      34.701  14.533   8.803  0.00  0.00     0.012 C 
HETATM   37  C   UNK N   1      36.247  13.919  10.582  0.00  0.00     0.003 C 
HETATM   38  C   UNK N   1      34.371  12.355   9.824  0.00  0.00     0.016 C 
HETATM   39  C   UNK N   1      35.537  15.420   7.898  0.00  0.00     0.033 C 
HETATM   40  C   UNK N   1      37.318  12.970  11.193  0.00  0.00     0.026 C 
HETATM   41  C   UNK N   1      35.194  14.418  11.607  0.00  0.00     0.038 C 
HETATM   42  C   UNK N   1      38.171  12.343  10.076  0.00  0.00     0.008 C 
HETATM   43  C   UNK N   1      36.720  11.949  12.187  0.00  0.00     0.072 C 
HETATM   44  C   UNK N   1      35.895  12.677  13.306  0.00  0.00     0.021 C 
HETATM   45  C   UNK N   1      37.827  11.185  12.919  0.00  0.00     0.040 C 
HETATM   46  C   UNK N   1      35.574  14.179  13.042  0.00  0.00     0.130 C 
HETATM   47  C   UNK N   1      36.800  12.592  14.532  0.00  0.00     0.030 C 
HETATM   48  C   UNK N   1      34.582  11.915  13.562  0.00  0.00     0.022 C 
HETATM   49  O   UNK N   1      36.641  15.027  13.351  0.00  0.00    -0.395 OA
HETATM   50  H   UNK N   1      37.423  15.600  13.395  0.00  0.00     0.210 HD
HETATM   51  C   UNK N   1      37.510  11.264  14.403  0.00  0.00     0.013 C 
BRANCH  43  52
HETATM   52  O   UNK N   1      35.949  11.004  11.502  0.00  0.00    -0.389 OA
HETATM   53  H   UNK N   1      35.145  10.628  11.109  0.00  0.00     0.210 HD
ENDBRANCH  43  52
BRANCH  47  54
HETATM   54  C   UNK N   1      36.087  12.844  15.838  0.00  0.00    -0.045 A 
HETATM   55  C   UNK N   1      36.062  14.002  16.475  0.00  0.00     0.087 A 
HETATM   56  C   UNK N   1      35.328  13.745  17.683  0.00  0.00     0.283 A 
HETATM   57  O   UNK N   1      34.943  12.460  17.750  0.00  0.00    -0.314 OA
HETATM   58  O   UNK N   1      35.093  14.564  18.543  0.00  0.00    -0.260 OA
HETATM   59  C   UNK N   1      35.356  11.773  16.626  0.00  0.00     0.213 A 
ENDBRANCH  47  54
ENDBRANCH  30  31
ENDBRANCH  27  30
BRANCH  29  60
HETATM   60  O   UNK N   1      33.757  15.189   2.997  0.00  0.00    -0.393 OA
HETATM   61  H   UNK N   1      32.936  15.583   3.328  0.00  0.00     0.210 HD
ENDBRANCH  29  60
ENDBRANCH  22  23
ENDBRANCH   1  22
TORSDOF 11
ENDMDL
MODEL 8
REMARK VINA RESULT:      -9.1      1.561      2.496
REMARK  11 active torsions:
REMARK  status: ('A' for Active; 'I' for Inactive)
REMARK    1  A    between atoms: C_2  and  O_1 
REMARK    2  A    between atoms: C_28  and  O_1 
REMARK    3  A    between atoms: C_12  and  O_26 
REMARK    4  A    between atoms: C_18  and  C_19 
REMARK    5  A    between atoms: C_31  and  O_34 
REMARK    6  A    between atoms: C_32  and  O_37 
REMARK    7  A    between atoms: C_35  and  O_34 
REMARK    8  A    between atoms: C_40  and  O_45 
REMARK    9  A    between atoms: C_44  and  O_45 
REMARK   10  A    between atoms: C_47  and  O_50 
REMARK   11  A    between atoms: C_48  and  O_51 
ROOT
HETATM    1  C   UNK N   1      20.678  14.530   5.021  0.00  0.00     0.263 C 
HETATM    2  O   UNK N   1      21.384  13.332   4.814  0.00  0.00    -0.354 OA
HETATM    3  C   UNK N   1      19.968  14.497   6.383  0.00  0.00     0.095 C 
HETATM    4  C   UNK N   1      20.959  14.234   7.513  0.00  0.00     0.154 C 
HETATM    5  C   UNK N   1      22.171  13.337   7.110  0.00  0.00     0.182 C 
HETATM    6  C   UNK N   1      22.524  13.409   5.622  0.00  0.00     0.152 C 
HETATM    7  O   UNK N   1      21.344  15.436   8.110  0.00  0.00    -0.393 OA
HETATM    8  C   UNK N   1      23.525  12.342   5.224  0.00  0.00     0.042 C 
HETATM    9  H   UNK N   1      21.689  16.268   8.470  0.00  0.00     0.210 HD
ENDROOT
BRANCH   5  10
HETATM   10  O   UNK N   1      23.308  13.691   7.851  0.00  0.00    -0.351 OA
BRANCH  10  11
HETATM   11  C   UNK N   1      23.208  12.950   9.020  0.00  0.00     0.263 C 
HETATM   12  O   UNK N   1      22.116  13.392   9.777  0.00  0.00    -0.354 OA
HETATM   13  C   UNK N   1      21.802  12.309  10.601  0.00  0.00     0.151 C 
HETATM   14  C   UNK N   1      22.882  12.191  11.684  0.00  0.00     0.175 C 
HETATM   15  C   UNK N   1      20.425  12.522  11.199  0.00  0.00     0.042 C 
HETATM   16  C   UNK N   1      24.262  12.047  11.014  0.00  0.00     0.154 C 
HETATM   17  C   UNK N   1      24.460  13.046   9.874  0.00  0.00     0.095 C 
BRANCH  14  18
HETATM   18  O   UNK N   1      22.636  11.068  12.474  0.00  0.00    -0.390 OA
HETATM   19  H   UNK N   1      22.796  10.150  12.208  0.00  0.00     0.210 HD
ENDBRANCH  14  18
BRANCH  16  20
HETATM   20  O   UNK N   1      25.276  12.194  11.959  0.00  0.00    -0.393 OA
HETATM   21  H   UNK N   1      26.191  11.901  11.825  0.00  0.00     0.210 HD
ENDBRANCH  16  20
ENDBRANCH  10  11
ENDBRANCH   5  10
BRANCH   1  22
HETATM   22  O   UNK N   1      21.452  15.665   4.647  0.00  0.00    -0.351 OA
BRANCH  22  23
HETATM   23  C   UNK N   1      20.734  16.877   4.514  0.00  0.00     0.182 C 
HETATM   24  C   UNK N   1      20.887  17.389   3.091  0.00  0.00     0.152 C 
HETATM   25  O   UNK N   1      22.237  17.682   2.726  0.00  0.00    -0.354 OA
HETATM   26  C   UNK N   1      20.264  16.422   2.094  0.00  0.00     0.042 C 
HETATM   27  C   UNK N   1      23.174  17.871   3.794  0.00  0.00     0.263 C 
HETATM   28  C   UNK N   1      22.525  18.725   4.874  0.00  0.00     0.095 C 
HETATM   29  C   UNK N   1      21.271  18.020   5.415  0.00  0.00     0.154 C 
BRANCH  27  30
HETATM   30  O   UNK N   1      23.667  16.683   4.420  0.00  0.00    -0.356 OA
BRANCH  30  31
HETATM   31  C   UNK N   1      24.794  16.772   5.287  0.00  0.00     0.125 C 
HETATM   32  C   UNK N   1      25.831  17.847   5.005  0.00  0.00     0.037 C 
HETATM   33  C   UNK N   1      26.782  17.369   3.920  0.00  0.00    -0.004 C 
HETATM   34  C   UNK N   1      27.371  15.939   4.176  0.00  0.00    -0.036 C 
HETATM   35  C   UNK N   1      27.908  18.393   3.728  0.00  0.00     0.006 C 
HETATM   36  C   UNK N   1      26.337  14.937   4.686  0.00  0.00     0.012 C 
HETATM   37  C   UNK N   1      28.506  15.904   5.231  0.00  0.00     0.003 C 
HETATM   38  C   UNK N   1      27.820  15.397   2.820  0.00  0.00     0.016 C 
HETATM   39  C   UNK N   1      25.425  15.479   5.772  0.00  0.00     0.033 C 
HETATM   40  C   UNK N   1      29.569  17.032   5.101  0.00  0.00     0.026 C 
HETATM   41  C   UNK N   1      29.103  14.471   5.188  0.00  0.00     0.038 C 
HETATM   42  C   UNK N   1      28.877  18.394   4.917  0.00  0.00     0.008 C 
HETATM   43  C   UNK N   1      30.652  16.719   4.044  0.00  0.00     0.072 C 
HETATM   44  C   UNK N   1      31.323  15.329   4.327  0.00  0.00     0.021 C 
HETATM   45  C   UNK N   1      31.786  17.747   4.102  0.00  0.00     0.040 C 
HETATM   46  C   UNK N   1      30.595  14.424   5.366  0.00  0.00     0.130 C 
HETATM   47  C   UNK N   1      32.690  15.700   4.894  0.00  0.00     0.030 C 
HETATM   48  C   UNK N   1      31.490  14.555   3.007  0.00  0.00     0.022 C 
HETATM   49  O   UNK N   1      30.881  14.772   6.688  0.00  0.00    -0.395 OA
HETATM   50  H   UNK N   1      30.934  15.111   7.596  0.00  0.00     0.210 HD
HETATM   51  C   UNK N   1      33.087  16.964   4.167  0.00  0.00     0.013 C 
BRANCH  43  52
HETATM   52  O   UNK N   1      30.103  16.781   2.758  0.00  0.00    -0.389 OA
HETATM   53  H   UNK N   1      29.510  16.534   2.032  0.00  0.00     0.210 HD
ENDBRANCH  43  52
BRANCH  47  54
HETATM   54  C   UNK N   1      33.692  14.571   4.866  0.00  0.00    -0.045 A 
HETATM   55  C   UNK N   1      34.536  14.333   3.877  0.00  0.00     0.087 A 
HETATM   56  C   UNK N   1      35.232  13.138   4.264  0.00  0.00     0.283 A 
HETATM   57  O   UNK N   1      34.794  12.686   5.450  0.00  0.00    -0.314 OA
HETATM   58  O   UNK N   1      36.092  12.590   3.610  0.00  0.00    -0.260 OA
HETATM   59  C   UNK N   1      33.813  13.518   5.951  0.00  0.00     0.213 A 
ENDBRANCH  47  54
ENDBRANCH  30  31
ENDBRANCH  27  30
BRANCH  29  60
HETATM   60  O   UNK N   1      21.484  17.613   6.726  0.00  0.00    -0.393 OA
HETATM   61  H   UNK N   1      21.246  18.065   7.550  0.00  0.00     0.210 HD
ENDBRANCH  29  60
ENDBRANCH  22  23
ENDBRANCH   1  22
TORSDOF 11
ENDMDL
MODEL 9
REMARK VINA RESULT:      -9.0      1.879      3.329
REMARK  11 active torsions:
REMARK  status: ('A' for Active; 'I' for Inactive)
REMARK    1  A    between atoms: C_2  and  O_1 
REMARK    2  A    between atoms: C_28  and  O_1 
REMARK    3  A    between atoms: C_12  and  O_26 
REMARK    4  A    between atoms: C_18  and  C_19 
REMARK    5  A    between atoms: C_31  and  O_34 
REMARK    6  A    between atoms: C_32  and  O_37 
REMARK    7  A    between atoms: C_35  and  O_34 
REMARK    8  A    between atoms: C_40  and  O_45 
REMARK    9  A    between atoms: C_44  and  O_45 
REMARK   10  A    between atoms: C_47  and  O_50 
REMARK   11  A    between atoms: C_48  and  O_51 
ROOT
HETATM    1  C   UNK N   1      20.105  12.826   4.095  0.00  0.00     0.263 C 
HETATM    2  O   UNK N   1      20.323  11.713   4.924  0.00  0.00    -0.354 OA
HETATM    3  C   UNK N   1      19.615  14.020   4.929  0.00  0.00     0.095 C 
HETATM    4  C   UNK N   1      20.599  14.346   6.049  0.00  0.00     0.154 C 
HETATM    5  C   UNK N   1      21.365  13.110   6.614  0.00  0.00     0.182 C 
HETATM    6  C   UNK N   1      21.518  11.967   5.608  0.00  0.00     0.152 C 
HETATM    7  O   UNK N   1      21.448  15.385   5.662  0.00  0.00    -0.393 OA
HETATM    8  C   UNK N   1      22.030  10.698   6.262  0.00  0.00     0.042 C 
HETATM    9  H   UNK N   1      22.102  16.039   5.370  0.00  0.00     0.210 HD
ENDROOT
BRANCH   5  10
HETATM   10  O   UNK N   1      22.643  13.486   7.054  0.00  0.00    -0.351 OA
BRANCH  10  11
HETATM   11  C   UNK N   1      22.766  12.906   8.308  0.00  0.00     0.263 C 
HETATM   12  O   UNK N   1      21.774  13.400   9.165  0.00  0.00    -0.354 OA
HETATM   13  C   UNK N   1      21.655  12.425  10.159  0.00  0.00     0.151 C 
HETATM   14  C   UNK N   1      22.891  12.501  11.065  0.00  0.00     0.175 C 
HETATM   15  C   UNK N   1      20.373  12.659  10.934  0.00  0.00     0.042 C 
HETATM   16  C   UNK N   1      24.161  12.326  10.211  0.00  0.00     0.154 C 
HETATM   17  C   UNK N   1      24.122  13.170   8.936  0.00  0.00     0.095 C 
BRANCH  14  18
HETATM   18  O   UNK N   1      22.836  11.485  12.020  0.00  0.00    -0.390 OA
HETATM   19  H   UNK N   1      23.198  10.593  11.909  0.00  0.00     0.210 HD
ENDBRANCH  14  18
BRANCH  16  20
HETATM   20  O   UNK N   1      25.294  12.642  10.958  0.00  0.00    -0.393 OA
HETATM   21  H   UNK N   1      26.198  12.396  10.706  0.00  0.00     0.210 HD
ENDBRANCH  16  20
ENDBRANCH  10  11
ENDBRANCH   5  10
BRANCH   1  22
HETATM   22  O   UNK N   1      21.164  12.997   3.158  0.00  0.00    -0.351 OA
BRANCH  22  23
HETATM   23  C   UNK N   1      20.846  12.687   1.815  0.00  0.00     0.182 C 
HETATM   24  C   UNK N   1      21.637  11.460   1.389  0.00  0.00     0.152 C 
HETATM   25  O   UNK N   1      23.053  11.644   1.432  0.00  0.00    -0.354 OA
HETATM   26  C   UNK N   1      21.232  10.242   2.206  0.00  0.00     0.042 C 
HETATM   27  C   UNK N   1      23.534  12.994   1.443  0.00  0.00     0.263 C 
HETATM   28  C   UNK N   1      22.740  13.809   0.434  0.00  0.00     0.095 C 
HETATM   29  C   UNK N   1      21.249  13.797   0.808  0.00  0.00     0.154 C 
BRANCH  27  30
HETATM   30  O   UNK N   1      23.470  13.677   2.699  0.00  0.00    -0.356 OA
BRANCH  30  31
HETATM   31  C   UNK N   1      24.413  13.350   3.716  0.00  0.00     0.125 C 
HETATM   32  C   UNK N   1      24.496  14.257   4.933  0.00  0.00     0.037 C 
HETATM   33  C   UNK N   1      25.357  15.468   4.611  0.00  0.00    -0.004 C 
HETATM   34  C   UNK N   1      26.738  15.111   3.961  0.00  0.00    -0.036 C 
HETATM   35  C   UNK N   1      25.554  16.316   5.874  0.00  0.00     0.006 C 
HETATM   36  C   UNK N   1      26.646  14.020   2.897  0.00  0.00     0.012 C 
HETATM   37  C   UNK N   1      27.793  14.590   4.969  0.00  0.00     0.003 C 
HETATM   38  C   UNK N   1      27.212  16.359   3.217  0.00  0.00     0.016 C 
HETATM   39  C   UNK N   1      25.776  12.838   3.286  0.00  0.00     0.033 C 
HETATM   40  C   UNK N   1      27.887  15.384   6.304  0.00  0.00     0.026 C 
HETATM   41  C   UNK N   1      29.136  14.502   4.196  0.00  0.00     0.038 C 
HETATM   42  C   UNK N   1      26.480  15.621   6.880  0.00  0.00     0.008 C 
HETATM   43  C   UNK N   1      28.750  16.660   6.185  0.00  0.00     0.072 C 
HETATM   44  C   UNK N   1      30.174  16.319   5.619  0.00  0.00     0.021 C 
HETATM   45  C   UNK N   1      28.990  17.289   7.561  0.00  0.00     0.040 C 
HETATM   46  C   UNK N   1      30.338  14.895   5.009  0.00  0.00     0.130 C 
HETATM   47  C   UNK N   1      31.080  16.420   6.843  0.00  0.00     0.030 C 
HETATM   48  C   UNK N   1      30.581  17.371   4.571  0.00  0.00     0.022 C 
HETATM   49  O   UNK N   1      30.545  13.908   5.976  0.00  0.00    -0.395 OA
HETATM   50  H   UNK N   1      30.514  13.200   6.639  0.00  0.00     0.210 HD
HETATM   51  C   UNK N   1      30.485  17.529   7.681  0.00  0.00     0.013 C 
BRANCH  43  52
HETATM   52  O   UNK N   1      28.093  17.616   5.403  0.00  0.00    -0.389 OA
HETATM   53  H   UNK N   1      27.500  18.362   5.222  0.00  0.00     0.210 HD
ENDBRANCH  43  52
BRANCH  47  54
HETATM   54  C   UNK N   1      32.547  16.547   6.511  0.00  0.00    -0.045 A 
HETATM   55  C   UNK N   1      33.306  15.566   6.056  0.00  0.00     0.087 A 
HETATM   56  C   UNK N   1      34.621  16.134   5.951  0.00  0.00     0.283 A 
HETATM   57  O   UNK N   1      34.626  17.417   6.346  0.00  0.00    -0.314 OA
HETATM   58  O   UNK N   1      35.608  15.542   5.571  0.00  0.00    -0.260 OA
HETATM   59  C   UNK N   1      33.358  17.811   6.723  0.00  0.00     0.213 A 
ENDBRANCH  47  54
ENDBRANCH  30  31
ENDBRANCH  27  30
BRANCH  29  60
HETATM   60  O   UNK N   1      20.853  15.063   1.221  0.00  0.00    -0.393 OA
HETATM   61  H   UNK N   1      21.276  15.655   1.861  0.00  0.00     0.210 HD
ENDBRANCH  29  60
ENDBRANCH  22  23
ENDBRANCH   1  22
TORSDOF 11
ENDMDL
