REMARK  14 active torsions:
REMARK  status: ('A' for Active; 'I' for Inactive)
REMARK    1  A    between atoms: C_1  and  O_7 
REMARK    2  A    between atoms: C_2  and  O_8 
REMARK    3  A    between atoms: C_3  and  O_23 
REMARK    4  A    between atoms: C_4  and  O_22 
REMARK    5  A    between atoms: C_5  and  O_7 
REMARK    6  A    between atoms: C_6  and  N_21 
REMARK    7  A    between atoms: C_9  and  O_8 
REMARK    8  A    between atoms: C_10  and  O_26 
REMARK    9  A    between atoms: C_12  and  N_24 
REMARK   10  A    between atoms: C_13  and  N_25 
REMARK   11  A    between atoms: C_30  and  C_16 
REMARK   12  A    between atoms: C_19  and  N_27 
REMARK   13  A    between atoms: C_31  and  N_24 
REMARK   14  A    between atoms: N_28  and  C_30 
ROOT
HETATM    1  C   UNK N   1      -1.071   0.794  -0.907  0.00  0.00     0.178 C 
HETATM    2  C   UNK N   1       0.909   2.219  -0.091  0.00  0.00     0.178 C 
HETATM    3  C   UNK N   1       0.329   0.795  -0.260  0.00  0.00     0.180 C 
HETATM    4  C   UNK N   1      -2.039   1.728  -0.180  0.00  0.00     0.110 C 
HETATM    5  C   UNK N   1      -0.125   3.161   0.539  0.00  0.00     0.107 C 
HETATM    6  C   UNK N   1      -1.449   3.136  -0.210  0.00  0.00     0.054 C 
ENDROOT
BRANCH   1   7
HETATM    7  O   UNK N   1      -1.649  -0.483  -1.135  0.00  0.00    -0.349 OA
BRANCH   7   8
HETATM    8  C   UNK N   1      -1.267  -1.439  -0.165  0.00  0.00     0.291 C 
HETATM    9  C   UNK N   1      -1.467  -2.860  -0.716  0.00  0.00     0.198 C 
HETATM   10  C   UNK N   1      -2.814  -3.479  -0.280  0.00  0.00     0.146 C 
HETATM   11  C   UNK N   1      -3.860  -2.361  -0.126  0.00  0.00     0.098 C 
HETATM   12  C   UNK N   1      -3.359  -1.318   0.895  0.00  0.00     0.210 C 
HETATM   13  C   UNK N   1      -5.198  -2.905   0.340  0.00  0.00     0.050 C 
HETATM   14  O   UNK N   1      -1.947  -1.261   1.063  0.00  0.00    -0.356 OA
BRANCH   9  15
HETATM   15  O   UNK N   1      -0.396  -3.687  -0.369  0.00  0.00    -0.388 OA
HETATM   16  H   UNK N   1      -0.522  -4.618  -0.128  0.00  0.00     0.210 HD
ENDBRANCH   9  15
BRANCH  10  17
HETATM   17  N   UNK N   1      -2.662  -4.208   0.977  0.00  0.00    -0.416 N 
HETATM   18  C   UNK N   1      -3.293  -5.503   0.793  0.00  0.00     0.140 C 
HETATM   19  H   UNK N   1      -2.200  -3.871   1.822  0.00  0.00     0.153 HD
ENDBRANCH  10  17
BRANCH  11  20
HETATM   20  O   UNK N   1      -4.059  -1.738  -1.360  0.00  0.00    -0.386 OA
HETATM   21  H   UNK N   1      -3.753  -1.401  -2.217  0.00  0.00     0.210 HD
ENDBRANCH  11  20
ENDBRANCH   7   8
ENDBRANCH   1   7
BRANCH   3  22
HETATM   22  O   UNK N   1       1.181   0.022  -1.052  0.00  0.00    -0.390 OA
HETATM   23  H   UNK N   1       1.011  -0.758  -1.603  0.00  0.00     0.210 HD
ENDBRANCH   3  22
BRANCH   4  24
HETATM   24  N   UNK N   1      -3.336   1.719  -0.851  0.00  0.00    -0.415 N 
HETATM   25  H   UNK N   1      -3.527   1.320  -1.770  0.00  0.00     0.153 HD
BRANCH  24  26
HETATM   26  C   UNK N   1      -4.314   2.376   0.009  0.00  0.00     0.110 C 
HETATM   27  C   UNK N   1      -5.043   1.353   0.857  0.00  0.00     0.026 C 
ENDBRANCH  24  26
ENDBRANCH   4  24
BRANCH   2  28
HETATM   28  O   UNK N   1       2.024   2.194   0.768  0.00  0.00    -0.349 OA
BRANCH  28  29
HETATM   29  C   UNK N   1       3.141   1.804   0.021  0.00  0.00     0.288 C 
HETATM   30  O   UNK N   1       3.439   0.491   0.331  0.00  0.00    -0.321 OA
HETATM   31  C   UNK N   1       4.633  -0.090   0.032  0.00  0.00     0.063 C 
HETATM   32  C   UNK N   1       5.675   0.662  -0.354  0.00  0.00     0.009 C 
HETATM   33  C   UNK N   1       5.552   2.162  -0.460  0.00  0.00     0.059 C 
HETATM   34  C   UNK N   1       4.347   2.690   0.324  0.00  0.00     0.133 C 
BRANCH  31  35
HETATM   35  C   UNK N   1       4.795  -1.573   0.157  0.00  0.00     0.175 C 
BRANCH  35  36
HETATM   36  N   UNK N   1       3.549  -2.199   0.572  0.00  0.00    -0.425 N 
HETATM   37  H   UNK N   1       2.732  -1.662   0.862  0.00  0.00     0.150 HD
HETATM   38  H   UNK N   1       3.491  -3.217   0.572  0.00  0.00     0.150 HD
ENDBRANCH  35  36
ENDBRANCH  31  35
BRANCH  34  39
HETATM   39  N   UNK N   1       4.079   4.064  -0.061  0.00  0.00    -0.422 N 
HETATM   40  H   UNK N   1       4.821   4.710  -0.332  0.00  0.00     0.150 HD
HETATM   41  H   UNK N   1       3.115   4.396  -0.061  0.00  0.00     0.150 HD
ENDBRANCH  34  39
ENDBRANCH  28  29
ENDBRANCH   2  28
BRANCH   5  42
HETATM   42  N   UNK N   1       0.388   4.520   0.555  0.00  0.00    -0.423 N 
HETATM   43  H   UNK N   1       1.395   4.685   0.566  0.00  0.00     0.150 HD
HETATM   44  H   UNK N   1      -0.258   5.309   0.555  0.00  0.00     0.150 HD
ENDBRANCH   5  42
TORSDOF 14
