MODEL 1
REMARK VINA RESULT:      -7.9      0.000      0.000
REMARK  10 active torsions:
REMARK  status: ('A' for Active; 'I' for Inactive)
REMARK    1  A    between atoms: C_2  and  C_3 
REMARK    2  A    between atoms: C_4  and  C_5 
REMARK    3  A    between atoms: C_19  and  C_7 
REMARK    4  A    between atoms: N_23  and  C_19 
REMARK    5  A    between atoms: C_20  and  C_24 
REMARK    6  A    between atoms: C_24  and  C_25 
REMARK    7  A    between atoms: C_27  and  C_28 
REMARK    8  A    between atoms: C_28  and  O_30 
REMARK    9  A    between atoms: C_31  and  C_32 
REMARK   10  A    between atoms: C_32  and  O_35 
ROOT
HETATM    1  C   UNK N   1      34.664  12.068  14.422  0.00  0.00     0.013 A 
HETATM    2  C   UNK N   1      35.431  12.755  15.374  0.00  0.00    -0.025 A 
HETATM    3  C   UNK N   1      35.823  13.191  12.634  0.00  0.00    -0.040 A 
HETATM    4  C   UNK N   1      34.873  12.266  13.059  0.00  0.00     0.010 A 
HETATM    5  C   UNK N   1      36.305  13.757  14.937  0.00  0.00     0.013 A 
HETATM    6  C   UNK N   1      36.517  13.951  13.576  0.00  0.00     0.010 A 
ENDROOT
BRANCH   3   7
HETATM    7  C   UNK N   1      36.303  13.140  11.226  0.00  0.00     0.169 C 
BRANCH   7   8
HETATM    8  N   UNK N   1      35.371  13.605  10.205  0.00  0.00    -0.325 N 
HETATM    9  C   UNK N   1      34.553  12.859   9.435  0.00  0.00     0.084 A 
HETATM   10  N   UNK N   1      33.747  13.616   8.674  0.00  0.00    -0.345 N 
HETATM   11  C   UNK N   1      34.050  14.901   8.967  0.00  0.00     0.078 A 
ATOM     12  HN  UNK N   1      33.047  13.288   8.008  1.00  0.00     0.167 HD
HETATM   13  C   UNK N   1      35.088  14.900   9.928  0.00  0.00     0.136 A 
BRANCH   9  14
HETATM   14  C   UNK N   1      34.489  11.368   9.442  0.00  0.00     0.076 C 
BRANCH  14  15
HETATM   15  C   UNK N   1      33.103  10.908   9.860  0.00  0.00     0.003 C 
HETATM   16  C   UNK N   1      33.223   9.770  10.853  0.00  0.00     0.005 C 
ENDBRANCH  14  15
ENDBRANCH   9  14
BRANCH  11  17
HETATM   17  C   UNK N   1      33.262  16.008   8.289  0.00  0.00     0.095 C 
HETATM   18  C   UNK N   1      32.069  15.602   7.460  0.00  0.00     0.052 C 
HETATM   19  C   UNK N   1      34.205  16.756   7.364  0.00  0.00     0.052 C 
BRANCH  17  20
HETATM   20  O   UNK N   1      32.813  16.892   9.269  0.00  0.00    -0.384 OA
HETATM   21  H   UNK N   1      32.973  17.440  10.052  0.00  0.00     0.211 HD
ENDBRANCH  17  20
ENDBRANCH  11  17
BRANCH  13  22
HETATM   22  C   UNK N   1      35.790  16.036  10.615  0.00  0.00     0.196 C 
HETATM   23  O   UNK N   1      35.179  16.979  11.075  0.00  0.00    -0.645 OA
BRANCH  22  24
HETATM   24  O   UNK N   1      37.133  16.032  10.729  0.00  0.00    -0.772 OA
HETATM   25  H   UNK N   1      37.596  15.323  11.130  0.00  0.00     0.167 HD
ENDBRANCH  22  24
ENDBRANCH  13  22
ENDBRANCH   7   8
ENDBRANCH   3   7
BRANCH   2  26
HETATM   26  C   UNK N   1      35.417  12.391  16.820  0.00  0.00    -0.012 A 
HETATM   27  C   UNK N   1      35.153  13.419  17.744  0.00  0.00     0.013 A 
HETATM   28  C   UNK N   1      35.116  13.171  19.113  0.00  0.00     0.001 A 
HETATM   29  C   UNK N   1      35.335  11.883  19.592  0.00  0.00     0.001 A 
HETATM   30  C   UNK N   1      35.621  10.849  18.704  0.00  0.00     0.016 A 
HETATM   31  C   UNK N   1      35.692  11.073  17.320  0.00  0.00     0.021 A 
BRANCH  31  32
HETATM   32  C   UNK N   1      36.159   9.925  16.492  0.00  0.00     0.142 A 
HETATM   33  N   UNK N   1      37.362   9.862  15.896  0.00  0.00    -0.270 N 
HETATM   34  N   UNK N   1      37.364   8.726  15.215  0.00  0.00    -0.007 NA
ATOM     35  HN  UNK N   1      38.115  10.547  15.954  1.00  0.00     0.185 HD
HETATM   36  N   UNK N   1      36.197   8.122  15.361  0.00  0.00    -0.007 NA
HETATM   37  N   UNK N   1      35.421   8.855  16.140  0.00  0.00    -0.270 N 
HETATM   38  H   UNK N   1      34.495   8.659  16.409  0.00  0.00     0.185 HD
ENDBRANCH  31  32
ENDBRANCH   2  26
TORSDOF 10
ENDMDL
MODEL 2
REMARK VINA RESULT:      -7.9      5.088     11.526
REMARK  10 active torsions:
REMARK  status: ('A' for Active; 'I' for Inactive)
REMARK    1  A    between atoms: C_2  and  C_3 
REMARK    2  A    between atoms: C_4  and  C_5 
REMARK    3  A    between atoms: C_19  and  C_7 
REMARK    4  A    between atoms: N_23  and  C_19 
REMARK    5  A    between atoms: C_20  and  C_24 
REMARK    6  A    between atoms: C_24  and  C_25 
REMARK    7  A    between atoms: C_27  and  C_28 
REMARK    8  A    between atoms: C_28  and  O_30 
REMARK    9  A    between atoms: C_31  and  C_32 
REMARK   10  A    between atoms: C_32  and  O_35 
ROOT
HETATM    1  C   UNK N   1      31.383  17.273   3.620  0.00  0.00     0.013 A 
HETATM    2  C   UNK N   1      30.263  16.817   4.330  0.00  0.00    -0.025 A 
HETATM    3  C   UNK N   1      32.760  17.039   5.581  0.00  0.00    -0.040 A 
HETATM    4  C   UNK N   1      32.630  17.362   4.233  0.00  0.00     0.010 A 
HETATM    5  C   UNK N   1      30.384  16.599   5.706  0.00  0.00     0.013 A 
HETATM    6  C   UNK N   1      31.630  16.683   6.318  0.00  0.00     0.010 A 
ENDROOT
BRANCH   3   7
HETATM    7  C   UNK N   1      34.117  16.779   6.135  0.00  0.00     0.169 C 
BRANCH   7   8
HETATM    8  N   UNK N   1      34.210  15.765   7.179  0.00  0.00    -0.325 N 
HETATM    9  C   UNK N   1      34.303  14.429   7.024  0.00  0.00     0.084 A 
HETATM   10  N   UNK N   1      34.482  13.796   8.194  0.00  0.00    -0.345 N 
HETATM   11  C   UNK N   1      34.512  14.760   9.142  0.00  0.00     0.078 A 
ATOM     12  HN  UNK N   1      34.575  12.791   8.339  1.00  0.00     0.167 HD
HETATM   13  C   UNK N   1      34.328  16.009   8.506  0.00  0.00     0.136 A 
BRANCH   9  14
HETATM   14  C   UNK N   1      34.268  13.711   5.716  0.00  0.00     0.076 C 
BRANCH  14  15
HETATM   15  C   UNK N   1      32.844  13.295   5.389  0.00  0.00     0.003 C 
HETATM   16  C   UNK N   1      32.521  13.672   3.957  0.00  0.00     0.005 C 
ENDBRANCH  14  15
ENDBRANCH   9  14
BRANCH  11  17
HETATM   17  C   UNK N   1      34.751  14.354  10.586  0.00  0.00     0.095 C 
HETATM   18  C   UNK N   1      35.993  14.884  11.259  0.00  0.00     0.052 C 
HETATM   19  C   UNK N   1      34.837  12.839  10.639  0.00  0.00     0.052 C 
BRANCH  17  20
HETATM   20  O   UNK N   1      33.655  14.761  11.345  0.00  0.00    -0.384 OA
HETATM   21  H   UNK N   1      33.205  15.419  11.896  0.00  0.00     0.211 HD
ENDBRANCH  17  20
ENDBRANCH  11  17
BRANCH  13  22
HETATM   22  C   UNK N   1      34.294  17.402   9.068  0.00  0.00     0.196 C 
HETATM   23  O   UNK N   1      35.295  17.944   9.491  0.00  0.00    -0.645 OA
BRANCH  22  24
HETATM   24  O   UNK N   1      33.132  18.083   9.120  0.00  0.00    -0.772 OA
HETATM   25  H   UNK N   1      32.517  17.964   9.816  0.00  0.00     0.167 HD
ENDBRANCH  22  24
ENDBRANCH  13  22
ENDBRANCH   7   8
ENDBRANCH   3   7
BRANCH   2  26
HETATM   26  C   UNK N   1      28.980  16.469   3.654  0.00  0.00    -0.012 A 
HETATM   27  C   UNK N   1      28.997  15.391   2.750  0.00  0.00     0.013 A 
HETATM   28  C   UNK N   1      27.847  14.993   2.075  0.00  0.00     0.001 A 
HETATM   29  C   UNK N   1      26.646  15.660   2.295  0.00  0.00     0.001 A 
HETATM   30  C   UNK N   1      26.602  16.746   3.167  0.00  0.00     0.016 A 
HETATM   31  C   UNK N   1      27.751  17.188   3.841  0.00  0.00     0.021 A 
BRANCH  31  32
HETATM   32  C   UNK N   1      27.610  18.450   4.621  0.00  0.00     0.142 A 
HETATM   33  N   UNK N   1      28.022  19.655   4.191  0.00  0.00    -0.270 N 
HETATM   34  N   UNK N   1      27.775  20.493   5.187  0.00  0.00    -0.007 NA
ATOM     35  HN  UNK N   1      28.440  19.878   3.287  1.00  0.00     0.185 HD
HETATM   36  N   UNK N   1      27.256  19.828   6.204  0.00  0.00    -0.007 NA
HETATM   37  N   UNK N   1      27.155  18.550   5.884  0.00  0.00    -0.270 N 
HETATM   38  H   UNK N   1      26.817  17.821   6.452  0.00  0.00     0.185 HD
ENDBRANCH  31  32
ENDBRANCH   2  26
TORSDOF 10
ENDMDL
MODEL 3
REMARK VINA RESULT:      -7.6      4.755      7.552
REMARK  10 active torsions:
REMARK  status: ('A' for Active; 'I' for Inactive)
REMARK    1  A    between atoms: C_2  and  C_3 
REMARK    2  A    between atoms: C_4  and  C_5 
REMARK    3  A    between atoms: C_19  and  C_7 
REMARK    4  A    between atoms: N_23  and  C_19 
REMARK    5  A    between atoms: C_20  and  C_24 
REMARK    6  A    between atoms: C_24  and  C_25 
REMARK    7  A    between atoms: C_27  and  C_28 
REMARK    8  A    between atoms: C_28  and  O_30 
REMARK    9  A    between atoms: C_31  and  C_32 
REMARK   10  A    between atoms: C_32  and  O_35 
ROOT
HETATM    1  C   UNK N   1      33.045  14.795   8.976  0.00  0.00     0.013 A 
HETATM    2  C   UNK N   1      34.398  15.160   8.907  0.00  0.00    -0.025 A 
HETATM    3  C   UNK N   1      32.380  17.098   8.751  0.00  0.00    -0.040 A 
HETATM    4  C   UNK N   1      32.040  15.754   8.876  0.00  0.00     0.010 A 
HETATM    5  C   UNK N   1      34.725  16.520   8.890  0.00  0.00     0.013 A 
HETATM    6  C   UNK N   1      33.722  17.478   8.785  0.00  0.00     0.010 A 
ENDROOT
BRANCH   3   7
HETATM    7  C   UNK N   1      31.349  18.064   8.281  0.00  0.00     0.169 C 
BRANCH   7   8
HETATM    8  N   UNK N   1      30.333  17.541   7.377  0.00  0.00    -0.325 N 
HETATM    9  C   UNK N   1      30.488  17.166   6.091  0.00  0.00     0.084 A 
HETATM   10  N   UNK N   1      29.368  16.627   5.583  0.00  0.00    -0.345 N 
HETATM   11  C   UNK N   1      28.456  16.646   6.581  0.00  0.00     0.078 A 
ATOM     12  HN  UNK N   1      29.233  16.274   4.636  1.00  0.00     0.167 HD
HETATM   13  C   UNK N   1      29.058  17.236   7.716  0.00  0.00     0.136 A 
BRANCH   9  14
HETATM   14  C   UNK N   1      31.755  17.277   5.310  0.00  0.00     0.076 C 
BRANCH  14  15
HETATM   15  C   UNK N   1      32.444  15.926   5.242  0.00  0.00     0.003 C 
HETATM   16  C   UNK N   1      33.946  16.117   5.318  0.00  0.00     0.005 C 
ENDBRANCH  14  15
ENDBRANCH   9  14
BRANCH  11  17
HETATM   17  C   UNK N   1      27.082  16.051   6.324  0.00  0.00     0.095 C 
HETATM   18  C   UNK N   1      27.026  14.703   5.647  0.00  0.00     0.052 C 
HETATM   19  C   UNK N   1      26.310  17.016   5.442  0.00  0.00     0.052 C 
BRANCH  17  20
HETATM   20  O   UNK N   1      26.416  15.938   7.543  0.00  0.00    -0.384 OA
HETATM   21  H   UNK N   1      26.312  16.179   8.476  0.00  0.00     0.211 HD
ENDBRANCH  17  20
ENDBRANCH  11  17
BRANCH  13  22
HETATM   22  C   UNK N   1      28.515  17.490   9.095  0.00  0.00     0.196 C 
HETATM   23  O   UNK N   1      28.971  16.933  10.072  0.00  0.00    -0.645 OA
BRANCH  22  24
HETATM   24  O   UNK N   1      27.493  18.350   9.272  0.00  0.00    -0.772 OA
HETATM   25  H   UNK N   1      26.746  18.358   8.706  0.00  0.00     0.167 HD
ENDBRANCH  22  24
ENDBRANCH  13  22
ENDBRANCH   7   8
ENDBRANCH   3   7
BRANCH   2  26
HETATM   26  C   UNK N   1      35.487  14.153   8.756  0.00  0.00    -0.012 A 
HETATM   27  C   UNK N   1      35.818  13.749   7.450  0.00  0.00     0.013 A 
HETATM   28  C   UNK N   1      36.824  12.816   7.213  0.00  0.00     0.001 A 
HETATM   29  C   UNK N   1      37.530  12.270   8.280  0.00  0.00     0.001 A 
HETATM   30  C   UNK N   1      37.209  12.632   9.586  0.00  0.00     0.016 A 
HETATM   31  C   UNK N   1      36.183  13.550   9.858  0.00  0.00     0.021 A 
BRANCH  31  32
HETATM   32  C   UNK N   1      35.833  13.737  11.295  0.00  0.00     0.142 A 
HETATM   33  N   UNK N   1      36.613  14.372  12.187  0.00  0.00    -0.270 N 
HETATM   34  N   UNK N   1      35.983  14.270  13.348  0.00  0.00    -0.007 NA
ATOM     35  HN  UNK N   1      37.504  14.834  12.008  1.00  0.00     0.185 HD
HETATM   36  N   UNK N   1      34.870  13.574  13.187  0.00  0.00    -0.007 NA
HETATM   37  N   UNK N   1      34.760  13.217  11.919  0.00  0.00    -0.270 N 
HETATM   38  H   UNK N   1      34.040  12.682  11.514  0.00  0.00     0.185 HD
ENDBRANCH  31  32
ENDBRANCH   2  26
TORSDOF 10
ENDMDL
MODEL 4
REMARK VINA RESULT:      -7.6      5.305     10.516
REMARK  10 active torsions:
REMARK  status: ('A' for Active; 'I' for Inactive)
REMARK    1  A    between atoms: C_2  and  C_3 
REMARK    2  A    between atoms: C_4  and  C_5 
REMARK    3  A    between atoms: C_19  and  C_7 
REMARK    4  A    between atoms: N_23  and  C_19 
REMARK    5  A    between atoms: C_20  and  C_24 
REMARK    6  A    between atoms: C_24  and  C_25 
REMARK    7  A    between atoms: C_27  and  C_28 
REMARK    8  A    between atoms: C_28  and  O_30 
REMARK    9  A    between atoms: C_31  and  C_32 
REMARK   10  A    between atoms: C_32  and  O_35 
ROOT
HETATM    1  C   UNK N   1      29.441  16.538   6.037  0.00  0.00     0.013 A 
HETATM    2  C   UNK N   1      29.442  17.748   5.328  0.00  0.00    -0.025 A 
HETATM    3  C   UNK N   1      31.620  15.994   5.170  0.00  0.00    -0.040 A 
HETATM    4  C   UNK N   1      30.533  15.674   5.977  0.00  0.00     0.010 A 
HETATM    5  C   UNK N   1      30.491  18.005   4.440  0.00  0.00     0.013 A 
HETATM    6  C   UNK N   1      31.584  17.146   4.384  0.00  0.00     0.010 A 
ENDROOT
BRANCH   3   7
HETATM    7  C   UNK N   1      32.912  15.284   5.382  0.00  0.00     0.169 C 
BRANCH   7   8
HETATM    8  N   UNK N   1      33.211  14.875   6.750  0.00  0.00    -0.325 N 
HETATM    9  C   UNK N   1      33.316  13.619   7.230  0.00  0.00     0.084 A 
HETATM   10  N   UNK N   1      33.711  13.601   8.513  0.00  0.00    -0.345 N 
HETATM   11  C   UNK N   1      33.874  14.893   8.875  0.00  0.00     0.078 A 
ATOM     12  HN  UNK N   1      33.857  12.777   9.096  1.00  0.00     0.167 HD
HETATM   13  C   UNK N   1      33.547  15.706   7.765  0.00  0.00     0.136 A 
BRANCH   9  14
HETATM   14  C   UNK N   1      33.079  12.375   6.441  0.00  0.00     0.076 C 
BRANCH  14  15
HETATM   15  C   UNK N   1      34.335  11.521   6.425  0.00  0.00     0.003 C 
HETATM   16  C   UNK N   1      35.400  12.198   5.585  0.00  0.00     0.005 C 
ENDBRANCH  14  15
ENDBRANCH   9  14
BRANCH  11  17
HETATM   17  C   UNK N   1      34.368  15.199  10.278  0.00  0.00     0.095 C 
HETATM   18  C   UNK N   1      35.104  16.500  10.486  0.00  0.00     0.052 C 
HETATM   19  C   UNK N   1      35.316  14.089  10.695  0.00  0.00     0.052 C 
BRANCH  17  20
HETATM   20  O   UNK N   1      33.274  15.192  11.141  0.00  0.00    -0.384 OA
HETATM   21  H   UNK N   1      32.519  15.638  11.555  0.00  0.00     0.211 HD
ENDBRANCH  17  20
ENDBRANCH  11  17
BRANCH  13  22
HETATM   22  C   UNK N   1      33.569  17.200   7.602  0.00  0.00     0.196 C 
HETATM   23  O   UNK N   1      34.506  17.771   7.084  0.00  0.00    -0.645 OA
BRANCH  22  24
HETATM   24  O   UNK N   1      32.534  17.943   8.040  0.00  0.00    -0.772 OA
HETATM   25  H   UNK N   1      32.456  18.209   8.935  0.00  0.00     0.167 HD
ENDBRANCH  22  24
ENDBRANCH  13  22
ENDBRANCH   7   8
ENDBRANCH   3   7
BRANCH   2  26
HETATM   26  C   UNK N   1      28.417  18.806   5.560  0.00  0.00    -0.012 A 
HETATM   27  C   UNK N   1      27.912  19.477   4.431  0.00  0.00     0.013 A 
HETATM   28  C   UNK N   1      26.951  20.476   4.551  0.00  0.00     0.001 A 
HETATM   29  C   UNK N   1      26.463  20.824   5.807  0.00  0.00     0.001 A 
HETATM   30  C   UNK N   1      26.960  20.194   6.947  0.00  0.00     0.016 A 
HETATM   31  C   UNK N   1      27.949  19.201   6.859  0.00  0.00     0.021 A 
BRANCH  31  32
HETATM   32  C   UNK N   1      28.509  18.717   8.153  0.00  0.00     0.142 A 
HETATM   33  N   UNK N   1      27.780  18.133   9.120  0.00  0.00    -0.270 N 
HETATM   34  N   UNK N   1      28.624  17.910  10.117  0.00  0.00    -0.007 NA
ATOM     35  HN  UNK N   1      26.785  17.909   9.094  1.00  0.00     0.185 HD
HETATM   36  N   UNK N   1      29.822  18.363   9.790  0.00  0.00    -0.007 NA
HETATM   37  N   UNK N   1      29.775  18.886   8.577  0.00  0.00    -0.270 N 
HETATM   38  H   UNK N   1      30.514  19.309   8.085  0.00  0.00     0.185 HD
ENDBRANCH  31  32
ENDBRANCH   2  26
TORSDOF 10
ENDMDL
MODEL 5
REMARK VINA RESULT:      -7.5     12.232     14.046
REMARK  10 active torsions:
REMARK  status: ('A' for Active; 'I' for Inactive)
REMARK    1  A    between atoms: C_2  and  C_3 
REMARK    2  A    between atoms: C_4  and  C_5 
REMARK    3  A    between atoms: C_19  and  C_7 
REMARK    4  A    between atoms: N_23  and  C_19 
REMARK    5  A    between atoms: C_20  and  C_24 
REMARK    6  A    between atoms: C_24  and  C_25 
REMARK    7  A    between atoms: C_27  and  C_28 
REMARK    8  A    between atoms: C_28  and  O_30 
REMARK    9  A    between atoms: C_31  and  C_32 
REMARK   10  A    between atoms: C_32  and  O_35 
ROOT
HETATM    1  C   UNK N   1      25.285  14.745   8.013  0.00  0.00     0.013 A 
HETATM    2  C   UNK N   1      24.748  13.452   8.108  0.00  0.00    -0.025 A 
HETATM    3  C   UNK N   1      25.564  14.487   5.636  0.00  0.00    -0.040 A 
HETATM    4  C   UNK N   1      25.670  15.269   6.782  0.00  0.00     0.010 A 
HETATM    5  C   UNK N   1      24.747  12.641   6.969  0.00  0.00     0.013 A 
HETATM    6  C   UNK N   1      25.127  13.166   5.738  0.00  0.00     0.010 A 
ENDROOT
BRANCH   3   7
HETATM    7  C   UNK N   1      25.619  15.147   4.302  0.00  0.00     0.169 C 
BRANCH   7   8
HETATM    8  N   UNK N   1      24.884  16.398   4.165  0.00  0.00    -0.325 N 
HETATM    9  C   UNK N   1      25.384  17.625   3.918  0.00  0.00     0.084 A 
HETATM   10  N   UNK N   1      24.417  18.540   3.744  0.00  0.00    -0.345 N 
HETATM   11  C   UNK N   1      23.246  17.878   3.877  0.00  0.00     0.078 A 
ATOM     12  HN  UNK N   1      24.541  19.534   3.552  1.00  0.00     0.167 HD
HETATM   13  C   UNK N   1      23.535  16.523   4.156  0.00  0.00     0.136 A 
BRANCH   9  14
HETATM   14  C   UNK N   1      26.835  17.953   3.794  0.00  0.00     0.076 C 
BRANCH  14  15
HETATM   15  C   UNK N   1      27.345  18.554   5.092  0.00  0.00     0.003 C 
HETATM   16  C   UNK N   1      27.669  20.020   4.881  0.00  0.00     0.005 C 
ENDBRANCH  14  15
ENDBRANCH   9  14
BRANCH  11  17
HETATM   17  C   UNK N   1      21.949  18.646   3.685  0.00  0.00     0.095 C 
HETATM   18  C   UNK N   1      20.901  18.025   2.795  0.00  0.00     0.052 C 
HETATM   19  C   UNK N   1      22.290  19.998   3.084  0.00  0.00     0.052 C 
BRANCH  17  20
HETATM   20  O   UNK N   1      21.371  18.853   4.936  0.00  0.00    -0.384 OA
HETATM   21  H   UNK N   1      21.164  19.429   5.688  0.00  0.00     0.211 HD
ENDBRANCH  17  20
ENDBRANCH  11  17
BRANCH  13  22
HETATM   22  C   UNK N   1      22.623  15.348   4.375  0.00  0.00     0.196 C 
HETATM   23  O   UNK N   1      22.285  14.624   3.462  0.00  0.00    -0.645 OA
BRANCH  22  24
HETATM   24  O   UNK N   1      22.151  15.079   5.608  0.00  0.00    -0.772 OA
HETATM   25  H   UNK N   1      21.899  15.757   6.204  0.00  0.00     0.167 HD
ENDBRANCH  22  24
ENDBRANCH  13  22
ENDBRANCH   7   8
ENDBRANCH   3   7
BRANCH   2  26
HETATM   26  C   UNK N   1      24.095  12.952   9.352  0.00  0.00    -0.012 A 
HETATM   27  C   UNK N   1      24.929  12.412  10.348  0.00  0.00     0.013 A 
HETATM   28  C   UNK N   1      24.409  11.924  11.543  0.00  0.00     0.001 A 
HETATM   29  C   UNK N   1      23.038  11.971  11.775  0.00  0.00     0.001 A 
HETATM   30  C   UNK N   1      22.183  12.478  10.798  0.00  0.00     0.016 A 
HETATM   31  C   UNK N   1      22.676  12.953   9.572  0.00  0.00     0.021 A 
BRANCH  31  32
HETATM   32  C   UNK N   1      21.653  13.323   8.552  0.00  0.00     0.142 A 
HETATM   33  N   UNK N   1      20.902  14.437   8.604  0.00  0.00    -0.270 N 
HETATM   34  N   UNK N   1      20.086  14.366   7.563  0.00  0.00    -0.007 NA
ATOM     35  HN  UNK N   1      20.950  15.181   9.300  1.00  0.00     0.185 HD
HETATM   36  N   UNK N   1      20.304  13.238   6.908  0.00  0.00    -0.007 NA
HETATM   37  N   UNK N   1      21.266  12.562   7.513  0.00  0.00    -0.270 N 
HETATM   38  H   UNK N   1      21.625  11.683   7.254  0.00  0.00     0.185 HD
ENDBRANCH  31  32
ENDBRANCH   2  26
TORSDOF 10
ENDMDL
MODEL 6
REMARK VINA RESULT:      -7.4     12.412     15.902
REMARK  10 active torsions:
REMARK  status: ('A' for Active; 'I' for Inactive)
REMARK    1  A    between atoms: C_2  and  C_3 
REMARK    2  A    between atoms: C_4  and  C_5 
REMARK    3  A    between atoms: C_19  and  C_7 
REMARK    4  A    between atoms: N_23  and  C_19 
REMARK    5  A    between atoms: C_20  and  C_24 
REMARK    6  A    between atoms: C_24  and  C_25 
REMARK    7  A    between atoms: C_27  and  C_28 
REMARK    8  A    between atoms: C_28  and  O_30 
REMARK    9  A    between atoms: C_31  and  C_32 
REMARK   10  A    between atoms: C_32  and  O_35 
ROOT
HETATM    1  C   UNK N   1      22.345  18.135   5.860  0.00  0.00     0.013 A 
HETATM    2  C   UNK N   1      22.870  17.941   4.574  0.00  0.00    -0.025 A 
HETATM    3  C   UNK N   1      21.015  16.140   5.652  0.00  0.00    -0.040 A 
HETATM    4  C   UNK N   1      21.440  17.228   6.407  0.00  0.00     0.010 A 
HETATM    5  C   UNK N   1      22.354  16.905   3.788  0.00  0.00     0.013 A 
HETATM    6  C   UNK N   1      21.454  15.997   4.335  0.00  0.00     0.010 A 
ENDROOT
BRANCH   3   7
HETATM    7  C   UNK N   1      20.357  14.995   6.340  0.00  0.00     0.169 C 
BRANCH   7   8
HETATM    8  N   UNK N   1      20.967  14.548   7.586  0.00  0.00    -0.325 N 
HETATM    9  C   UNK N   1      20.468  14.661   8.834  0.00  0.00     0.084 A 
HETATM   10  N   UNK N   1      21.240  14.045   9.744  0.00  0.00    -0.345 N 
HETATM   11  C   UNK N   1      22.274  13.508   9.058  0.00  0.00     0.078 A 
ATOM     12  HN  UNK N   1      21.079  13.994  10.750  1.00  0.00     0.167 HD
HETATM   13  C   UNK N   1      22.112  13.835   7.692  0.00  0.00     0.136 A 
BRANCH   9  14
HETATM   14  C   UNK N   1      19.186  15.338   9.190  0.00  0.00     0.076 C 
BRANCH  14  15
HETATM   15  C   UNK N   1      19.344  16.844   9.075  0.00  0.00     0.003 C 
HETATM   16  C   UNK N   1      18.031  17.520   9.416  0.00  0.00     0.005 C 
ENDBRANCH  14  15
ENDBRANCH   9  14
BRANCH  11  17
HETATM   17  C   UNK N   1      23.308  12.696   9.818  0.00  0.00     0.095 C 
HETATM   18  C   UNK N   1      23.762  11.397   9.198  0.00  0.00     0.052 C 
HETATM   19  C   UNK N   1      22.729  12.354  11.179  0.00  0.00     0.052 C 
BRANCH  17  20
HETATM   20  O   UNK N   1      24.439  13.490  10.006  0.00  0.00    -0.384 OA
HETATM   21  H   UNK N   1      25.275  13.677  10.458  0.00  0.00     0.211 HD
ENDBRANCH  17  20
ENDBRANCH  11  17
BRANCH  13  22
HETATM   22  C   UNK N   1      22.948  13.484   6.493  0.00  0.00     0.196 C 
HETATM   23  O   UNK N   1      22.766  12.460   5.866  0.00  0.00    -0.645 OA
BRANCH  22  24
HETATM   24  O   UNK N   1      23.934  14.309   6.090  0.00  0.00    -0.772 OA
HETATM   25  H   UNK N   1      23.774  15.206   5.870  0.00  0.00     0.167 HD
ENDBRANCH  22  24
ENDBRANCH  13  22
ENDBRANCH   7   8
ENDBRANCH   3   7
BRANCH   2  26
HETATM   26  C   UNK N   1      24.019  18.738   4.056  0.00  0.00    -0.012 A 
HETATM   27  C   UNK N   1      23.721  19.890   3.305  0.00  0.00     0.013 A 
HETATM   28  C   UNK N   1      24.729  20.697   2.784  0.00  0.00     0.001 A 
HETATM   29  C   UNK N   1      26.063  20.374   3.009  0.00  0.00     0.001 A 
HETATM   30  C   UNK N   1      26.391  19.226   3.728  0.00  0.00     0.016 A 
HETATM   31  C   UNK N   1      25.396  18.379   4.243  0.00  0.00     0.021 A 
BRANCH  31  32
HETATM   32  C   UNK N   1      25.872  17.106   4.856  0.00  0.00     0.142 A 
HETATM   33  N   UNK N   1      26.081  15.969   4.171  0.00  0.00    -0.270 N 
HETATM   34  N   UNK N   1      26.435  15.067   5.075  0.00  0.00    -0.007 NA
ATOM     35  HN  UNK N   1      25.987  15.828   3.165  1.00  0.00     0.185 HD
HETATM   36  N   UNK N   1      26.418  15.618   6.277  0.00  0.00    -0.007 NA
HETATM   37  N   UNK N   1      26.056  16.885   6.171  0.00  0.00    -0.270 N 
HETATM   38  H   UNK N   1      25.945  17.533   6.903  0.00  0.00     0.185 HD
ENDBRANCH  31  32
ENDBRANCH   2  26
TORSDOF 10
ENDMDL
MODEL 7
REMARK VINA RESULT:      -7.4      4.883     10.248
REMARK  10 active torsions:
REMARK  status: ('A' for Active; 'I' for Inactive)
REMARK    1  A    between atoms: C_2  and  C_3 
REMARK    2  A    between atoms: C_4  and  C_5 
REMARK    3  A    between atoms: C_19  and  C_7 
REMARK    4  A    between atoms: N_23  and  C_19 
REMARK    5  A    between atoms: C_20  and  C_24 
REMARK    6  A    between atoms: C_24  and  C_25 
REMARK    7  A    between atoms: C_27  and  C_28 
REMARK    8  A    between atoms: C_28  and  O_30 
REMARK    9  A    between atoms: C_31  and  C_32 
REMARK   10  A    between atoms: C_32  and  O_35 
ROOT
HETATM    1  C   UNK N   1      31.059  15.384   6.666  0.00  0.00     0.013 A 
HETATM    2  C   UNK N   1      30.754  16.400   5.748  0.00  0.00    -0.025 A 
HETATM    3  C   UNK N   1      33.237  16.336   7.043  0.00  0.00    -0.040 A 
HETATM    4  C   UNK N   1      32.284  15.363   7.328  0.00  0.00     0.010 A 
HETATM    5  C   UNK N   1      31.758  17.307   5.393  0.00  0.00     0.013 A 
HETATM    6  C   UNK N   1      32.980  17.289   6.057  0.00  0.00     0.010 A 
ENDROOT
BRANCH   3   7
HETATM    7  C   UNK N   1      34.370  16.537   7.989  0.00  0.00     0.169 C 
BRANCH   7   8
HETATM    8  N   UNK N   1      35.151  15.353   8.328  0.00  0.00    -0.325 N 
HETATM    9  C   UNK N   1      35.888  14.587   7.498  0.00  0.00     0.084 A 
HETATM   10  N   UNK N   1      36.568  13.637   8.160  0.00  0.00    -0.345 N 
HETATM   11  C   UNK N   1      36.264  13.799   9.467  0.00  0.00     0.078 A 
ATOM     12  HN  UNK N   1      37.187  12.934   7.756  1.00  0.00     0.167 HD
HETATM   13  C   UNK N   1      35.357  14.877   9.579  0.00  0.00     0.136 A 
BRANCH   9  14
HETATM   14  C   UNK N   1      35.997  14.778   6.022  0.00  0.00     0.076 C 
BRANCH  14  15
HETATM   15  C   UNK N   1      35.157  13.739   5.300  0.00  0.00     0.003 C 
HETATM   16  C   UNK N   1      34.412  14.395   4.155  0.00  0.00     0.005 C 
ENDBRANCH  14  15
ENDBRANCH   9  14
BRANCH  11  17
HETATM   17  C   UNK N   1      36.927  12.888  10.487  0.00  0.00     0.095 C 
HETATM   18  C   UNK N   1      37.915  11.872   9.970  0.00  0.00     0.052 C 
HETATM   19  C   UNK N   1      35.835  12.112  11.202  0.00  0.00     0.052 C 
BRANCH  17  20
HETATM   20  O   UNK N   1      37.588  13.682  11.422  0.00  0.00    -0.384 OA
HETATM   21  H   UNK N   1      37.697  14.522  11.893  0.00  0.00     0.211 HD
ENDBRANCH  17  20
ENDBRANCH  11  17
BRANCH  13  22
HETATM   22  C   UNK N   1      34.712  15.498  10.786  0.00  0.00     0.196 C 
HETATM   23  O   UNK N   1      35.239  16.407  11.394  0.00  0.00    -0.645 OA
BRANCH  22  24
HETATM   24  O   UNK N   1      33.523  15.043  11.227  0.00  0.00    -0.772 OA
HETATM   25  H   UNK N   1      32.719  15.486  11.035  0.00  0.00     0.167 HD
ENDBRANCH  22  24
ENDBRANCH  13  22
ENDBRANCH   7   8
ENDBRANCH   3   7
BRANCH   2  26
HETATM   26  C   UNK N   1      29.377  16.602   5.213  0.00  0.00    -0.012 A 
HETATM   27  C   UNK N   1      29.181  16.397   3.835  0.00  0.00     0.013 A 
HETATM   28  C   UNK N   1      27.930  16.560   3.248  0.00  0.00     0.001 A 
HETATM   29  C   UNK N   1      26.838  16.923   4.030  0.00  0.00     0.001 A 
HETATM   30  C   UNK N   1      27.004  17.155   5.394  0.00  0.00     0.016 A 
HETATM   31  C   UNK N   1      28.259  17.026   6.009  0.00  0.00     0.021 A 
BRANCH  31  32
HETATM   32  C   UNK N   1      28.338  17.452   7.435  0.00  0.00     0.142 A 
HETATM   33  N   UNK N   1      27.532  16.991   8.407  0.00  0.00    -0.270 N 
HETATM   34  N   UNK N   1      27.879  17.653   9.501  0.00  0.00    -0.007 NA
ATOM     35  HN  UNK N   1      26.804  16.282   8.321  1.00  0.00     0.185 HD
HETATM   36  N   UNK N   1      28.843  18.509   9.212  0.00  0.00    -0.007 NA
HETATM   37  N   UNK N   1      29.138  18.415   7.927  0.00  0.00    -0.270 N 
HETATM   38  H   UNK N   1      29.807  18.942   7.432  0.00  0.00     0.185 HD
ENDBRANCH  31  32
ENDBRANCH   2  26
TORSDOF 10
ENDMDL
MODEL 8
REMARK VINA RESULT:      -7.4      5.623     11.378
REMARK  10 active torsions:
REMARK  status: ('A' for Active; 'I' for Inactive)
REMARK    1  A    between atoms: C_2  and  C_3 
REMARK    2  A    between atoms: C_4  and  C_5 
REMARK    3  A    between atoms: C_19  and  C_7 
REMARK    4  A    between atoms: N_23  and  C_19 
REMARK    5  A    between atoms: C_20  and  C_24 
REMARK    6  A    between atoms: C_24  and  C_25 
REMARK    7  A    between atoms: C_27  and  C_28 
REMARK    8  A    between atoms: C_28  and  O_30 
REMARK    9  A    between atoms: C_31  and  C_32 
REMARK   10  A    between atoms: C_32  and  O_35 
ROOT
HETATM    1  C   UNK N   1      30.032  17.316   5.963  0.00  0.00     0.013 A 
HETATM    2  C   UNK N   1      29.632  17.483   4.629  0.00  0.00    -0.025 A 
HETATM    3  C   UNK N   1      32.321  17.031   5.274  0.00  0.00    -0.040 A 
HETATM    4  C   UNK N   1      31.371  17.114   6.288  0.00  0.00     0.010 A 
HETATM    5  C   UNK N   1      30.577  17.291   3.616  0.00  0.00     0.013 A 
HETATM    6  C   UNK N   1      31.916  17.094   3.940  0.00  0.00     0.010 A 
ENDROOT
BRANCH   3   7
HETATM    7  C   UNK N   1      33.761  17.186   5.618  0.00  0.00     0.169 C 
BRANCH   7   8
HETATM    8  N   UNK N   1      34.252  16.385   6.732  0.00  0.00    -0.325 N 
HETATM    9  C   UNK N   1      34.608  15.084   6.718  0.00  0.00     0.084 A 
HETATM   10  N   UNK N   1      35.121  14.688   7.894  0.00  0.00    -0.345 N 
HETATM   11  C   UNK N   1      35.103  15.775   8.698  0.00  0.00     0.078 A 
ATOM     12  HN  UNK N   1      35.455  13.754   8.133  1.00  0.00     0.167 HD
HETATM   13  C   UNK N   1      34.542  16.850   7.971  0.00  0.00     0.136 A 
BRANCH   9  14
HETATM   14  C   UNK N   1      34.505  14.177   5.537  0.00  0.00     0.076 C 
BRANCH  14  15
HETATM   15  C   UNK N   1      33.543  13.041   5.836  0.00  0.00     0.003 C 
HETATM   16  C   UNK N   1      32.119  13.511   5.622  0.00  0.00     0.005 C 
ENDBRANCH  14  15
ENDBRANCH   9  14
BRANCH  11  17
HETATM   17  C   UNK N   1      35.671  15.654  10.101  0.00  0.00     0.095 C 
HETATM   18  C   UNK N   1      36.783  14.657  10.315  0.00  0.00     0.052 C 
HETATM   19  C   UNK N   1      34.540  15.255  11.032  0.00  0.00     0.052 C 
BRANCH  17  20
HETATM   20  O   UNK N   1      36.145  16.904  10.493  0.00  0.00    -0.384 OA
HETATM   21  H   UNK N   1      36.641  17.467  11.108  0.00  0.00     0.211 HD
ENDBRANCH  17  20
ENDBRANCH  11  17
BRANCH  13  22
HETATM   22  C   UNK N   1      34.302  18.281   8.362  0.00  0.00     0.196 C 
HETATM   23  O   UNK N   1      33.183  18.710   8.560  0.00  0.00    -0.645 OA
BRANCH  22  24
HETATM   24  O   UNK N   1      35.340  19.129   8.497  0.00  0.00    -0.772 OA
HETATM   25  H   UNK N   1      35.747  19.539   7.759  0.00  0.00     0.167 HD
ENDBRANCH  22  24
ENDBRANCH  13  22
ENDBRANCH   7   8
ENDBRANCH   3   7
BRANCH   2  26
HETATM   26  C   UNK N   1      28.264  17.948   4.261  0.00  0.00    -0.012 A 
HETATM   27  C   UNK N   1      27.962  19.305   4.479  0.00  0.00     0.013 A 
HETATM   28  C   UNK N   1      26.711  19.830   4.163  0.00  0.00     0.001 A 
HETATM   29  C   UNK N   1      25.733  19.008   3.612  0.00  0.00     0.001 A 
HETATM   30  C   UNK N   1      25.994  17.655   3.406  0.00  0.00     0.016 A 
HETATM   31  C   UNK N   1      27.236  17.092   3.739  0.00  0.00     0.021 A 
BRANCH  31  32
HETATM   32  C   UNK N   1      27.339  15.610   3.618  0.00  0.00     0.142 A 
HETATM   33  N   UNK N   1      27.218  14.757   4.649  0.00  0.00    -0.270 N 
HETATM   34  N   UNK N   1      27.431  13.551   4.142  0.00  0.00    -0.007 NA
ATOM     35  HN  UNK N   1      27.007  14.988   5.620  1.00  0.00     0.185 HD
HETATM   36  N   UNK N   1      27.701  13.657   2.852  0.00  0.00    -0.007 NA
HETATM   37  N   UNK N   1      27.665  14.931   2.502  0.00  0.00    -0.270 N 
HETATM   38  H   UNK N   1      27.840  15.306   1.609  0.00  0.00     0.185 HD
ENDBRANCH  31  32
ENDBRANCH   2  26
TORSDOF 10
ENDMDL
MODEL 9
REMARK VINA RESULT:      -7.3     13.535     15.556
REMARK  10 active torsions:
REMARK  status: ('A' for Active; 'I' for Inactive)
REMARK    1  A    between atoms: C_2  and  C_3 
REMARK    2  A    between atoms: C_4  and  C_5 
REMARK    3  A    between atoms: C_19  and  C_7 
REMARK    4  A    between atoms: N_23  and  C_19 
REMARK    5  A    between atoms: C_20  and  C_24 
REMARK    6  A    between atoms: C_24  and  C_25 
REMARK    7  A    between atoms: C_27  and  C_28 
REMARK    8  A    between atoms: C_28  and  O_30 
REMARK    9  A    between atoms: C_31  and  C_32 
REMARK   10  A    between atoms: C_32  and  O_35 
ROOT
HETATM    1  C   UNK N   1      24.470  14.603   7.041  0.00  0.00     0.013 A 
HETATM    2  C   UNK N   1      23.700  13.437   7.167  0.00  0.00    -0.025 A 
HETATM    3  C   UNK N   1      24.599  14.299   4.657  0.00  0.00    -0.040 A 
HETATM    4  C   UNK N   1      24.898  15.046   5.792  0.00  0.00     0.010 A 
HETATM    5  C   UNK N   1      23.499  12.641   6.034  0.00  0.00     0.013 A 
HETATM    6  C   UNK N   1      23.923  13.085   4.785  0.00  0.00     0.010 A 
ENDROOT
BRANCH   3   7
HETATM    7  C   UNK N   1      24.726  14.937   3.317  0.00  0.00     0.169 C 
BRANCH   7   8
HETATM    8  N   UNK N   1      23.533  14.928   2.478  0.00  0.00    -0.325 N 
HETATM    9  C   UNK N   1      23.295  14.166   1.392  0.00  0.00     0.084 A 
HETATM   10  N   UNK N   1      22.050  14.334   0.920  0.00  0.00    -0.345 N 
HETATM   11  C   UNK N   1      21.457  15.234   1.736  0.00  0.00     0.078 A 
ATOM     12  HN  UNK N   1      21.636  13.875   0.108  1.00  0.00     0.167 HD
HETATM   13  C   UNK N   1      22.396  15.624   2.718  0.00  0.00     0.136 A 
BRANCH   9  14
HETATM   14  C   UNK N   1      24.262  13.201   0.791  0.00  0.00     0.076 C 
BRANCH  14  15
HETATM   15  C   UNK N   1      23.581  12.390  -0.298  0.00  0.00     0.003 C 
HETATM   16  C   UNK N   1      23.863  10.917  -0.086  0.00  0.00     0.005 C 
ENDBRANCH  14  15
ENDBRANCH   9  14
BRANCH  11  17
HETATM   17  C   UNK N   1      20.005  15.600   1.482  0.00  0.00     0.095 C 
HETATM   18  C   UNK N   1      19.184  14.647   0.650  0.00  0.00     0.052 C 
HETATM   19  C   UNK N   1      19.976  16.941   0.770  0.00  0.00     0.052 C 
BRANCH  17  20
HETATM   20  O   UNK N   1      19.365  15.741   2.713  0.00  0.00    -0.384 OA
HETATM   21  H   UNK N   1      19.258  15.494   3.644  0.00  0.00     0.211 HD
ENDBRANCH  17  20
ENDBRANCH  11  17
BRANCH  13  22
HETATM   22  C   UNK N   1      22.269  16.574   3.875  0.00  0.00     0.196 C 
HETATM   23  O   UNK N   1      22.749  17.689   3.841  0.00  0.00    -0.645 OA
BRANCH  22  24
HETATM   24  O   UNK N   1      21.616  16.198   4.992  0.00  0.00    -0.772 OA
HETATM   25  H   UNK N   1      21.249  15.341   5.088  0.00  0.00     0.167 HD
ENDBRANCH  22  24
ENDBRANCH  13  22
ENDBRANCH   7   8
ENDBRANCH   3   7
BRANCH   2  26
HETATM   26  C   UNK N   1      23.015  13.069   8.438  0.00  0.00    -0.012 A 
HETATM   27  C   UNK N   1      23.690  12.192   9.307  0.00  0.00     0.013 A 
HETATM   28  C   UNK N   1      23.128  11.795  10.518  0.00  0.00     0.001 A 
HETATM   29  C   UNK N   1      21.878  12.276  10.893  0.00  0.00     0.001 A 
HETATM   30  C   UNK N   1      21.174  13.128  10.044  0.00  0.00     0.016 A 
HETATM   31  C   UNK N   1      21.703  13.523   8.805  0.00  0.00     0.021 A 
BRANCH  31  32
HETATM   32  C   UNK N   1      20.791  14.306   7.923  0.00  0.00     0.142 A 
HETATM   33  N   UNK N   1      20.219  15.472   8.271  0.00  0.00    -0.270 N 
HETATM   34  N   UNK N   1      19.445  15.808   7.250  0.00  0.00    -0.007 NA
ATOM     35  HN  UNK N   1      20.352  15.989   9.140  1.00  0.00     0.185 HD
HETATM   36  N   UNK N   1      19.514  14.873   6.318  0.00  0.00    -0.007 NA
HETATM   37  N   UNK N   1      20.335  13.917   6.718  0.00  0.00    -0.270 N 
HETATM   38  H   UNK N   1      20.565  13.092   6.234  0.00  0.00     0.185 HD
ENDBRANCH  31  32
ENDBRANCH   2  26
TORSDOF 10
ENDMDL
