MODEL 1
REMARK VINA RESULT:      -7.8      0.000      0.000
REMARK  2 active torsions:
REMARK  status: ('A' for Active; 'I' for Inactive)
REMARK    1  A    between atoms: C_3  and  O_21 
REMARK    2  A    between atoms: C_15  and  C_16 
ROOT
HETATM    1  C   UNK N   1      35.575  13.942  15.782  0.00  0.00     0.010 C 
HETATM    2  C   UNK N   1      35.392  12.841  18.539  0.00  0.00     0.010 C 
HETATM    3  C   UNK N   1      36.169  12.890  13.783  0.00  0.00     0.128 C 
HETATM    4  C   UNK N   1      36.920  10.558  15.249  0.00  0.00     0.047 C 
HETATM    5  C   UNK N   1      36.550  14.091  14.620  0.00  0.00     0.052 C 
HETATM    6  C   UNK N   1      35.377   9.844  18.953  0.00  0.00     0.023 C 
HETATM    7  C   UNK N   1      36.220   9.777  16.411  0.00  0.00    -0.083 C 
HETATM    8  C   UNK N   1      35.091  12.312  19.938  0.00  0.00     0.035 C 
HETATM    9  C   UNK N   1      35.060  10.818  20.089  0.00  0.00    -0.072 C 
HETATM   10  C   UNK N   1      34.135   8.955  18.813  0.00  0.00     0.017 C 
HETATM   11  C   UNK N   1      34.615  10.332  21.256  0.00  0.00     0.053 C 
HETATM   12  C   UNK N   1      33.992   8.106  20.107  0.00  0.00     0.084 C 
HETATM   13  C   UNK N   1      35.170  11.871  17.361  0.00  0.00    -0.000 C 
HETATM   14  C   UNK N   1      35.934  10.572  17.687  0.00  0.00     0.026 C 
HETATM   15  C   UNK N   1      35.937  11.671  14.784  0.00  0.00     0.009 C 
HETATM   16  C   UNK N   1      35.837  12.500  16.127  0.00  0.00     0.003 C 
HETATM   17  O   UNK N   1      34.210   8.374  22.464  0.00  0.00    -0.293 OA
HETATM   18  C   UNK N   1      34.293   8.900  21.366  0.00  0.00     0.149 C 
HETATM   19  C   UNK N   1      37.059  12.699  12.638  0.00  0.00    -0.078 C 
HETATM   20  C   UNK N   1      37.768  12.661  11.664  0.00  0.00     0.015 C 
HETATM   21  C   UNK N   1      35.449   8.724  16.113  0.00  0.00     0.015 C 
ENDROOT
BRANCH   3  22
HETATM   22  O   UNK N   1      34.938  13.276  13.232  0.00  0.00    -0.377 OA
HETATM   23  H   UNK N   1      34.263  13.863  12.855  0.00  0.00     0.211 HD
ENDBRANCH   3  22
BRANCH  15  24
HETATM   24  C   UNK N   1      34.922  10.716  14.085  0.00  0.00     0.010 C 
HETATM   25  C   UNK N   1      33.438  10.812  14.309  0.00  0.00     0.006 C 
ENDBRANCH  15  24
TORSDOF 2
ENDMDL
MODEL 2
REMARK VINA RESULT:      -7.7      1.127      1.545
REMARK  2 active torsions:
REMARK  status: ('A' for Active; 'I' for Inactive)
REMARK    1  A    between atoms: C_3  and  O_21 
REMARK    2  A    between atoms: C_15  and  C_16 
ROOT
HETATM    1  C   UNK N   1      35.631  13.798  13.868  0.00  0.00     0.010 C 
HETATM    2  C   UNK N   1      35.486  13.383  16.809  0.00  0.00     0.010 C 
HETATM    3  C   UNK N   1      36.378  12.360  12.185  0.00  0.00     0.128 C 
HETATM    4  C   UNK N   1      37.317  10.541  14.175  0.00  0.00     0.047 C 
HETATM    5  C   UNK N   1      36.616  13.760  12.705  0.00  0.00     0.052 C 
HETATM    6  C   UNK N   1      35.757  10.590  17.939  0.00  0.00     0.023 C 
HETATM    7  C   UNK N   1      36.668   9.996  15.491  0.00  0.00    -0.083 C 
HETATM    8  C   UNK N   1      35.203  13.180  18.294  0.00  0.00     0.035 C 
HETATM    9  C   UNK N   1      35.315  11.771  18.805  0.00  0.00    -0.072 C 
HETATM   10  C   UNK N   1      34.613   9.571  18.018  0.00  0.00     0.017 C 
HETATM   11  C   UNK N   1      34.891  11.539  20.054  0.00  0.00     0.053 C 
HETATM   12  C   UNK N   1      34.521   9.049  19.480  0.00  0.00     0.084 C 
HETATM   13  C   UNK N   1      35.391  12.139  15.902  0.00  0.00    -0.000 C 
HETATM   14  C   UNK N   1      36.272  11.043  16.535  0.00  0.00     0.026 C 
HETATM   15  C   UNK N   1      36.241  11.402  13.452  0.00  0.00     0.009 C 
HETATM   16  C   UNK N   1      36.025  12.515  14.553  0.00  0.00     0.003 C 
HETATM   17  O   UNK N   1      34.650   9.901  21.701  0.00  0.00    -0.293 OA
HETATM   18  C   UNK N   1      34.709  10.151  20.509  0.00  0.00     0.149 C 
HETATM   19  C   UNK N   1      37.311  11.989  11.122  0.00  0.00    -0.078 C 
HETATM   20  C   UNK N   1      38.046  11.790  10.187  0.00  0.00     0.015 C 
HETATM   21  C   UNK N   1      36.013   8.829  15.457  0.00  0.00     0.015 C 
ENDROOT
BRANCH   3  22
HETATM   22  O   UNK N   1      35.129  12.473  11.556  0.00  0.00    -0.377 OA
HETATM   23  H   UNK N   1      34.236  12.810  11.377  0.00  0.00     0.211 HD
ENDBRANCH   3  22
BRANCH  15  24
HETATM   24  C   UNK N   1      35.344  10.207  13.005  0.00  0.00     0.010 C 
HETATM   25  C   UNK N   1      33.843  10.249  13.092  0.00  0.00     0.006 C 
ENDBRANCH  15  24
TORSDOF 2
ENDMDL
MODEL 3
REMARK VINA RESULT:      -7.2     27.133     28.521
REMARK  2 active torsions:
REMARK  status: ('A' for Active; 'I' for Inactive)
REMARK    1  A    between atoms: C_3  and  O_21 
REMARK    2  A    between atoms: C_15  and  C_16 
ROOT
HETATM    1  C   UNK N   1      28.921  23.820  -6.775  0.00  0.00     0.010 C 
HETATM    2  C   UNK N   1      29.430  25.917  -4.729  0.00  0.00     0.010 C 
HETATM    3  C   UNK N   1      26.900  22.960  -7.572  0.00  0.00     0.128 C 
HETATM    4  C   UNK N   1      25.501  24.417  -5.555  0.00  0.00     0.047 C 
HETATM    5  C   UNK N   1      28.204  22.488  -6.966  0.00  0.00     0.052 C 
HETATM    6  C   UNK N   1      27.167  27.717  -3.840  0.00  0.00     0.023 C 
HETATM    7  C   UNK N   1      25.622  25.894  -5.050  0.00  0.00    -0.083 C 
HETATM    8  C   UNK N   1      29.769  27.108  -3.838  0.00  0.00     0.035 C 
HETATM    9  C   UNK N   1      28.620  27.994  -3.449  0.00  0.00    -0.072 C 
HETATM   10  C   UNK N   1      26.700  28.964  -4.601  0.00  0.00     0.017 C 
HETATM   11  C   UNK N   1      28.919  29.143  -2.828  0.00  0.00     0.053 C 
HETATM   12  C   UNK N   1      26.680  30.164  -3.612  0.00  0.00     0.084 C 
HETATM   13  C   UNK N   1      28.105  25.987  -5.516  0.00  0.00    -0.000 C 
HETATM   14  C   UNK N   1      26.989  26.314  -4.503  0.00  0.00     0.026 C 
HETATM   15  C   UNK N   1      26.455  24.267  -6.776  0.00  0.00     0.009 C 
HETATM   16  C   UNK N   1      27.831  24.576  -6.062  0.00  0.00     0.003 C 
HETATM   17  O   UNK N   1      28.012  31.062  -1.853  0.00  0.00    -0.293 OA
HETATM   18  C   UNK N   1      27.879  30.174  -2.679  0.00  0.00     0.149 C 
HETATM   19  C   UNK N   1      25.934  21.876  -7.739  0.00  0.00    -0.078 C 
HETATM   20  C   UNK N   1      25.227  20.919  -7.939  0.00  0.00     0.015 C 
HETATM   21  C   UNK N   1      24.814  26.826  -5.570  0.00  0.00     0.015 C 
ENDROOT
BRANCH   3  22
HETATM   22  O   UNK N   1      27.278  23.320  -8.875  0.00  0.00    -0.377 OA
HETATM   23  H   UNK N   1      27.199  23.449  -9.834  0.00  0.00     0.211 HD
ENDBRANCH   3  22
BRANCH  15  24
HETATM   24  C   UNK N   1      25.594  25.112  -7.764  0.00  0.00     0.010 C 
HETATM   25  C   UNK N   1      26.192  26.162  -8.660  0.00  0.00     0.006 C 
ENDBRANCH  15  24
TORSDOF 2
ENDMDL
MODEL 4
REMARK VINA RESULT:      -7.1     27.026     29.947
REMARK  2 active torsions:
REMARK  status: ('A' for Active; 'I' for Inactive)
REMARK    1  A    between atoms: C_3  and  O_21 
REMARK    2  A    between atoms: C_15  and  C_16 
ROOT
HETATM    1  C   UNK N   1      28.587  28.720  -7.074  0.00  0.00     0.010 C 
HETATM    2  C   UNK N   1      27.749  26.631  -9.017  0.00  0.00     0.010 C 
HETATM    3  C   UNK N   1      27.677  29.292  -4.999  0.00  0.00     0.128 C 
HETATM    4  C   UNK N   1      25.479  27.538  -5.496  0.00  0.00     0.047 C 
HETATM    5  C   UNK N   1      28.051  29.931  -6.319  0.00  0.00     0.052 C 
HETATM    6  C   UNK N   1      25.833  24.459  -8.142  0.00  0.00     0.023 C 
HETATM    7  C   UNK N   1      25.407  26.075  -6.049  0.00  0.00    -0.083 C 
HETATM    8  C   UNK N   1      27.502  25.466  -9.971  0.00  0.00     0.035 C 
HETATM    9  C   UNK N   1      26.571  24.394  -9.481  0.00  0.00    -0.072 C 
HETATM   10  C   UNK N   1      26.246  23.193  -7.381  0.00  0.00     0.017 C 
HETATM   11  C   UNK N   1      26.486  23.277 -10.216  0.00  0.00     0.053 C 
HETATM   12  C   UNK N   1      25.687  21.958  -8.144  0.00  0.00     0.084 C 
HETATM   13  C   UNK N   1      27.433  26.394  -7.526  0.00  0.00    -0.000 C 
HETATM   14  C   UNK N   1      25.993  25.848  -7.445  0.00  0.00     0.026 C 
HETATM   15  C   UNK N   1      26.986  27.894  -5.331  0.00  0.00     0.009 C 
HETATM   16  C   UNK N   1      27.443  27.769  -6.839  0.00  0.00     0.003 C 
HETATM   17  O   UNK N   1      25.442  21.194 -10.387  0.00  0.00    -0.293 OA
HETATM   18  C   UNK N   1      25.823  22.089  -9.651  0.00  0.00     0.149 C 
HETATM   19  C   UNK N   1      26.990  30.219  -4.101  0.00  0.00    -0.078 C 
HETATM   20  C   UNK N   1      26.522  31.062  -3.377  0.00  0.00     0.015 C 
HETATM   21  C   UNK N   1      25.370  25.055  -5.183  0.00  0.00     0.015 C 
ENDROOT
BRANCH   3  22
HETATM   22  O   UNK N   1      28.926  29.058  -4.404  0.00  0.00    -0.377 OA
HETATM   23  H   UNK N   1      29.696  29.213  -3.834  0.00  0.00     0.211 HD
ENDBRANCH   3  22
BRANCH  15  24
HETATM   24  C   UNK N   1      27.240  26.975  -4.098  0.00  0.00     0.010 C 
HETATM   25  C   UNK N   1      28.431  26.059  -4.006  0.00  0.00     0.006 C 
ENDBRANCH  15  24
TORSDOF 2
ENDMDL
MODEL 5
REMARK VINA RESULT:      -7.1     23.498     26.848
REMARK  2 active torsions:
REMARK  status: ('A' for Active; 'I' for Inactive)
REMARK    1  A    between atoms: C_3  and  O_21 
REMARK    2  A    between atoms: C_15  and  C_16 
ROOT
HETATM    1  C   UNK N   1      27.105  23.892  -7.837  0.00  0.00     0.010 C 
HETATM    2  C   UNK N   1      28.868  21.635  -7.036  0.00  0.00     0.010 C 
HETATM    3  C   UNK N   1      26.436  25.776  -6.629  0.00  0.00     0.128 C 
HETATM    4  C   UNK N   1      27.635  24.679  -4.281  0.00  0.00     0.047 C 
HETATM    5  C   UNK N   1      25.839  24.627  -7.410  0.00  0.00     0.052 C 
HETATM    6  C   UNK N   1      30.597  21.894  -4.566  0.00  0.00     0.023 C 
HETATM    7  C   UNK N   1      29.019  23.992  -4.031  0.00  0.00    -0.083 C 
HETATM    8  C   UNK N   1      29.906  20.550  -6.770  0.00  0.00     0.035 C 
HETATM    9  C   UNK N   1      30.766  20.737  -5.552  0.00  0.00    -0.072 C 
HETATM   10  C   UNK N   1      31.955  22.606  -4.528  0.00  0.00     0.017 C 
HETATM   11  C   UNK N   1      31.803  19.902  -5.403  0.00  0.00     0.053 C 
HETATM   12  C   UNK N   1      33.000  21.635  -3.909  0.00  0.00     0.084 C 
HETATM   13  C   UNK N   1      29.094  23.001  -6.355  0.00  0.00    -0.000 C 
HETATM   14  C   UNK N   1      29.310  22.733  -4.852  0.00  0.00     0.026 C 
HETATM   15  C   UNK N   1      27.630  25.183  -5.754  0.00  0.00     0.009 C 
HETATM   16  C   UNK N   1      27.786  23.797  -6.497  0.00  0.00     0.003 C 
HETATM   17  O   UNK N   1      33.592  19.330  -4.014  0.00  0.00    -0.293 OA
HETATM   18  C   UNK N   1      32.837  20.207  -4.400  0.00  0.00     0.149 C 
HETATM   19  C   UNK N   1      25.420  26.594  -5.968  0.00  0.00    -0.078 C 
HETATM   20  C   UNK N   1      24.526  27.278  -5.536  0.00  0.00     0.015 C 
HETATM   21  C   UNK N   1      30.042  24.736  -3.592  0.00  0.00     0.015 C 
ENDROOT
BRANCH   3  22
HETATM   22  O   UNK N   1      26.967  26.593  -7.639  0.00  0.00    -0.377 OA
HETATM   23  H   UNK N   1      26.998  27.298  -8.305  0.00  0.00     0.211 HD
ENDBRANCH   3  22
BRANCH  15  24
HETATM   24  C   UNK N   1      28.635  26.354  -5.532  0.00  0.00     0.010 C 
HETATM   25  C   UNK N   1      28.326  27.525  -4.640  0.00  0.00     0.006 C 
ENDBRANCH  15  24
TORSDOF 2
ENDMDL
MODEL 6
REMARK VINA RESULT:      -7.1     23.041     26.372
REMARK  2 active torsions:
REMARK  status: ('A' for Active; 'I' for Inactive)
REMARK    1  A    between atoms: C_3  and  O_21 
REMARK    2  A    between atoms: C_15  and  C_16 
ROOT
HETATM    1  C   UNK N   1      33.132  19.052  -8.741  0.00  0.00     0.010 C 
HETATM    2  C   UNK N   1      32.955  19.901  -5.896  0.00  0.00     0.010 C 
HETATM    3  C   UNK N   1      31.441  18.741 -10.322  0.00  0.00     0.128 C 
HETATM    4  C   UNK N   1      29.482  19.100  -8.277  0.00  0.00     0.047 C 
HETATM    5  C   UNK N   1      32.605  17.997  -9.706  0.00  0.00     0.052 C 
HETATM    6  C   UNK N   1      30.390  21.127  -4.860  0.00  0.00     0.023 C 
HETATM    7  C   UNK N   1      29.345  20.152  -7.126  0.00  0.00    -0.083 C 
HETATM    8  C   UNK N   1      32.965  20.509  -4.498  0.00  0.00     0.035 C 
HETATM    9  C   UNK N   1      31.680  21.138  -4.038  0.00  0.00    -0.072 C 
HETATM   10  C   UNK N   1      30.000  22.600  -5.035  0.00  0.00     0.017 C 
HETATM   11  C   UNK N   1      31.718  21.841  -2.898  0.00  0.00     0.053 C 
HETATM   12  C   UNK N   1      29.639  23.181  -3.639  0.00  0.00     0.084 C 
HETATM   13  C   UNK N   1      31.848  20.379  -6.859  0.00  0.00    -0.000 C 
HETATM   14  C   UNK N   1      30.502  20.217  -6.125  0.00  0.00     0.026 C 
HETATM   15  C   UNK N   1      30.703  19.522  -9.144  0.00  0.00     0.009 C 
HETATM   16  C   UNK N   1      31.841  19.409  -8.053  0.00  0.00     0.003 C 
HETATM   17  O   UNK N   1      30.437  23.089  -1.396  0.00  0.00    -0.293 OA
HETATM   18  C   UNK N   1      30.582  22.708  -2.545  0.00  0.00     0.149 C 
HETATM   19  C   UNK N   1      30.644  17.898 -11.213  0.00  0.00    -0.078 C 
HETATM   20  C   UNK N   1      30.095  17.176 -12.007  0.00  0.00     0.015 C 
HETATM   21  C   UNK N   1      28.597  21.244  -7.330  0.00  0.00     0.015 C 
ENDROOT
BRANCH   3  22
HETATM   22  O   UNK N   1      32.077  19.667 -11.162  0.00  0.00    -0.377 OA
HETATM   23  H   UNK N   1      32.186  20.289 -11.900  0.00  0.00     0.211 HD
ENDBRANCH   3  22
BRANCH  15  24
HETATM   24  C   UNK N   1      30.022  20.762  -9.799  0.00  0.00     0.010 C 
HETATM   25  C   UNK N   1      28.845  20.639 -10.728  0.00  0.00     0.006 C 
ENDBRANCH  15  24
TORSDOF 2
ENDMDL
MODEL 7
REMARK VINA RESULT:      -7.1     15.693     18.832
REMARK  2 active torsions:
REMARK  status: ('A' for Active; 'I' for Inactive)
REMARK    1  A    between atoms: C_3  and  O_21 
REMARK    2  A    between atoms: C_15  and  C_16 
ROOT
HETATM    1  C   UNK N   1      27.210  19.679   3.599  0.00  0.00     0.010 C 
HETATM    2  C   UNK N   1      24.316  20.297   3.304  0.00  0.00     0.010 C 
HETATM    3  C   UNK N   1      28.260  17.893   4.681  0.00  0.00     0.128 C 
HETATM    4  C   UNK N   1      25.739  17.071   5.740  0.00  0.00     0.047 C 
HETATM    5  C   UNK N   1      28.269  19.406   4.662  0.00  0.00     0.052 C 
HETATM    6  C   UNK N   1      22.262  18.163   3.918  0.00  0.00     0.023 C 
HETATM    7  C   UNK N   1      24.325  16.918   5.088  0.00  0.00    -0.083 C 
HETATM    8  C   UNK N   1      22.861  20.580   2.947  0.00  0.00     0.035 C 
HETATM    9  C   UNK N   1      21.880  19.479   3.237  0.00  0.00    -0.072 C 
HETATM   10  C   UNK N   1      21.841  17.057   2.943  0.00  0.00     0.017 C 
HETATM   11  C   UNK N   1      20.636  19.629   2.763  0.00  0.00     0.053 C 
HETATM   12  C   UNK N   1      20.291  17.070   2.825  0.00  0.00     0.084 C 
HETATM   13  C   UNK N   1      24.722  18.818   3.469  0.00  0.00    -0.000 C 
HETATM   14  C   UNK N   1      23.728  18.179   4.459  0.00  0.00     0.026 C 
HETATM   15  C   UNK N   1      26.737  17.429   4.600  0.00  0.00     0.009 C 
HETATM   16  C   UNK N   1      26.108  18.803   4.135  0.00  0.00     0.003 C 
HETATM   17  O   UNK N   1      18.517  18.652   2.657  0.00  0.00    -0.293 OA
HETATM   18  C   UNK N   1      19.720  18.476   2.764  0.00  0.00     0.149 C 
HETATM   19  C   UNK N   1      29.108  17.340   5.736  0.00  0.00    -0.078 C 
HETATM   20  C   UNK N   1      29.901  16.955   6.559  0.00  0.00     0.015 C 
HETATM   21  C   UNK N   1      23.951  15.719   4.625  0.00  0.00     0.015 C 
ENDROOT
BRANCH   3  22
HETATM   22  O   UNK N   1      28.906  17.565   3.479  0.00  0.00    -0.377 OA
HETATM   23  H   UNK N   1      29.086  17.088   2.653  0.00  0.00     0.211 HD
ENDBRANCH   3  22
BRANCH  15  24
HETATM   24  C   UNK N   1      26.742  16.020   3.934  0.00  0.00     0.010 C 
HETATM   25  C   UNK N   1      26.596  15.829   2.449  0.00  0.00     0.006 C 
ENDBRANCH  15  24
TORSDOF 2
ENDMDL
MODEL 8
REMARK VINA RESULT:      -7.0     23.206     26.695
REMARK  2 active torsions:
REMARK  status: ('A' for Active; 'I' for Inactive)
REMARK    1  A    between atoms: C_3  and  O_21 
REMARK    2  A    between atoms: C_15  and  C_16 
ROOT
HETATM    1  C   UNK N   1      26.343  26.078  -3.706  0.00  0.00     0.010 C 
HETATM    2  C   UNK N   1      28.223  23.917  -2.908  0.00  0.00     0.010 C 
HETATM    3  C   UNK N   1      26.780  28.252  -4.444  0.00  0.00     0.128 C 
HETATM    4  C   UNK N   1      29.543  27.891  -3.821  0.00  0.00     0.047 C 
HETATM    5  C   UNK N   1      25.981  27.524  -3.385  0.00  0.00     0.052 C 
HETATM    6  C   UNK N   1      31.157  24.155  -3.608  0.00  0.00     0.023 C 
HETATM    7  C   UNK N   1      30.538  26.715  -4.099  0.00  0.00    -0.083 C 
HETATM    8  C   UNK N   1      29.118  22.706  -2.667  0.00  0.00     0.035 C 
HETATM    9  C   UNK N   1      30.560  22.857  -3.062  0.00  0.00    -0.072 C 
HETATM   10  C   UNK N   1      31.755  23.792  -4.973  0.00  0.00     0.017 C 
HETATM   11  C   UNK N   1      31.319  21.753  -3.037  0.00  0.00     0.053 C 
HETATM   12  C   UNK N   1      32.941  22.813  -4.744  0.00  0.00     0.084 C 
HETATM   13  C   UNK N   1      28.722  24.966  -3.924  0.00  0.00    -0.000 C 
HETATM   14  C   UNK N   1      30.157  25.353  -3.514  0.00  0.00     0.026 C 
HETATM   15  C   UNK N   1      28.204  27.540  -4.532  0.00  0.00     0.009 C 
HETATM   16  C   UNK N   1      27.842  26.215  -3.752  0.00  0.00     0.003 C 
HETATM   17  O   UNK N   1      33.474  20.925  -3.392  0.00  0.00    -0.293 OA
HETATM   18  C   UNK N   1      32.645  21.773  -3.676  0.00  0.00     0.149 C 
HETATM   19  C   UNK N   1      26.730  29.705  -4.285  0.00  0.00    -0.078 C 
HETATM   20  C   UNK N   1      26.562  30.892  -4.154  0.00  0.00     0.015 C 
HETATM   21  C   UNK N   1      31.311  26.763  -5.191  0.00  0.00     0.015 C 
ENDROOT
BRANCH   3  22
HETATM   22  O   UNK N   1      26.057  27.983  -5.615  0.00  0.00    -0.377 OA
HETATM   23  H   UNK N   1      25.895  27.706  -6.532  0.00  0.00     0.211 HD
ENDBRANCH   3  22
BRANCH  15  24
HETATM   24  C   UNK N   1      28.721  27.772  -5.985  0.00  0.00     0.010 C 
HETATM   25  C   UNK N   1      29.049  29.142  -6.515  0.00  0.00     0.006 C 
ENDBRANCH  15  24
TORSDOF 2
ENDMDL
MODEL 9
REMARK VINA RESULT:      -7.0      1.508      3.168
REMARK  2 active torsions:
REMARK  status: ('A' for Active; 'I' for Inactive)
REMARK    1  A    between atoms: C_3  and  O_21 
REMARK    2  A    between atoms: C_15  and  C_16 
ROOT
HETATM    1  C   UNK N   1      37.928  10.627  13.424  0.00  0.00     0.010 C 
HETATM    2  C   UNK N   1      37.314   9.363  16.045  0.00  0.00     0.010 C 
HETATM    3  C   UNK N   1      36.730  12.224  12.210  0.00  0.00     0.128 C 
HETATM    4  C   UNK N   1      34.563  11.978  14.053  0.00  0.00     0.047 C 
HETATM    5  C   UNK N   1      37.334  10.847  12.037  0.00  0.00     0.052 C 
HETATM    6  C   UNK N   1      35.191  10.577  17.827  0.00  0.00     0.023 C 
HETATM    7  C   UNK N   1      34.514  11.929  15.616  0.00  0.00    -0.083 C 
HETATM    8  C   UNK N   1      37.168   8.816  17.461  0.00  0.00     0.035 C 
HETATM    9  C   UNK N   1      36.126   9.471  18.322  0.00  0.00    -0.072 C 
HETATM   10  C   UNK N   1      35.424  11.766  18.768  0.00  0.00     0.017 C 
HETATM   11  C   UNK N   1      36.109   9.138  19.620  0.00  0.00     0.053 C 
HETATM   12  C   UNK N   1      34.938  11.368  20.191  0.00  0.00     0.084 C 
HETATM   13  C   UNK N   1      36.758  10.778  15.781  0.00  0.00    -0.000 C 
HETATM   14  C   UNK N   1      35.301  10.799  16.284  0.00  0.00     0.026 C 
HETATM   15  C   UNK N   1      36.039  12.259  13.646  0.00  0.00     0.009 C 
HETATM   16  C   UNK N   1      36.720  10.970  14.256  0.00  0.00     0.003 C 
HETATM   17  O   UNK N   1      35.014   9.489  21.653  0.00  0.00    -0.293 OA
HETATM   18  C   UNK N   1      35.314   9.944  20.562  0.00  0.00     0.149 C 
HETATM   19  C   UNK N   1      35.952  12.646  11.046  0.00  0.00    -0.078 C 
HETATM   20  C   UNK N   1      35.414  12.968  10.016  0.00  0.00     0.015 C 
HETATM   21  C   UNK N   1      34.297  13.062  16.294  0.00  0.00     0.015 C 
ENDROOT
BRANCH   3  22
HETATM   22  O   UNK N   1      37.859  13.057  12.221  0.00  0.00    -0.377 OA
HETATM   23  H   UNK N   1      38.724  13.407  11.954  0.00  0.00     0.211 HD
ENDBRANCH   3  22
BRANCH  15  24
HETATM   24  C   UNK N   1      36.056  13.749  14.105  0.00  0.00     0.010 C 
HETATM   25  C   UNK N   1      37.086  14.286  15.062  0.00  0.00     0.006 C 
ENDBRANCH  15  24
TORSDOF 2
ENDMDL
