MODEL 1
REMARK VINA RESULT:      -7.5      0.000      0.000
REMARK  3 active torsions:
REMARK  status: ('A' for Active; 'I' for Inactive)
REMARK    1  A    between atoms: C_3  and  O_21 
REMARK    2  A    between atoms: C_3  and  C_22 
REMARK    3  A    between atoms: O_21  and  C_26 
ROOT
HETATM    1  C   UNK N   1      27.471  24.181  -3.894  0.00  0.00     0.009 C 
HETATM    2  C   UNK N   1      30.025  22.413  -4.326  0.00  0.00     0.014 C 
HETATM    3  C   UNK N   1      27.124  26.366  -4.829  0.00  0.00     0.138 C 
HETATM    4  C   UNK N   1      28.205  25.266  -6.950  0.00  0.00     0.013 C 
HETATM    5  C   UNK N   1      26.384  25.094  -4.465  0.00  0.00     0.048 C 
HETATM    6  C   UNK N   1      29.254  21.820  -7.186  0.00  0.00    -0.016 C 
HETATM    7  C   UNK N   1      27.664  23.846  -7.054  0.00  0.00     0.007 C 
HETATM    8  C   UNK N   1      30.801  21.349  -5.105  0.00  0.00     0.012 C 
HETATM    9  C   UNK N   1      30.036  20.832  -6.319  0.00  0.00    -0.064 C 
HETATM   10  C   UNK N   1      28.212  21.070  -8.034  0.00  0.00     0.022 C 
HETATM   11  C   UNK N   1      30.340  19.615  -6.810  0.00  0.00     0.054 C 
HETATM   12  C   UNK N   1      28.814  19.950  -8.879  0.00  0.00     0.084 C 
HETATM   13  C   UNK N   1      29.503  23.494  -5.270  0.00  0.00    -0.004 C 
HETATM   14  C   UNK N   1      28.516  22.825  -6.273  0.00  0.00     0.002 C 
HETATM   15  C   UNK N   1      28.411  25.793  -5.501  0.00  0.00    -0.001 C 
HETATM   16  C   UNK N   1      29.528  26.818  -5.658  0.00  0.00     0.019 C 
HETATM   17  C   UNK N   1      28.797  24.644  -4.526  0.00  0.00     0.002 C 
HETATM   18  O   UNK N   1      30.188  18.069  -8.551  0.00  0.00    -0.293 OA
HETATM   19  C   UNK N   1      29.797  19.131  -8.096  0.00  0.00     0.149 C 
HETATM   20  C   UNK N   1      30.226  22.553  -8.111  0.00  0.00     0.020 C 
HETATM   21  C   UNK N   1      31.230  20.249  -4.145  0.00  0.00     0.015 C 
ENDROOT
BRANCH   3  22
HETATM   22  O   UNK N   1      27.402  26.978  -3.598  0.00  0.00    -0.302 OA
BRANCH  22  23
HETATM   23  C   UNK N   1      26.687  27.943  -2.966  0.00  0.00     0.256 C 
HETATM   24  C   UNK N   1      27.160  29.356  -2.938  0.00  0.00     0.126 C 
HETATM   25  O   UNK N   1      25.564  27.687  -2.562  0.00  0.00    -0.266 OA
ENDBRANCH  22  23
ENDBRANCH   3  22
BRANCH   3  26
HETATM   26  C   UNK N   1      26.251  27.245  -5.726  0.00  0.00     0.158 C 
HETATM   27  C   UNK N   1      24.801  26.937  -5.938  0.00  0.00     0.094 C 
HETATM   28  O   UNK N   1      26.702  28.253  -6.240  0.00  0.00    -0.295 OA
ENDBRANCH   3  26
TORSDOF 3
ENDMDL
MODEL 2
REMARK VINA RESULT:      -7.4     18.763     22.174
REMARK  3 active torsions:
REMARK  status: ('A' for Active; 'I' for Inactive)
REMARK    1  A    between atoms: C_3  and  O_21 
REMARK    2  A    between atoms: C_3  and  C_22 
REMARK    3  A    between atoms: O_21  and  C_26 
ROOT
HETATM    1  C   UNK N   1      34.600  15.302  11.297  0.00  0.00     0.009 C 
HETATM    2  C   UNK N   1      36.443  14.789  13.783  0.00  0.00     0.014 C 
HETATM    3  C   UNK N   1      34.974  14.428   9.092  0.00  0.00     0.138 C 
HETATM    4  C   UNK N   1      35.631  12.265  10.422  0.00  0.00     0.013 C 
HETATM    5  C   UNK N   1      33.865  14.770  10.066  0.00  0.00     0.048 C 
HETATM    6  C   UNK N   1      35.508  11.926  14.013  0.00  0.00    -0.016 C 
HETATM    7  C   UNK N   1      34.659  12.132  11.586  0.00  0.00     0.007 C 
HETATM    8  C   UNK N   1      36.829  13.972  15.018  0.00  0.00     0.012 C 
HETATM    9  C   UNK N   1      35.932  12.757  15.225  0.00  0.00    -0.064 C 
HETATM   10  C   UNK N   1      34.275  11.074  14.361  0.00  0.00     0.022 C 
HETATM   11  C   UNK N   1      35.824  12.230  16.461  0.00  0.00     0.054 C 
HETATM   12  C   UNK N   1      34.478  10.191  15.590  0.00  0.00     0.084 C 
HETATM   13  C   UNK N   1      36.294  13.880  12.565  0.00  0.00    -0.004 C 
HETATM   14  C   UNK N   1      35.139  12.875  12.850  0.00  0.00     0.002 C 
HETATM   15  C   UNK N   1      36.003  13.724  10.030  0.00  0.00    -0.001 C 
HETATM   16  C   UNK N   1      37.392  13.577   9.418  0.00  0.00     0.019 C 
HETATM   17  C   UNK N   1      36.001  14.663  11.271  0.00  0.00     0.002 C 
HETATM   18  O   UNK N   1      35.171  10.452  17.823  0.00  0.00    -0.293 OA
HETATM   19  C   UNK N   1      35.147  10.939  16.705  0.00  0.00     0.149 C 
HETATM   20  C   UNK N   1      36.660  11.007  13.607  0.00  0.00     0.020 C 
HETATM   21  C   UNK N   1      36.883  14.898  16.225  0.00  0.00     0.015 C 
ENDROOT
BRANCH   3  22
HETATM   22  O   UNK N   1      35.441  15.670   8.639  0.00  0.00    -0.302 OA
BRANCH  22  23
HETATM   23  C   UNK N   1      34.795  16.567   7.851  0.00  0.00     0.256 C 
HETATM   24  C   UNK N   1      34.151  17.778   8.435  0.00  0.00     0.126 C 
HETATM   25  O   UNK N   1      34.886  16.472   6.638  0.00  0.00    -0.266 OA
ENDBRANCH  22  23
ENDBRANCH   3  22
BRANCH   3  26
HETATM   26  C   UNK N   1      34.428  13.565   7.953  0.00  0.00     0.158 C 
HETATM   27  C   UNK N   1      32.972  13.227   7.866  0.00  0.00     0.094 C 
HETATM   28  O   UNK N   1      35.158  13.186   7.054  0.00  0.00    -0.295 OA
ENDBRANCH   3  26
TORSDOF 3
ENDMDL
MODEL 3
REMARK VINA RESULT:      -7.4     23.552     27.029
REMARK  3 active torsions:
REMARK  status: ('A' for Active; 'I' for Inactive)
REMARK    1  A    between atoms: C_3  and  O_21 
REMARK    2  A    between atoms: C_3  and  C_22 
REMARK    3  A    between atoms: O_21  and  C_26 
ROOT
HETATM    1  C   UNK N   1      34.317  12.123  14.953  0.00  0.00     0.009 C 
HETATM    2  C   UNK N   1      35.219  12.634  17.913  0.00  0.00     0.014 C 
HETATM    3  C   UNK N   1      35.692  11.165  13.232  0.00  0.00     0.138 C 
HETATM    4  C   UNK N   1      36.442   9.576  15.178  0.00  0.00     0.013 C 
HETATM    5  C   UNK N   1      34.261  11.207  13.729  0.00  0.00     0.048 C 
HETATM    6  C   UNK N   1      35.157   9.682  18.550  0.00  0.00    -0.016 C 
HETATM    7  C   UNK N   1      35.206   9.253  16.007  0.00  0.00     0.007 C 
HETATM    8  C   UNK N   1      35.364  12.179  19.366  0.00  0.00     0.012 C 
HETATM    9  C   UNK N   1      34.856  10.759  19.593  0.00  0.00    -0.064 C 
HETATM   10  C   UNK N   1      34.193   8.495  18.721  0.00  0.00     0.022 C 
HETATM   11  C   UNK N   1      34.477  10.393  20.833  0.00  0.00     0.054 C 
HETATM   12  C   UNK N   1      34.198   7.912  20.132  0.00  0.00     0.084 C 
HETATM   13  C   UNK N   1      35.789  11.584  16.963  0.00  0.00    -0.004 C 
HETATM   14  C   UNK N   1      34.962  10.276  17.136  0.00  0.00     0.002 C 
HETATM   15  C   UNK N   1      36.479  11.008  14.570  0.00  0.00    -0.001 C 
HETATM   16  C   UNK N   1      37.971  11.294  14.442  0.00  0.00     0.019 C 
HETATM   17  C   UNK N   1      35.758  12.034  15.490  0.00  0.00     0.002 C 
HETATM   18  O   UNK N   1      33.941   8.692  22.337  0.00  0.00    -0.293 OA
HETATM   19  C   UNK N   1      34.172   8.989  21.177  0.00  0.00     0.149 C 
HETATM   20  C   UNK N   1      36.595   9.196  18.731  0.00  0.00     0.020 C 
HETATM   21  C   UNK N   1      34.709  13.209  20.275  0.00  0.00     0.015 C 
ENDROOT
BRANCH   3  22
HETATM   22  O   UNK N   1      35.898  12.423  12.646  0.00  0.00    -0.302 OA
BRANCH  22  23
HETATM   23  C   UNK N   1      35.099  13.073  11.764  0.00  0.00     0.256 C 
HETATM   24  C   UNK N   1      34.778  12.480  10.435  0.00  0.00     0.126 C 
HETATM   25  O   UNK N   1      34.498  14.073  12.125  0.00  0.00    -0.266 OA
ENDBRANCH  22  23
ENDBRANCH   3  22
BRANCH   3  26
HETATM   26  C   UNK N   1      35.868  10.025  12.229  0.00  0.00     0.158 C 
HETATM   27  C   UNK N   1      34.763   9.051  11.960  0.00  0.00     0.094 C 
HETATM   28  O   UNK N   1      36.893   9.921  11.578  0.00  0.00    -0.295 OA
ENDBRANCH   3  26
TORSDOF 3
ENDMDL
MODEL 4
REMARK VINA RESULT:      -7.2     26.205     29.550
REMARK  3 active torsions:
REMARK  status: ('A' for Active; 'I' for Inactive)
REMARK    1  A    between atoms: C_3  and  O_21 
REMARK    2  A    between atoms: C_3  and  C_22 
REMARK    3  A    between atoms: O_21  and  C_26 
ROOT
HETATM    1  C   UNK N   1      36.491  10.273  20.539  0.00  0.00     0.009 C 
HETATM    2  C   UNK N   1      35.313  12.690  18.924  0.00  0.00     0.014 C 
HETATM    3  C   UNK N   1      35.400   8.157  20.858  0.00  0.00     0.138 C 
HETATM    4  C   UNK N   1      34.755   8.486  18.337  0.00  0.00     0.013 C 
HETATM    5  C   UNK N   1      36.770   8.774  20.657  0.00  0.00     0.048 C 
HETATM    6  C   UNK N   1      35.765  11.282  16.291  0.00  0.00    -0.016 C 
HETATM    7  C   UNK N   1      35.963   9.088  17.632  0.00  0.00     0.007 C 
HETATM    8  C   UNK N   1      35.133  13.468  17.620  0.00  0.00     0.012 C 
HETATM    9  C   UNK N   1      35.828  12.803  16.437  0.00  0.00    -0.064 C 
HETATM   10  C   UNK N   1      36.880  10.794  15.349  0.00  0.00     0.022 C 
HETATM   11  C   UNK N   1      36.167  13.558  15.373  0.00  0.00     0.054 C 
HETATM   12  C   UNK N   1      36.860  11.480  13.984  0.00  0.00     0.084 C 
HETATM   13  C   UNK N   1      34.974  11.215  18.720  0.00  0.00    -0.004 C 
HETATM   14  C   UNK N   1      35.971  10.630  17.677  0.00  0.00     0.002 C 
HETATM   15  C   UNK N   1      34.551   8.943  19.811  0.00  0.00    -0.001 C 
HETATM   16  C   UNK N   1      33.046   8.805  20.013  0.00  0.00     0.019 C 
HETATM   17  C   UNK N   1      35.044  10.402  20.027  0.00  0.00     0.002 C 
HETATM   18  O   UNK N   1      36.840  13.676  13.142  0.00  0.00    -0.293 OA
HETATM   19  C   UNK N   1      36.651  12.960  14.111  0.00  0.00     0.149 C 
HETATM   20  C   UNK N   1      34.406  10.889  15.712  0.00  0.00     0.020 C 
HETATM   21  C   UNK N   1      35.561  14.911  17.841  0.00  0.00     0.015 C 
ENDROOT
BRANCH   3  22
HETATM   22  O   UNK N   1      35.052   8.493  22.175  0.00  0.00    -0.302 OA
BRANCH  22  23
HETATM   23  C   UNK N   1      35.775   8.292  23.305  0.00  0.00     0.256 C 
HETATM   24  C   UNK N   1      36.194   9.437  24.163  0.00  0.00     0.126 C 
HETATM   25  O   UNK N   1      35.939   7.154  23.716  0.00  0.00    -0.266 OA
ENDBRANCH  22  23
ENDBRANCH   3  22
BRANCH   3  26
HETATM   26  C   UNK N   1      35.466   6.644  20.647  0.00  0.00     0.158 C 
HETATM   27  C   UNK N   1      36.727   5.981  20.186  0.00  0.00     0.094 C 
HETATM   28  O   UNK N   1      34.511   5.936  20.910  0.00  0.00    -0.295 OA
ENDBRANCH   3  26
TORSDOF 3
ENDMDL
MODEL 5
REMARK VINA RESULT:      -7.1      1.745      3.818
REMARK  3 active torsions:
REMARK  status: ('A' for Active; 'I' for Inactive)
REMARK    1  A    between atoms: C_3  and  O_21 
REMARK    2  A    between atoms: C_3  and  C_22 
REMARK    3  A    between atoms: O_21  and  C_26 
ROOT
HETATM    1  C   UNK N   1      29.327  24.808  -6.666  0.00  0.00     0.009 C 
HETATM    2  C   UNK N   1      29.585  21.684  -6.780  0.00  0.00     0.014 C 
HETATM    3  C   UNK N   1      28.032  26.033  -5.057  0.00  0.00     0.138 C 
HETATM    4  C   UNK N   1      29.019  24.254  -3.402  0.00  0.00     0.013 C 
HETATM    5  C   UNK N   1      29.319  26.104  -5.853  0.00  0.00     0.048 C 
HETATM    6  C   UNK N   1      31.332  21.637  -4.317  0.00  0.00    -0.016 C 
HETATM    7  C   UNK N   1      30.468  24.013  -3.803  0.00  0.00     0.007 C 
HETATM    8  C   UNK N   1      30.286  20.383  -6.385  0.00  0.00     0.012 C 
HETATM    9  C   UNK N   1      31.463  20.611  -5.443  0.00  0.00    -0.064 C 
HETATM   10  C   UNK N   1      32.725  22.044  -3.806  0.00  0.00     0.022 C 
HETATM   11  C   UNK N   1      32.439  19.683  -5.385  0.00  0.00     0.054 C 
HETATM   12  C   UNK N   1      33.580  20.855  -3.372  0.00  0.00     0.084 C 
HETATM   13  C   UNK N   1      29.270  22.521  -5.542  0.00  0.00    -0.004 C 
HETATM   14  C   UNK N   1      30.618  22.897  -4.858  0.00  0.00     0.002 C 
HETATM   15  C   UNK N   1      28.045  24.548  -4.580  0.00  0.00    -0.001 C 
HETATM   16  C   UNK N   1      26.702  24.061  -4.050  0.00  0.00     0.019 C 
HETATM   17  C   UNK N   1      28.475  23.799  -5.874  0.00  0.00     0.002 C 
HETATM   18  O   UNK N   1      34.295  18.805  -4.277  0.00  0.00    -0.293 OA
HETATM   19  C   UNK N   1      33.499  19.726  -4.356  0.00  0.00     0.149 C 
HETATM   20  C   UNK N   1      30.532  21.021  -3.169  0.00  0.00     0.020 C 
HETATM   21  C   UNK N   1      30.659  19.620  -7.648  0.00  0.00     0.015 C 
ENDROOT
BRANCH   3  22
HETATM   22  O   UNK N   1      27.021  26.274  -5.998  0.00  0.00    -0.302 OA
BRANCH  22  23
HETATM   23  C   UNK N   1      26.204  27.353  -6.087  0.00  0.00     0.256 C 
HETATM   24  C   UNK N   1      24.766  27.263  -5.706  0.00  0.00     0.126 C 
HETATM   25  O   UNK N   1      26.687  28.451  -6.320  0.00  0.00    -0.266 OA
ENDBRANCH  22  23
ENDBRANCH   3  22
BRANCH   3  26
HETATM   26  C   UNK N   1      28.044  27.080  -3.942  0.00  0.00     0.158 C 
HETATM   27  C   UNK N   1      29.179  28.047  -3.799  0.00  0.00     0.094 C 
HETATM   28  O   UNK N   1      27.098  27.192  -3.183  0.00  0.00    -0.295 OA
ENDBRANCH   3  26
TORSDOF 3
ENDMDL
MODEL 6
REMARK VINA RESULT:      -7.0     13.431     16.938
REMARK  3 active torsions:
REMARK  status: ('A' for Active; 'I' for Inactive)
REMARK    1  A    between atoms: C_3  and  O_21 
REMARK    2  A    between atoms: C_3  and  C_22 
REMARK    3  A    between atoms: O_21  and  C_26 
ROOT
HETATM    1  C   UNK N   1      33.392  17.116   8.688  0.00  0.00     0.009 C 
HETATM    2  C   UNK N   1      30.267  17.234   8.931  0.00  0.00     0.014 C 
HETATM    3  C   UNK N   1      34.674  15.129   8.264  0.00  0.00     0.138 C 
HETATM    4  C   UNK N   1      32.724  14.631   6.582  0.00  0.00     0.013 C 
HETATM    5  C   UNK N   1      34.642  16.614   7.963  0.00  0.00     0.048 C 
HETATM    6  C   UNK N   1      29.918  16.816   5.960  0.00  0.00    -0.016 C 
HETATM    7  C   UNK N   1      32.347  15.948   5.917  0.00  0.00     0.007 C 
HETATM    8  C   UNK N   1      28.881  17.412   8.308  0.00  0.00     0.012 C 
HETATM    9  C   UNK N   1      28.937  17.634   6.800  0.00  0.00    -0.064 C 
HETATM   10  C   UNK N   1      30.149  17.498   4.600  0.00  0.00     0.022 C 
HETATM   11  C   UNK N   1      27.908  18.260   6.195  0.00  0.00     0.054 C 
HETATM   12  C   UNK N   1      28.857  17.767   3.833  0.00  0.00     0.084 C 
HETATM   13  C   UNK N   1      31.075  16.197   8.154  0.00  0.00    -0.004 C 
HETATM   14  C   UNK N   1      31.271  16.726   6.702  0.00  0.00     0.002 C 
HETATM   15  C   UNK N   1      33.175  14.743   8.067  0.00  0.00    -0.001 C 
HETATM   16  C   UNK N   1      32.812  13.379   8.645  0.00  0.00     0.019 C 
HETATM   17  C   UNK N   1      32.444  15.906   8.797  0.00  0.00     0.002 C 
HETATM   18  O   UNK N   1      26.785  18.809   4.226  0.00  0.00    -0.293 OA
HETATM   19  C   UNK N   1      27.789  18.329   4.724  0.00  0.00     0.149 C 
HETATM   20  C   UNK N   1      29.340  15.418   5.733  0.00  0.00     0.020 C 
HETATM   21  C   UNK N   1      28.141  18.512   9.055  0.00  0.00     0.015 C 
ENDROOT
BRANCH   3  22
HETATM   22  O   UNK N   1      35.064  15.050   9.608  0.00  0.00    -0.302 OA
BRANCH  22  23
HETATM   23  C   UNK N   1      36.255  15.405  10.153  0.00  0.00     0.256 C 
HETATM   24  C   UNK N   1      37.444  14.512  10.051  0.00  0.00     0.126 C 
HETATM   25  O   UNK N   1      36.403  16.539  10.582  0.00  0.00    -0.266 OA
ENDBRANCH  22  23
ENDBRANCH   3  22
BRANCH   3  26
HETATM   26  C   UNK N   1      35.661  14.424   7.333  0.00  0.00     0.158 C 
HETATM   27  C   UNK N   1      35.874  12.944   7.407  0.00  0.00     0.094 C 
HETATM   28  O   UNK N   1      36.250  15.043   6.465  0.00  0.00    -0.295 OA
ENDBRANCH   3  26
TORSDOF 3
ENDMDL
MODEL 7
REMARK VINA RESULT:      -6.9     20.294     23.724
REMARK  3 active torsions:
REMARK  status: ('A' for Active; 'I' for Inactive)
REMARK    1  A    between atoms: C_3  and  O_21 
REMARK    2  A    between atoms: C_3  and  C_22 
REMARK    3  A    between atoms: O_21  and  C_26 
ROOT
HETATM    1  C   UNK N   1      36.187  13.578  14.577  0.00  0.00     0.009 C 
HETATM    2  C   UNK N   1      34.938  14.515  11.857  0.00  0.00     0.014 C 
HETATM    3  C   UNK N   1      35.684  11.511  15.694  0.00  0.00     0.138 C 
HETATM    4  C   UNK N   1      35.777  10.555  13.253  0.00  0.00     0.013 C 
HETATM    5  C   UNK N   1      36.821  12.477  15.430  0.00  0.00     0.048 C 
HETATM    6  C   UNK N   1      36.547  12.487  10.303  0.00  0.00    -0.016 C 
HETATM    7  C   UNK N   1      36.925  11.250  12.535  0.00  0.00     0.007 C 
HETATM    8  C   UNK N   1      34.957  14.587  10.329  0.00  0.00     0.012 C 
HETATM    9  C   UNK N   1      36.137  13.839   9.719  0.00  0.00    -0.064 C 
HETATM   10  C   UNK N   1      37.986  12.142   9.880  0.00  0.00     0.022 C 
HETATM   11  C   UNK N   1      36.562  14.187   8.488  0.00  0.00     0.054 C 
HETATM   12  C   UNK N   1      38.195  12.176   8.367  0.00  0.00     0.084 C 
HETATM   13  C   UNK N   1      35.101  13.071  12.327  0.00  0.00    -0.004 C 
HETATM   14  C   UNK N   1      36.491  12.561  11.845  0.00  0.00     0.002 C 
HETATM   15  C   UNK N   1      35.013  11.432  14.287  0.00  0.00    -0.001 C 
HETATM   16  C   UNK N   1      33.619  10.815  14.305  0.00  0.00     0.019 C 
HETATM   17  C   UNK N   1      34.990  12.927  13.858  0.00  0.00     0.002 C 
HETATM   18  O   UNK N   1      37.825  13.676   6.594  0.00  0.00    -0.293 OA
HETATM   19  C   UNK N   1      37.555  13.382   7.746  0.00  0.00     0.149 C 
HETATM   20  C   UNK N   1      35.595  11.407   9.785  0.00  0.00     0.020 C 
HETATM   21  C   UNK N   1      34.878  16.046   9.903  0.00  0.00     0.015 C 
ENDROOT
BRANCH   3  22
HETATM   22  O   UNK N   1      34.870  12.171  16.627  0.00  0.00    -0.302 OA
BRANCH  22  23
HETATM   23  C   UNK N   1      35.226  12.673  17.836  0.00  0.00     0.256 C 
HETATM   24  C   UNK N   1      35.312  14.143  18.063  0.00  0.00     0.126 C 
HETATM   25  O   UNK N   1      35.313  11.921  18.794  0.00  0.00    -0.266 OA
ENDBRANCH  22  23
ENDBRANCH   3  22
BRANCH   3  26
HETATM   26  C   UNK N   1      36.229  10.190  16.236  0.00  0.00     0.158 C 
HETATM   27  C   UNK N   1      35.313   9.136  16.776  0.00  0.00     0.094 C 
HETATM   28  O   UNK N   1      37.420   9.938  16.181  0.00  0.00    -0.295 OA
ENDBRANCH   3  26
TORSDOF 3
ENDMDL
MODEL 8
REMARK VINA RESULT:      -6.8     23.792     27.288
REMARK  3 active torsions:
REMARK  status: ('A' for Active; 'I' for Inactive)
REMARK    1  A    between atoms: C_3  and  O_21 
REMARK    2  A    between atoms: C_3  and  C_22 
REMARK    3  A    between atoms: O_21  and  C_26 
ROOT
HETATM    1  C   UNK N   1      37.672  10.465  14.666  0.00  0.00     0.009 C 
HETATM    2  C   UNK N   1      36.845   7.906  16.279  0.00  0.00     0.014 C 
HETATM    3  C   UNK N   1      36.148  11.979  13.592  0.00  0.00     0.138 C 
HETATM    4  C   UNK N   1      34.760  11.613  15.787  0.00  0.00     0.013 C 
HETATM    5  C   UNK N   1      37.465  11.945  14.341  0.00  0.00     0.048 C 
HETATM    6  C   UNK N   1      35.797   9.566  18.574  0.00  0.00    -0.016 C 
HETATM    7  C   UNK N   1      35.745  11.568  16.947  0.00  0.00     0.007 C 
HETATM    8  C   UNK N   1      36.459   7.214  17.588  0.00  0.00     0.012 C 
HETATM    9  C   UNK N   1      36.405   8.177  18.769  0.00  0.00    -0.064 C 
HETATM   10  C   UNK N   1      36.255  10.508  19.701  0.00  0.00     0.022 C 
HETATM   11  C   UNK N   1      36.553   7.687  20.016  0.00  0.00     0.054 C 
HETATM   12  C   UNK N   1      35.957   9.967  21.098  0.00  0.00     0.084 C 
HETATM   13  C   UNK N   1      35.990   9.152  16.059  0.00  0.00    -0.004 C 
HETATM   14  C   UNK N   1      36.276  10.146  17.223  0.00  0.00     0.002 C 
HETATM   15  C   UNK N   1      35.280  11.008  14.451  0.00  0.00    -0.001 C 
HETATM   16  C   UNK N   1      34.003  10.549  13.757  0.00  0.00     0.019 C 
HETATM   17  C   UNK N   1      36.268   9.834  14.706  0.00  0.00     0.002 C 
HETATM   18  O   UNK N   1      36.348   7.995  22.319  0.00  0.00    -0.293 OA
HETATM   19  C   UNK N   1      36.308   8.513  21.216  0.00  0.00     0.149 C 
HETATM   20  C   UNK N   1      34.273   9.454  18.596  0.00  0.00     0.020 C 
HETATM   21  C   UNK N   1      37.388   6.030  17.813  0.00  0.00     0.015 C 
ENDROOT
BRANCH   3  22
HETATM   22  O   UNK N   1      36.445  11.442  12.331  0.00  0.00    -0.302 OA
BRANCH  22  23
HETATM   23  C   UNK N   1      36.720  12.111  11.183  0.00  0.00     0.256 C 
HETATM   24  C   UNK N   1      38.078  12.671  10.927  0.00  0.00     0.126 C 
HETATM   25  O   UNK N   1      35.901  12.110  10.278  0.00  0.00    -0.266 OA
ENDBRANCH  22  23
ENDBRANCH   3  22
BRANCH   3  26
HETATM   26  C   UNK N   1      35.630  13.415  13.500  0.00  0.00     0.158 C 
HETATM   27  C   UNK N   1      36.442  14.565  14.010  0.00  0.00     0.094 C 
HETATM   28  O   UNK N   1      34.570  13.661  12.953  0.00  0.00    -0.295 OA
ENDBRANCH   3  26
TORSDOF 3
ENDMDL
MODEL 9
REMARK VINA RESULT:      -6.8     20.303     24.013
REMARK  3 active torsions:
REMARK  status: ('A' for Active; 'I' for Inactive)
REMARK    1  A    between atoms: C_3  and  O_21 
REMARK    2  A    between atoms: C_3  and  C_22 
REMARK    3  A    between atoms: O_21  and  C_26 
ROOT
HETATM    1  C   UNK N   1      37.938  12.066  11.687  0.00  0.00     0.009 C 
HETATM    2  C   UNK N   1      36.778   9.922  13.661  0.00  0.00     0.014 C 
HETATM    3  C   UNK N   1      36.657  13.299  10.071  0.00  0.00     0.138 C 
HETATM    4  C   UNK N   1      34.921  13.420  12.034  0.00  0.00     0.013 C 
HETATM    5  C   UNK N   1      37.834  13.437  11.016  0.00  0.00     0.048 C 
HETATM    6  C   UNK N   1      35.427  12.044  15.332  0.00  0.00    -0.016 C 
HETATM    7  C   UNK N   1      35.703  13.637  13.322  0.00  0.00     0.007 C 
HETATM    8  C   UNK N   1      36.164   9.535  15.007  0.00  0.00     0.012 C 
HETATM    9  C   UNK N   1      35.950  10.735  15.924  0.00  0.00    -0.064 C 
HETATM   10  C   UNK N   1      35.726  13.213  16.286  0.00  0.00     0.022 C 
HETATM   11  C   UNK N   1      35.879  10.533  17.255  0.00  0.00     0.054 C 
HETATM   12  C   UNK N   1      35.188  12.993  17.699  0.00  0.00     0.084 C 
HETATM   13  C   UNK N   1      36.010  11.085  13.036  0.00  0.00    -0.004 C 
HETATM   14  C   UNK N   1      36.136  12.313  13.986  0.00  0.00     0.002 C 
HETATM   15  C   UNK N   1      35.630  12.537  10.967  0.00  0.00    -0.001 C 
HETATM   16  C   UNK N   1      34.468  11.930  10.189  0.00  0.00     0.019 C 
HETATM   17  C   UNK N   1      36.526  11.453  11.631  0.00  0.00     0.002 C 
HETATM   18  O   UNK N   1      35.313  11.341  19.369  0.00  0.00    -0.293 OA
HETATM   19  C   UNK N   1      35.469  11.603  18.188  0.00  0.00     0.149 C 
HETATM   20  C   UNK N   1      33.916  11.932  15.127  0.00  0.00     0.020 C 
HETATM   21  C   UNK N   1      37.006   8.434  15.636  0.00  0.00     0.015 C 
ENDROOT
BRANCH   3  22
HETATM   22  O   UNK N   1      37.136  12.497   9.025  0.00  0.00    -0.302 OA
BRANCH  22  23
HETATM   23  C   UNK N   1      38.289  12.643   8.325  0.00  0.00     0.256 C 
HETATM   24  C   UNK N   1      39.335  11.581   8.338  0.00  0.00     0.126 C 
HETATM   25  O   UNK N   1      38.402  13.573   7.543  0.00  0.00    -0.266 OA
ENDBRANCH  22  23
ENDBRANCH   3  22
BRANCH   3  26
HETATM   26  C   UNK N   1      36.207  14.676   9.584  0.00  0.00     0.158 C 
HETATM   27  C   UNK N   1      35.267  14.820   8.428  0.00  0.00     0.094 C 
HETATM   28  O   UNK N   1      36.554  15.687  10.168  0.00  0.00    -0.295 OA
ENDBRANCH   3  26
TORSDOF 3
ENDMDL
