MODEL 1
REMARK VINA RESULT:      -5.3      0.000      0.000
REMARK  3 active torsions:
REMARK  status: ('A' for Active; 'I' for Inactive)
REMARK       I    between atoms: N_4  and  C_2 
REMARK    1  A    between atoms: N_4  and  C_6 
REMARK    2  A    between atoms: C_10  and  S_12 
REMARK    3  A    between atoms: S_12  and  N_15 
ROOT
HETATM    1  C   UNK N   1      36.061  15.224  11.075  0.00  0.00     0.170 A 
HETATM    2  N   UNK N   1      36.270  14.473   9.953  0.00  0.00    -0.274 N 
HETATM    3  N   UNK N   1      35.657  14.948   8.847  0.00  0.00    -0.279 N 
ATOM      4  HN  UNK N   1      35.711  14.494   7.935  1.00  0.00     0.188 HD
HETATM    5  C   UNK N   1      34.958  16.098   9.076  0.00  0.00     0.209 A 
HETATM    6  S   UNK N   1      35.097  16.502  10.668  0.00  0.00    -0.019 SA
HETATM    7  C   UNK N   1      37.070  13.259   9.929  0.00  0.00     0.180 C 
ENDROOT
BRANCH   5   8
HETATM    8  S   UNK N   1      33.982  17.024   7.894  0.00  0.00     0.280 S 
HETATM    9  O   UNK N   1      34.521  17.969   6.809  0.00  0.00    -0.199 OA
HETATM   10  O   UNK N   1      32.773  17.742   8.507  0.00  0.00    -0.199 OA
BRANCH   8  11
HETATM   11  N   UNK N   1      34.880  18.193   8.865  0.00  0.00    -0.323 N 
HETATM   12  H   UNK N   1      35.262  18.794   9.595  0.00  0.00     0.169 HD
HETATM   13  H   UNK N   1      35.488  18.523   8.115  0.00  0.00     0.169 HD
ENDBRANCH   8  11
ENDBRANCH   5   8
BRANCH   1  14
HETATM   14  N   UNK N   1      36.550  14.936  12.238  0.00  0.00    -0.306 N 
HETATM   15  C   UNK N   1      35.925  14.210  13.212  0.00  0.00     0.219 C 
HETATM   16  C   UNK N   1      36.634  13.957  14.496  0.00  0.00     0.117 C 
HETATM   17  O   UNK N   1      34.801  13.756  13.059  0.00  0.00    -0.274 OA
ATOM     18  HN  UNK N   1      37.486  15.283  12.446  1.00  0.00     0.171 HD
ENDBRANCH   1  14
TORSDOF 3
ENDMDL
MODEL 2
REMARK VINA RESULT:      -5.1      2.704      3.898
REMARK  3 active torsions:
REMARK  status: ('A' for Active; 'I' for Inactive)
REMARK       I    between atoms: N_4  and  C_2 
REMARK    1  A    between atoms: N_4  and  C_6 
REMARK    2  A    between atoms: C_10  and  S_12 
REMARK    3  A    between atoms: S_12  and  N_15 
ROOT
HETATM    1  C   UNK N   1      35.822  13.214  13.867  0.00  0.00     0.170 A 
HETATM    2  N   UNK N   1      36.451  14.392  14.156  0.00  0.00    -0.274 N 
HETATM    3  N   UNK N   1      36.385  15.311  13.168  0.00  0.00    -0.279 N 
ATOM      4  HN  UNK N   1      36.812  16.235  13.230  1.00  0.00     0.188 HD
HETATM    5  C   UNK N   1      35.686  14.875  12.079  0.00  0.00     0.209 A 
HETATM    6  S   UNK N   1      35.172  13.333  12.353  0.00  0.00    -0.019 SA
HETATM    7  C   UNK N   1      37.146  14.655  15.406  0.00  0.00     0.180 C 
ENDROOT
BRANCH   5   8
HETATM    8  S   UNK N   1      35.398  15.765  10.552  0.00  0.00     0.280 S 
HETATM    9  O   UNK N   1      35.619  15.230   9.130  0.00  0.00    -0.199 OA
HETATM   10  O   UNK N   1      35.953  17.196  10.548  0.00  0.00    -0.199 OA
BRANCH   8  11
HETATM   11  N   UNK N   1      37.112  15.345  10.601  0.00  0.00    -0.323 N 
HETATM   12  H   UNK N   1      38.110  15.220  10.432  0.00  0.00     0.169 HD
HETATM   13  H   UNK N   1      37.077  14.822  11.476  0.00  0.00     0.169 HD
ENDBRANCH   8  11
ENDBRANCH   5   8
BRANCH   1  14
HETATM   14  N   UNK N   1      35.779  12.202  14.673  0.00  0.00    -0.306 N 
HETATM   15  C   UNK N   1      34.823  11.973  15.622  0.00  0.00     0.219 C 
HETATM   16  C   UNK N   1      34.913  10.749  16.462  0.00  0.00     0.117 C 
HETATM   17  O   UNK N   1      33.890  12.744  15.798  0.00  0.00    -0.274 OA
ATOM     18  HN  UNK N   1      36.526  11.513  14.592  1.00  0.00     0.171 HD
ENDBRANCH   1  14
TORSDOF 3
ENDMDL
MODEL 3
REMARK VINA RESULT:      -5.1     12.809     14.042
REMARK  3 active torsions:
REMARK  status: ('A' for Active; 'I' for Inactive)
REMARK       I    between atoms: N_4  and  C_2 
REMARK    1  A    between atoms: N_4  and  C_6 
REMARK    2  A    between atoms: C_10  and  S_12 
REMARK    3  A    between atoms: S_12  and  N_15 
ROOT
HETATM    1  C   UNK N   1      41.082  22.272   1.095  0.00  0.00     0.170 A 
HETATM    2  N   UNK N   1      41.382  23.567   1.411  0.00  0.00    -0.274 N 
HETATM    3  N   UNK N   1      42.271  23.698   2.420  0.00  0.00    -0.279 N 
ATOM      4  HN  UNK N   1      42.588  24.600   2.776  1.00  0.00     0.188 HD
HETATM    5  C   UNK N   1      42.700  22.500   2.912  0.00  0.00     0.209 A 
HETATM    6  S   UNK N   1      41.949  21.283   2.094  0.00  0.00    -0.019 SA
HETATM    7  C   UNK N   1      40.802  24.720   0.741  0.00  0.00     0.180 C 
ENDROOT
BRANCH   5   8
HETATM    8  S   UNK N   1      43.843  22.234   4.266  0.00  0.00     0.280 S 
HETATM    9  O   UNK N   1      43.681  22.740   5.707  0.00  0.00    -0.199 OA
HETATM   10  O   UNK N   1      45.313  22.484   3.902  0.00  0.00    -0.199 OA
BRANCH   8  11
HETATM   11  N   UNK N   1      43.723  23.977   4.013  0.00  0.00    -0.323 N 
HETATM   12  H   UNK N   1      43.855  24.988   3.976  0.00  0.00     0.169 HD
HETATM   13  H   UNK N   1      42.827  23.961   3.525  0.00  0.00     0.169 HD
ENDBRANCH   8  11
ENDBRANCH   5   8
BRANCH   1  14
HETATM   14  N   UNK N   1      40.246  21.930   0.168  0.00  0.00    -0.306 N 
HETATM   15  C   UNK N   1      40.565  21.625  -1.125  0.00  0.00     0.219 C 
HETATM   16  C   UNK N   1      39.480  21.236  -2.067  0.00  0.00     0.117 C 
HETATM   17  O   UNK N   1      41.717  21.657  -1.532  0.00  0.00    -0.274 OA
ATOM     18  HN  UNK N   1      39.261  21.884   0.426  1.00  0.00     0.171 HD
ENDBRANCH   1  14
TORSDOF 3
ENDMDL
MODEL 4
REMARK VINA RESULT:      -5.0      3.111      4.006
REMARK  3 active torsions:
REMARK  status: ('A' for Active; 'I' for Inactive)
REMARK       I    between atoms: N_4  and  C_2 
REMARK    1  A    between atoms: N_4  and  C_6 
REMARK    2  A    between atoms: C_10  and  S_12 
REMARK    3  A    between atoms: S_12  and  N_15 
ROOT
HETATM    1  C   UNK N   1      35.569  12.842  13.996  0.00  0.00     0.170 A 
HETATM    2  N   UNK N   1      34.837  12.187  13.046  0.00  0.00    -0.274 N 
HETATM    3  N   UNK N   1      34.784  12.821  11.855  0.00  0.00    -0.279 N 
ATOM      4  HN  UNK N   1      34.271  12.464  11.049  1.00  0.00     0.188 HD
HETATM    5  C   UNK N   1      35.489  13.991  11.841  0.00  0.00     0.209 A 
HETATM    6  S   UNK N   1      36.158  14.232  13.327  0.00  0.00    -0.019 SA
HETATM    7  C   UNK N   1      34.158  10.922  13.276  0.00  0.00     0.180 C 
ENDROOT
BRANCH   5   8
HETATM    8  S   UNK N   1      35.643  15.143  10.478  0.00  0.00     0.280 S 
HETATM    9  O   UNK N   1      36.016  14.796   9.029  0.00  0.00    -0.199 OA
HETATM   10  O   UNK N   1      36.438  16.411  10.819  0.00  0.00    -0.199 OA
BRANCH   8  11
HETATM   11  N   UNK N   1      37.217  14.374  10.698  0.00  0.00    -0.323 N 
HETATM   12  H   UNK N   1      38.056  13.907  11.042  0.00  0.00     0.169 HD
HETATM   13  H   UNK N   1      37.530  14.475   9.732  0.00  0.00     0.169 HD
ENDBRANCH   8  11
ENDBRANCH   5   8
BRANCH   1  14
HETATM   14  N   UNK N   1      35.735  12.409  15.205  0.00  0.00    -0.306 N 
HETATM   15  C   UNK N   1      34.936  12.695  16.275  0.00  0.00     0.219 C 
HETATM   16  C   UNK N   1      35.260  12.104  17.602  0.00  0.00     0.117 C 
HETATM   17  O   UNK N   1      33.957  13.421  16.175  0.00  0.00    -0.274 OA
ATOM     18  HN  UNK N   1      36.534  11.799  15.373  1.00  0.00     0.171 HD
ENDBRANCH   1  14
TORSDOF 3
ENDMDL
MODEL 5
REMARK VINA RESULT:      -5.0     16.290     17.195
REMARK  3 active torsions:
REMARK  status: ('A' for Active; 'I' for Inactive)
REMARK       I    between atoms: N_4  and  C_2 
REMARK    1  A    between atoms: N_4  and  C_6 
REMARK    2  A    between atoms: C_10  and  S_12 
REMARK    3  A    between atoms: S_12  and  N_15 
ROOT
HETATM    1  C   UNK N   1      20.501  16.314   1.929  0.00  0.00     0.170 A 
HETATM    2  N   UNK N   1      19.867  17.001   0.932  0.00  0.00    -0.274 N 
HETATM    3  N   UNK N   1      19.951  18.344   1.046  0.00  0.00    -0.279 N 
ATOM      4  HN  UNK N   1      19.523  18.993   0.386  1.00  0.00     0.188 HD
HETATM    5  C   UNK N   1      20.668  18.743   2.138  0.00  0.00     0.209 A 
HETATM    6  S   UNK N   1      21.177  17.411   2.963  0.00  0.00    -0.019 SA
HETATM    7  C   UNK N   1      19.151  16.364  -0.162  0.00  0.00     0.180 C 
ENDROOT
BRANCH   5   8
HETATM    8  S   UNK N   1      20.983  20.425   2.668  0.00  0.00     0.280 S 
HETATM    9  O   UNK N   1      22.353  21.116   2.737  0.00  0.00    -0.199 OA
HETATM   10  O   UNK N   1      20.252  20.821   3.958  0.00  0.00    -0.199 OA
BRANCH   8  11
HETATM   11  N   UNK N   1      21.859  19.354   3.765  0.00  0.00    -0.323 N 
HETATM   12  H   UNK N   1      22.545  18.790   4.267  0.00  0.00     0.169 HD
HETATM   13  H   UNK N   1      21.060  19.112   4.351  0.00  0.00     0.169 HD
ENDBRANCH   8  11
ENDBRANCH   5   8
BRANCH   1  14
HETATM   14  N   UNK N   1      20.530  15.022   2.010  0.00  0.00    -0.306 N 
HETATM   15  C   UNK N   1      21.424  14.200   1.387  0.00  0.00     0.219 C 
HETATM   16  C   UNK N   1      21.327  12.730   1.596  0.00  0.00     0.117 C 
HETATM   17  O   UNK N   1      22.307  14.636   0.663  0.00  0.00    -0.274 OA
ATOM     18  HN  UNK N   1      19.821  14.579   2.594  1.00  0.00     0.171 HD
ENDBRANCH   1  14
TORSDOF 3
ENDMDL
MODEL 6
REMARK VINA RESULT:      -5.0      3.021      6.211
REMARK  3 active torsions:
REMARK  status: ('A' for Active; 'I' for Inactive)
REMARK       I    between atoms: N_4  and  C_2 
REMARK    1  A    between atoms: N_4  and  C_6 
REMARK    2  A    between atoms: C_10  and  S_12 
REMARK    3  A    between atoms: S_12  and  N_15 
ROOT
HETATM    1  C   UNK N   1      33.096  15.837   7.558  0.00  0.00     0.170 A 
HETATM    2  N   UNK N   1      32.317  16.093   8.651  0.00  0.00    -0.274 N 
HETATM    3  N   UNK N   1      32.812  15.604   9.809  0.00  0.00    -0.279 N 
ATOM      4  HN  UNK N   1      32.343  15.706  10.709  1.00  0.00     0.188 HD
HETATM    5  C   UNK N   1      34.005  14.960   9.650  0.00  0.00     0.209 A 
HETATM    6  S   UNK N   1      34.424  14.990   8.057  0.00  0.00    -0.019 SA
HETATM    7  C   UNK N   1      31.057  16.817   8.597  0.00  0.00     0.180 C 
ENDROOT
BRANCH   5   8
HETATM    8  S   UNK N   1      34.971  14.144  10.919  0.00  0.00     0.280 S 
HETATM    9  O   UNK N   1      34.614  14.040  12.409  0.00  0.00    -0.199 OA
HETATM   10  O   UNK N   1      36.470  14.472  10.873  0.00  0.00    -0.199 OA
BRANCH   8  11
HETATM   11  N   UNK N   1      34.846  15.847  11.366  0.00  0.00    -0.323 N 
HETATM   12  H   UNK N   1      34.601  16.831  11.473  0.00  0.00     0.169 HD
HETATM   13  H   UNK N   1      35.610  15.845  12.042  0.00  0.00     0.169 HD
ENDBRANCH   8  11
ENDBRANCH   5   8
BRANCH   1  14
HETATM   14  N   UNK N   1      32.796  16.209   6.355  0.00  0.00    -0.306 N 
HETATM   15  C   UNK N   1      33.341  17.266   5.683  0.00  0.00     0.219 C 
HETATM   16  C   UNK N   1      32.893  17.552   4.293  0.00  0.00     0.117 C 
HETATM   17  O   UNK N   1      34.192  17.983   6.189  0.00  0.00    -0.274 OA
ATOM     18  HN  UNK N   1      32.089  15.662   5.864  1.00  0.00     0.171 HD
ENDBRANCH   1  14
TORSDOF 3
ENDMDL
MODEL 7
REMARK VINA RESULT:      -4.9      4.862      7.484
REMARK  3 active torsions:
REMARK  status: ('A' for Active; 'I' for Inactive)
REMARK       I    between atoms: N_4  and  C_2 
REMARK    1  A    between atoms: N_4  and  C_6 
REMARK    2  A    between atoms: C_10  and  S_12 
REMARK    3  A    between atoms: S_12  and  N_15 
ROOT
HETATM    1  C   UNK N   1      30.052  17.265   7.437  0.00  0.00     0.170 A 
HETATM    2  N   UNK N   1      30.321  17.910   8.611  0.00  0.00    -0.274 N 
HETATM    3  N   UNK N   1      31.637  18.113   8.841  0.00  0.00    -0.279 N 
ATOM      4  HN  UNK N   1      31.997  18.573   9.677  1.00  0.00     0.188 HD
HETATM    5  C   UNK N   1      32.433  17.639   7.839  0.00  0.00     0.209 A 
HETATM    6  S   UNK N   1      31.486  16.951   6.680  0.00  0.00    -0.019 SA
HETATM    7  C   UNK N   1      29.300  18.342   9.552  0.00  0.00     0.180 C 
ENDROOT
BRANCH   5   8
HETATM    8  S   UNK N   1      34.223  17.675   7.772  0.00  0.00     0.280 S 
HETATM    9  O   UNK N   1      35.173  16.540   8.183  0.00  0.00    -0.199 OA
HETATM   10  O   UNK N   1      34.844  18.961   8.334  0.00  0.00    -0.199 OA
BRANCH   8  11
HETATM   11  N   UNK N   1      33.764  17.431   9.459  0.00  0.00    -0.323 N 
HETATM   12  H   UNK N   1      33.670  17.438  10.474  0.00  0.00     0.169 HD
HETATM   13  H   UNK N   1      33.006  16.773   9.278  0.00  0.00     0.169 HD
ENDBRANCH   8  11
ENDBRANCH   5   8
BRANCH   1  14
HETATM   14  N   UNK N   1      28.858  16.965   7.035  0.00  0.00    -0.306 N 
HETATM   15  C   UNK N   1      28.122  17.661   6.119  0.00  0.00     0.219 C 
HETATM   16  C   UNK N   1      26.764  17.173   5.756  0.00  0.00     0.117 C 
HETATM   17  O   UNK N   1      28.548  18.674   5.584  0.00  0.00    -0.274 OA
ATOM     18  HN  UNK N   1      28.429  16.133   7.439  1.00  0.00     0.171 HD
ENDBRANCH   1  14
TORSDOF 3
ENDMDL
MODEL 8
REMARK VINA RESULT:      -4.9     12.010     14.265
REMARK  3 active torsions:
REMARK  status: ('A' for Active; 'I' for Inactive)
REMARK       I    between atoms: N_4  and  C_2 
REMARK    1  A    between atoms: N_4  and  C_6 
REMARK    2  A    between atoms: C_10  and  S_12 
REMARK    3  A    between atoms: S_12  and  N_15 
ROOT
HETATM    1  C   UNK N   1      22.978  18.900   3.838  0.00  0.00     0.170 A 
HETATM    2  N   UNK N   1      23.436  18.286   4.969  0.00  0.00    -0.274 N 
HETATM    3  N   UNK N   1      24.647  18.720   5.382  0.00  0.00    -0.279 N 
ATOM      4  HN  UNK N   1      25.125  18.353   6.205  1.00  0.00     0.188 HD
HETATM    5  C   UNK N   1      25.163  19.700   4.585  0.00  0.00     0.209 A 
HETATM    6  S   UNK N   1      24.108  20.004   3.356  0.00  0.00    -0.019 SA
HETATM    7  C   UNK N   1      22.708  17.246   5.680  0.00  0.00     0.180 C 
ENDROOT
BRANCH   5   8
HETATM    8  S   UNK N   1      26.748  20.514   4.762  0.00  0.00     0.280 S 
HETATM    9  O   UNK N   1      28.129  19.843   4.700  0.00  0.00    -0.199 OA
HETATM   10  O   UNK N   1      26.818  21.500   5.936  0.00  0.00    -0.199 OA
BRANCH   8  11
HETATM   11  N   UNK N   1      26.617  19.329   6.063  0.00  0.00    -0.323 N 
HETATM   12  H   UNK N   1      26.361  18.570   6.694  0.00  0.00     0.169 HD
HETATM   13  H   UNK N   1      27.421  19.658   6.599  0.00  0.00     0.169 HD
ENDBRANCH   8  11
ENDBRANCH   5   8
BRANCH   1  14
HETATM   14  N   UNK N   1      21.847  18.621   3.273  0.00  0.00    -0.306 N 
HETATM   15  C   UNK N   1      20.688  19.332   3.406  0.00  0.00     0.219 C 
HETATM   16  C   UNK N   1      19.473  18.882   2.674  0.00  0.00     0.117 C 
HETATM   17  O   UNK N   1      20.620  20.332   4.106  0.00  0.00    -0.274 OA
ATOM     18  HN  UNK N   1      21.819  17.797   2.674  1.00  0.00     0.171 HD
ENDBRANCH   1  14
TORSDOF 3
ENDMDL
MODEL 9
REMARK VINA RESULT:      -4.7      2.435      5.693
REMARK  3 active torsions:
REMARK  status: ('A' for Active; 'I' for Inactive)
REMARK       I    between atoms: N_4  and  C_2 
REMARK    1  A    between atoms: N_4  and  C_6 
REMARK    2  A    between atoms: C_10  and  S_12 
REMARK    3  A    between atoms: S_12  and  N_15 
ROOT
HETATM    1  C   UNK N   1      35.725  14.655  10.528  0.00  0.00     0.170 A 
HETATM    2  N   UNK N   1      37.011  14.204  10.621  0.00  0.00    -0.274 N 
HETATM    3  N   UNK N   1      37.295  13.581  11.786  0.00  0.00    -0.279 N 
ATOM      4  HN  UNK N   1      38.214  13.197  12.009  1.00  0.00     0.188 HD
HETATM    5  C   UNK N   1      36.226  13.519  12.632  0.00  0.00     0.209 A 
HETATM    6  S   UNK N   1      34.937  14.261  11.925  0.00  0.00    -0.019 SA
HETATM    7  C   UNK N   1      38.008  14.375   9.577  0.00  0.00     0.180 C 
ENDROOT
BRANCH   5   8
HETATM    8  S   UNK N   1      36.191  12.814  14.279  0.00  0.00     0.280 S 
HETATM    9  O   UNK N   1      35.499  13.414  15.512  0.00  0.00    -0.199 OA
HETATM   10  O   UNK N   1      37.554  12.309  14.772  0.00  0.00    -0.199 OA
BRANCH   8  11
HETATM   11  N   UNK N   1      36.988  14.384  14.396  0.00  0.00    -0.323 N 
HETATM   12  H   UNK N   1      37.345  15.331  14.262  0.00  0.00     0.169 HD
HETATM   13  H   UNK N   1      37.448  14.214  15.290  0.00  0.00     0.169 HD
ENDBRANCH   8  11
ENDBRANCH   5   8
BRANCH   1  14
HETATM   14  N   UNK N   1      35.254  15.286   9.500  0.00  0.00    -0.306 N 
HETATM   15  C   UNK N   1      35.086  16.638   9.399  0.00  0.00     0.219 C 
HETATM   16  C   UNK N   1      34.541  17.209   8.137  0.00  0.00     0.117 C 
HETATM   17  O   UNK N   1      35.375  17.396  10.314  0.00  0.00    -0.274 OA
ATOM     18  HN  UNK N   1      34.985  14.723   8.694  1.00  0.00     0.171 HD
ENDBRANCH   1  14
TORSDOF 3
ENDMDL
