MODEL 1
REMARK VINA RESULT:      -4.2      0.000      0.000
REMARK  4 active torsions:
REMARK  status: ('A' for Active; 'I' for Inactive)
REMARK    1  A    between atoms: P_1  and  O_2 
REMARK    2  A    between atoms: P_1  and  O_3 
REMARK    3  A    between atoms: P_1  and  C_7 
REMARK    4  A    between atoms: O_5  and  C_7 
ROOT
HETATM    1  P   UNK N   1      20.852  20.715   1.381  0.00  0.00     0.335 P 
HETATM    2  O   UNK N   1      22.390  20.683   1.590  0.00  0.00    -0.646 OA
ENDROOT
BRANCH   1   3
HETATM    3  O   UNK N   1      20.500  22.374   1.003  0.00  0.00    -0.322 OA
HETATM    4  H   UNK N   1      20.911  23.181   0.659  0.00  0.00     0.220 HD
ENDBRANCH   1   3
BRANCH   1   5
HETATM    5  O   UNK N   1      20.598  19.794  -0.064  0.00  0.00    -0.322 OA
HETATM    6  H   UNK N   1      19.863  19.564  -0.654  0.00  0.00     0.220 HD
ENDBRANCH   1   5
BRANCH   1   7
HETATM    7  C   UNK N   1      20.001  20.028   2.854  0.00  0.00     0.255 C 
HETATM    8  O   UNK N   1      20.349  20.367   3.973  0.00  0.00    -0.641 OA
BRANCH   7   9
HETATM    9  O   UNK N   1      18.981  19.164   2.700  0.00  0.00    -0.768 OA
HETATM   10  H   UNK N   1      18.126  19.369   3.023  0.00  0.00     0.168 HD
ENDBRANCH   7   9
ENDBRANCH   1   7
TORSDOF 4
ENDMDL
MODEL 2
REMARK VINA RESULT:      -4.2      1.681      2.947
REMARK  4 active torsions:
REMARK  status: ('A' for Active; 'I' for Inactive)
REMARK    1  A    between atoms: P_1  and  O_2 
REMARK    2  A    between atoms: P_1  and  O_3 
REMARK    3  A    between atoms: P_1  and  C_7 
REMARK    4  A    between atoms: O_5  and  C_7 
ROOT
HETATM    1  P   UNK N   1      21.450  20.394   2.625  0.00  0.00     0.335 P 
HETATM    2  O   UNK N   1      21.848  19.039   3.267  0.00  0.00    -0.646 OA
ENDROOT
BRANCH   1   3
HETATM    3  O   UNK N   1      20.232  21.035   3.685  0.00  0.00    -0.322 OA
HETATM    4  H   UNK N   1      20.121  21.587   4.474  0.00  0.00     0.220 HD
ENDBRANCH   1   3
BRANCH   1   5
HETATM    5  O   UNK N   1      22.862  21.383   2.808  0.00  0.00    -0.322 OA
HETATM    6  H   UNK N   1      23.402  21.979   2.265  0.00  0.00     0.220 HD
ENDBRANCH   1   5
BRANCH   1   7
HETATM    7  C   UNK N   1      20.947  20.143   0.879  0.00  0.00     0.255 C 
HETATM    8  O   UNK N   1      21.146  21.020   0.055  0.00  0.00    -0.641 OA
BRANCH   7   9
HETATM    9  O   UNK N   1      20.375  18.985   0.503  0.00  0.00    -0.768 OA
HETATM   10  H   UNK N   1      20.817  18.169   0.627  0.00  0.00     0.168 HD
ENDBRANCH   7   9
ENDBRANCH   1   7
TORSDOF 4
ENDMDL
MODEL 3
REMARK VINA RESULT:      -4.1      1.526      3.132
REMARK  4 active torsions:
REMARK  status: ('A' for Active; 'I' for Inactive)
REMARK    1  A    between atoms: P_1  and  O_2 
REMARK    2  A    between atoms: P_1  and  O_3 
REMARK    3  A    between atoms: P_1  and  C_7 
REMARK    4  A    between atoms: O_5  and  C_7 
ROOT
HETATM    1  P   UNK N   1      21.386  20.405   2.559  0.00  0.00     0.335 P 
HETATM    2  O   UNK N   1      20.406  20.888   3.660  0.00  0.00    -0.646 OA
ENDROOT
BRANCH   1   3
HETATM    3  O   UNK N   1      22.938  20.996   3.069  0.00  0.00    -0.322 OA
HETATM    4  H   UNK N   1      23.633  21.625   2.824  0.00  0.00     0.220 HD
ENDBRANCH   1   3
BRANCH   1   5
HETATM    5  O   UNK N   1      21.409  18.681   2.734  0.00  0.00    -0.322 OA
HETATM    6  H   UNK N   1      20.775  17.962   2.883  0.00  0.00     0.220 HD
ENDBRANCH   1   5
BRANCH   1   7
HETATM    7  C   UNK N   1      20.813  20.971   0.911  0.00  0.00     0.255 C 
HETATM    8  O   UNK N   1      20.812  20.198  -0.033  0.00  0.00    -0.641 OA
BRANCH   7   9
HETATM    9  O   UNK N   1      20.375  22.233   0.746  0.00  0.00    -0.768 OA
HETATM   10  H   UNK N   1      19.459  22.424   0.721  0.00  0.00     0.168 HD
ENDBRANCH   7   9
ENDBRANCH   1   7
TORSDOF 4
ENDMDL
MODEL 4
REMARK VINA RESULT:      -4.0     15.134     16.158
REMARK  4 active torsions:
REMARK  status: ('A' for Active; 'I' for Inactive)
REMARK    1  A    between atoms: P_1  and  O_2 
REMARK    2  A    between atoms: P_1  and  O_3 
REMARK    3  A    between atoms: P_1  and  C_7 
REMARK    4  A    between atoms: O_5  and  C_7 
ROOT
HETATM    1  P   UNK N   1      34.379  16.838   9.218  0.00  0.00     0.335 P 
HETATM    2  O   UNK N   1      35.142  15.580   8.725  0.00  0.00    -0.646 OA
ENDROOT
BRANCH   1   3
HETATM    3  O   UNK N   1      32.733  16.307   9.391  0.00  0.00    -0.322 OA
HETATM    4  H   UNK N   1      31.932  16.129   8.877  0.00  0.00     0.220 HD
ENDBRANCH   1   3
BRANCH   1   5
HETATM    5  O   UNK N   1      34.999  17.116  10.812  0.00  0.00    -0.322 OA
HETATM    6  H   UNK N   1      35.682  16.749  11.396  0.00  0.00     0.220 HD
ENDBRANCH   1   5
BRANCH   1   7
HETATM    7  C   UNK N   1      34.655  18.237   8.064  0.00  0.00     0.255 C 
HETATM    8  O   UNK N   1      35.139  19.280   8.475  0.00  0.00    -0.641 OA
BRANCH   7   9
HETATM    9  O   UNK N   1      34.342  18.109   6.762  0.00  0.00    -0.768 OA
HETATM   10  H   UNK N   1      34.116  18.857   6.247  0.00  0.00     0.168 HD
ENDBRANCH   7   9
ENDBRANCH   1   7
TORSDOF 4
ENDMDL
MODEL 5
REMARK VINA RESULT:      -4.0      1.386      3.354
REMARK  4 active torsions:
REMARK  status: ('A' for Active; 'I' for Inactive)
REMARK    1  A    between atoms: P_1  and  O_2 
REMARK    2  A    between atoms: P_1  and  O_3 
REMARK    3  A    between atoms: P_1  and  C_7 
REMARK    4  A    between atoms: O_5  and  C_7 
ROOT
HETATM    1  P   UNK N   1      20.261  19.648   2.528  0.00  0.00     0.335 P 
HETATM    2  O   UNK N   1      21.293  18.497   2.659  0.00  0.00    -0.646 OA
ENDROOT
BRANCH   1   3
HETATM    3  O   UNK N   1      18.725  18.844   2.414  0.00  0.00    -0.322 OA
HETATM    4  H   UNK N   1      18.305  18.050   2.050  0.00  0.00     0.220 HD
ENDBRANCH   1   3
BRANCH   1   5
HETATM    5  O   UNK N   1      20.311  20.443   4.067  0.00  0.00    -0.322 OA
HETATM    6  H   UNK N   1      20.018  20.276   4.976  0.00  0.00     0.220 HD
ENDBRANCH   1   5
BRANCH   1   7
HETATM    7  C   UNK N   1      20.704  20.737   1.120  0.00  0.00     0.255 C 
HETATM    8  O   UNK N   1      20.904  20.256   0.016  0.00  0.00    -0.641 OA
BRANCH   7   9
HETATM    9  O   UNK N   1      20.793  22.068   1.299  0.00  0.00    -0.768 OA
HETATM   10  H   UNK N   1      21.539  22.545   0.995  0.00  0.00     0.168 HD
ENDBRANCH   7   9
ENDBRANCH   1   7
TORSDOF 4
ENDMDL
MODEL 6
REMARK VINA RESULT:      -4.0      1.388      3.283
REMARK  4 active torsions:
REMARK  status: ('A' for Active; 'I' for Inactive)
REMARK    1  A    between atoms: P_1  and  O_2 
REMARK    2  A    between atoms: P_1  and  O_3 
REMARK    3  A    between atoms: P_1  and  C_7 
REMARK    4  A    between atoms: O_5  and  C_7 
ROOT
HETATM    1  P   UNK N   1      20.183  19.309   2.705  0.00  0.00     0.335 P 
HETATM    2  O   UNK N   1      20.869  17.961   3.052  0.00  0.00    -0.646 OA
ENDROOT
BRANCH   1   3
HETATM    3  O   UNK N   1      18.506  18.902   2.501  0.00  0.00    -0.322 OA
HETATM    4  H   UNK N   1      17.722  18.626   3.000  0.00  0.00     0.220 HD
ENDBRANCH   1   3
BRANCH   1   5
HETATM    5  O   UNK N   1      20.312  20.240   4.161  0.00  0.00    -0.322 OA
HETATM    6  H   UNK N   1      20.776  21.034   4.472  0.00  0.00     0.220 HD
ENDBRANCH   1   5
BRANCH   1   7
HETATM    7  C   UNK N   1      21.005  20.082   1.259  0.00  0.00     0.255 C 
HETATM    8  O   UNK N   1      21.967  20.813   1.424  0.00  0.00    -0.641 OA
BRANCH   7   9
HETATM    9  O   UNK N   1      20.558  19.830   0.015  0.00  0.00    -0.768 OA
HETATM   10  H   UNK N   1      19.858  19.225  -0.130  0.00  0.00     0.168 HD
ENDBRANCH   7   9
ENDBRANCH   1   7
TORSDOF 4
ENDMDL
MODEL 7
REMARK VINA RESULT:      -4.0      1.434      3.232
REMARK  4 active torsions:
REMARK  status: ('A' for Active; 'I' for Inactive)
REMARK    1  A    between atoms: P_1  and  O_2 
REMARK    2  A    between atoms: P_1  and  O_3 
REMARK    3  A    between atoms: P_1  and  C_7 
REMARK    4  A    between atoms: O_5  and  C_7 
ROOT
HETATM    1  P   UNK N   1      20.300  19.503   2.627  0.00  0.00     0.335 P 
HETATM    2  O   UNK N   1      20.196  20.529   3.786  0.00  0.00    -0.646 OA
ENDROOT
BRANCH   1   3
HETATM    3  O   UNK N   1      21.113  18.137   3.328  0.00  0.00    -0.322 OA
HETATM    4  H   UNK N   1      20.990  17.427   3.976  0.00  0.00     0.220 HD
ENDBRANCH   1   3
BRANCH   1   5
HETATM    5  O   UNK N   1      18.660  19.028   2.328  0.00  0.00    -0.322 OA
HETATM    6  H   UNK N   1      17.903  18.690   2.832  0.00  0.00     0.220 HD
ENDBRANCH   1   5
BRANCH   1   7
HETATM    7  C   UNK N   1      21.122  20.270   1.177  0.00  0.00     0.255 C 
HETATM    8  O   UNK N   1      22.296  20.595   1.242  0.00  0.00    -0.641 OA
BRANCH   7   9
HETATM    9  O   UNK N   1      20.435  20.458   0.035  0.00  0.00    -0.768 OA
HETATM   10  H   UNK N   1      19.579  20.836   0.047  0.00  0.00     0.168 HD
ENDBRANCH   7   9
ENDBRANCH   1   7
TORSDOF 4
ENDMDL
MODEL 8
REMARK VINA RESULT:      -3.9     17.154     18.172
REMARK  4 active torsions:
REMARK  status: ('A' for Active; 'I' for Inactive)
REMARK    1  A    between atoms: P_1  and  O_2 
REMARK    2  A    between atoms: P_1  and  O_3 
REMARK    3  A    between atoms: P_1  and  C_7 
REMARK    4  A    between atoms: O_5  and  C_7 
ROOT
HETATM    1  P   UNK N   1      34.644  14.707  11.085  0.00  0.00     0.335 P 
HETATM    2  O   UNK N   1      34.844  14.108  12.503  0.00  0.00    -0.646 OA
ENDROOT
BRANCH   1   3
HETATM    3  O   UNK N   1      34.941  13.379  10.006  0.00  0.00    -0.322 OA
HETATM    4  H   UNK N   1      35.382  13.158   9.172  0.00  0.00     0.220 HD
ENDBRANCH   1   3
BRANCH   1   5
HETATM    5  O   UNK N   1      32.949  15.063  11.009  0.00  0.00    -0.322 OA
HETATM    6  H   UNK N   1      32.360  15.669  10.533  0.00  0.00     0.220 HD
ENDBRANCH   1   5
BRANCH   1   7
HETATM    7  C   UNK N   1      35.718  16.178  10.865  0.00  0.00     0.255 C 
HETATM    8  O   UNK N   1      35.218  17.280  10.711  0.00  0.00    -0.641 OA
BRANCH   7   9
HETATM    9  O   UNK N   1      37.056  16.045  10.891  0.00  0.00    -0.768 OA
HETATM   10  H   UNK N   1      37.600  16.545  10.316  0.00  0.00     0.168 HD
ENDBRANCH   7   9
ENDBRANCH   1   7
TORSDOF 4
ENDMDL
MODEL 9
REMARK VINA RESULT:      -3.9      1.448      2.827
REMARK  4 active torsions:
REMARK  status: ('A' for Active; 'I' for Inactive)
REMARK    1  A    between atoms: P_1  and  O_2 
REMARK    2  A    between atoms: P_1  and  O_3 
REMARK    3  A    between atoms: P_1  and  C_7 
REMARK    4  A    between atoms: O_5  and  C_7 
ROOT
HETATM    1  P   UNK N   1      20.205  18.890   2.087  0.00  0.00     0.335 P 
HETATM    2  O   UNK N   1      20.948  17.682   2.716  0.00  0.00    -0.646 OA
ENDROOT
BRANCH   1   3
HETATM    3  O   UNK N   1      20.375  18.660   0.374  0.00  0.00    -0.322 OA
HETATM    4  H   UNK N   1      19.917  18.288  -0.395  0.00  0.00     0.220 HD
ENDBRANCH   1   3
BRANCH   1   5
HETATM    5  O   UNK N   1      18.539  18.618   2.480  0.00  0.00    -0.322 OA
HETATM    6  H   UNK N   1      17.671  18.729   2.061  0.00  0.00     0.220 HD
ENDBRANCH   1   5
BRANCH   1   7
HETATM    7  C   UNK N   1      20.874  20.461   2.758  0.00  0.00     0.255 C 
HETATM    8  O   UNK N   1      21.859  20.971   2.250  0.00  0.00    -0.641 OA
BRANCH   7   9
HETATM    9  O   UNK N   1      20.268  21.062   3.798  0.00  0.00    -0.768 OA
HETATM   10  H   UNK N   1      20.227  21.995   3.856  0.00  0.00     0.168 HD
ENDBRANCH   7   9
ENDBRANCH   1   7
TORSDOF 4
ENDMDL
