MODEL 1
REMARK VINA RESULT:      -6.1      0.000      0.000
REMARK  15 active torsions:
REMARK  status: ('A' for Active; 'I' for Inactive)
REMARK    1  A    between atoms: C_8  and  O_1 
REMARK    2  A    between atoms: C_15  and  O_3 
REMARK    3  A    between atoms: O_4  and  C_25 
REMARK    4  A    between atoms: C_6  and  C_12 
REMARK    5  A    between atoms: C_7  and  C_11 
REMARK    6  A    between atoms: C_11  and  C_14 
REMARK    7  A    between atoms: C_13  and  C_15 
REMARK    8  A    between atoms: C_15  and  C_16 
REMARK    9  A    between atoms: C_16  and  C_17 
REMARK   10  A    between atoms: C_17  and  C_19 
REMARK   11  A    between atoms: C_18  and  C_20 
REMARK   12  A    between atoms: C_19  and  C_21 
REMARK   13  A    between atoms: C_20  and  C_22 
REMARK   14  A    between atoms: C_22  and  C_23 
REMARK   15  A    between atoms: C_23  and  C_25 
ROOT
HETATM    1  O   UNK N   1      27.527  20.408   4.362  0.00  0.00    -0.297 OA
HETATM    2  C   UNK N   1      28.411  17.920   6.632  0.00  0.00     0.048 C 
HETATM    3  C   UNK N   1      28.615  18.473   5.239  0.00  0.00     0.069 C 
HETATM    4  C   UNK N   1      28.265  19.138   7.533  0.00  0.00     0.133 C 
HETATM    5  C   UNK N   1      27.419  20.100   6.716  0.00  0.00     0.111 C 
HETATM    6  C   UNK N   1      27.806  19.721   5.332  0.00  0.00     0.134 C 
ENDROOT
BRANCH   2   7
HETATM    7  C   UNK N   1      29.476  16.961   7.062  0.00  0.00    -0.020 C 
HETATM    8  C   UNK N   1      30.530  17.441   7.714  0.00  0.00     0.001 C 
BRANCH   8   9
HETATM    9  C   UNK N   1      31.667  16.593   8.161  0.00  0.00     0.140 C 
BRANCH   9  10
HETATM   10  O   UNK N   1      32.464  17.291   9.072  0.00  0.00    -0.392 OA
HETATM   11  H   UNK N   1      33.422  17.154   9.134  0.00  0.00     0.210 HD
ENDBRANCH   9  10
BRANCH   9  12
HETATM   12  C   UNK N   1      32.461  16.285   6.911  0.00  0.00     0.036 C 
BRANCH  12  13
HETATM   13  C   UNK N   1      33.201  17.492   6.384  0.00  0.00     0.003 C 
BRANCH  13  14
HETATM   14  C   UNK N   1      33.316  17.314   4.885  0.00  0.00    -0.000 C 
BRANCH  14  15
HETATM   15  C   UNK N   1      32.036  17.723   4.195  0.00  0.00    -0.005 C 
HETATM   16  C   UNK N   1      31.633  16.630   3.228  0.00  0.00     0.005 C 
ENDBRANCH  14  15
ENDBRANCH  13  14
ENDBRANCH  12  13
ENDBRANCH   9  12
ENDBRANCH   8   9
ENDBRANCH   2   7
BRANCH   3  17
HETATM   17  C   UNK N   1      28.038  17.477   4.249  0.00  0.00     0.040 C 
BRANCH  17  18
HETATM   18  C   UNK N   1      26.990  16.645   4.916  0.00  0.00    -0.030 C 
HETATM   19  C   UNK N   1      25.693  16.776   4.614  0.00  0.00    -0.031 C 
BRANCH  19  20
HETATM   20  C   UNK N   1      25.204  17.791   3.627  0.00  0.00     0.027 C 
BRANCH  20  21
HETATM   21  C   UNK N   1      24.511  18.920   4.359  0.00  0.00     0.014 C 
BRANCH  21  22
HETATM   22  C   UNK N   1      23.287  19.365   3.573  0.00  0.00     0.110 C 
BRANCH  22  23
HETATM   23  C   UNK N   1      23.507  20.660   2.846  0.00  0.00     0.139 C 
HETATM   24  O   UNK N   1      22.655  21.533   2.842  0.00  0.00    -0.650 OA
BRANCH  23  25
HETATM   25  O   UNK N   1      24.663  20.854   2.182  0.00  0.00    -0.776 OA
HETATM   26  H   UNK N   1      25.225  21.567   2.414  0.00  0.00     0.167 HD
ENDBRANCH  23  25
ENDBRANCH  22  23
ENDBRANCH  21  22
ENDBRANCH  20  21
ENDBRANCH  19  20
ENDBRANCH  17  18
ENDBRANCH   3  17
BRANCH   4  27
HETATM   27  O   UNK N   1      27.631  18.810   8.731  0.00  0.00    -0.394 OA
HETATM   28  H   UNK N   1      27.022  19.346   9.265  0.00  0.00     0.210 HD
ENDBRANCH   4  27
TORSDOF 15
ENDMDL
MODEL 2
REMARK VINA RESULT:      -5.9     10.440     14.123
REMARK  15 active torsions:
REMARK  status: ('A' for Active; 'I' for Inactive)
REMARK    1  A    between atoms: C_8  and  O_1 
REMARK    2  A    between atoms: C_15  and  O_3 
REMARK    3  A    between atoms: O_4  and  C_25 
REMARK    4  A    between atoms: C_6  and  C_12 
REMARK    5  A    between atoms: C_7  and  C_11 
REMARK    6  A    between atoms: C_11  and  C_14 
REMARK    7  A    between atoms: C_13  and  C_15 
REMARK    8  A    between atoms: C_15  and  C_16 
REMARK    9  A    between atoms: C_16  and  C_17 
REMARK   10  A    between atoms: C_17  and  C_19 
REMARK   11  A    between atoms: C_18  and  C_20 
REMARK   12  A    between atoms: C_19  and  C_21 
REMARK   13  A    between atoms: C_20  and  C_22 
REMARK   14  A    between atoms: C_22  and  C_23 
REMARK   15  A    between atoms: C_23  and  C_25 
ROOT
HETATM    1  O   UNK N   1      27.398  20.990 -10.269  0.00  0.00    -0.297 OA
HETATM    2  C   UNK N   1      26.466  22.595  -7.322  0.00  0.00     0.048 C 
HETATM    3  C   UNK N   1      27.339  22.652  -8.557  0.00  0.00     0.069 C 
HETATM    4  C   UNK N   1      25.151  21.986  -7.786  0.00  0.00     0.133 C 
HETATM    5  C   UNK N   1      25.571  20.892  -8.752  0.00  0.00     0.111 C 
HETATM    6  C   UNK N   1      26.842  21.451  -9.285  0.00  0.00     0.134 C 
ENDROOT
BRANCH   2   7
HETATM    7  C   UNK N   1      26.324  23.910  -6.625  0.00  0.00    -0.020 C 
HETATM    8  C   UNK N   1      26.597  23.968  -5.326  0.00  0.00     0.001 C 
BRANCH   8   9
HETATM    9  C   UNK N   1      26.460  25.209  -4.518  0.00  0.00     0.140 C 
BRANCH   9  10
HETATM   10  O   UNK N   1      26.346  24.896  -3.161  0.00  0.00    -0.392 OA
HETATM   11  H   UNK N   1      26.909  24.232  -2.733  0.00  0.00     0.210 HD
ENDBRANCH   9  10
BRANCH   9  12
HETATM   12  C   UNK N   1      25.190  25.872  -5.003  0.00  0.00     0.036 C 
BRANCH  12  13
HETATM   13  C   UNK N   1      25.449  27.203  -5.668  0.00  0.00     0.003 C 
BRANCH  13  14
HETATM   14  C   UNK N   1      25.811  28.178  -4.568  0.00  0.00    -0.000 C 
BRANCH  14  15
HETATM   15  C   UNK N   1      26.996  29.024  -4.969  0.00  0.00    -0.005 C 
HETATM   16  C   UNK N   1      27.512  28.540  -6.307  0.00  0.00     0.005 C 
ENDBRANCH  14  15
ENDBRANCH  13  14
ENDBRANCH  12  13
ENDBRANCH   9  12
ENDBRANCH   8   9
ENDBRANCH   2   7
BRANCH   3  17
HETATM   17  C   UNK N   1      28.784  22.511  -8.117  0.00  0.00     0.040 C 
BRANCH  17  18
HETATM   18  C   UNK N   1      28.899  21.445  -7.076  0.00  0.00    -0.030 C 
HETATM   19  C   UNK N   1      29.690  21.590  -6.007  0.00  0.00    -0.031 C 
BRANCH  19  20
HETATM   20  C   UNK N   1      30.542  22.805  -5.806  0.00  0.00     0.027 C 
BRANCH  20  21
HETATM   21  C   UNK N   1      30.760  23.035  -4.326  0.00  0.00     0.014 C 
BRANCH  21  22
HETATM   22  C   UNK N   1      29.680  22.317  -3.531  0.00  0.00     0.110 C 
BRANCH  22  23
HETATM   23  C   UNK N   1      29.459  22.926  -2.177  0.00  0.00     0.139 C 
HETATM   24  O   UNK N   1      30.397  23.183  -1.441  0.00  0.00    -0.650 OA
BRANCH  23  25
HETATM   25  O   UNK N   1      28.202  23.185  -1.768  0.00  0.00    -0.776 OA
HETATM   26  H   UNK N   1      27.510  23.266  -2.395  0.00  0.00     0.167 HD
ENDBRANCH  23  25
ENDBRANCH  22  23
ENDBRANCH  21  22
ENDBRANCH  20  21
ENDBRANCH  19  20
ENDBRANCH  17  18
ENDBRANCH   3  17
BRANCH   4  27
HETATM   27  O   UNK N   1      24.431  21.457  -6.715  0.00  0.00    -0.394 OA
HETATM   28  H   UNK N   1      23.481  21.525  -6.526  0.00  0.00     0.210 HD
ENDBRANCH   4  27
TORSDOF 15
ENDMDL
MODEL 3
REMARK VINA RESULT:      -5.9      1.400      2.204
REMARK  15 active torsions:
REMARK  status: ('A' for Active; 'I' for Inactive)
REMARK    1  A    between atoms: C_8  and  O_1 
REMARK    2  A    between atoms: C_15  and  O_3 
REMARK    3  A    between atoms: O_4  and  C_25 
REMARK    4  A    between atoms: C_6  and  C_12 
REMARK    5  A    between atoms: C_7  and  C_11 
REMARK    6  A    between atoms: C_11  and  C_14 
REMARK    7  A    between atoms: C_13  and  C_15 
REMARK    8  A    between atoms: C_15  and  C_16 
REMARK    9  A    between atoms: C_16  and  C_17 
REMARK   10  A    between atoms: C_17  and  C_19 
REMARK   11  A    between atoms: C_18  and  C_20 
REMARK   12  A    between atoms: C_19  and  C_21 
REMARK   13  A    between atoms: C_20  and  C_22 
REMARK   14  A    between atoms: C_22  and  C_23 
REMARK   15  A    between atoms: C_23  and  C_25 
ROOT
HETATM    1  O   UNK N   1      27.525  19.431   7.344  0.00  0.00    -0.297 OA
HETATM    2  C   UNK N   1      29.918  17.048   8.193  0.00  0.00     0.048 C 
HETATM    3  C   UNK N   1      29.432  18.011   7.132  0.00  0.00     0.069 C 
HETATM    4  C   UNK N   1      29.690  17.759   9.519  0.00  0.00     0.133 C 
HETATM    5  C   UNK N   1      28.343  18.441   9.344  0.00  0.00     0.111 C 
HETATM    6  C   UNK N   1      28.335  18.689   7.878  0.00  0.00     0.134 C 
ENDROOT
BRANCH   2   7
HETATM    7  C   UNK N   1      31.322  16.578   7.981  0.00  0.00    -0.020 C 
HETATM    8  C   UNK N   1      32.317  17.395   8.308  0.00  0.00     0.001 C 
BRANCH   8   9
HETATM    9  C   UNK N   1      33.751  17.054   8.113  0.00  0.00     0.140 C 
BRANCH   9  10
HETATM   10  O   UNK N   1      34.554  17.823   8.959  0.00  0.00    -0.392 OA
HETATM   11  H   UNK N   1      34.850  17.503   9.825  0.00  0.00     0.210 HD
ENDBRANCH   9  10
BRANCH   9  12
HETATM   12  C   UNK N   1      34.056  17.387   6.669  0.00  0.00     0.036 C 
BRANCH  12  13
HETATM   13  C   UNK N   1      34.422  16.167   5.857  0.00  0.00     0.003 C 
BRANCH  13  14
HETATM   14  C   UNK N   1      33.302  15.952   4.863  0.00  0.00    -0.000 C 
BRANCH  14  15
HETATM   15  C   UNK N   1      32.755  17.272   4.374  0.00  0.00    -0.005 C 
HETATM   16  C   UNK N   1      32.226  17.089   2.967  0.00  0.00     0.005 C 
ENDBRANCH  14  15
ENDBRANCH  13  14
ENDBRANCH  12  13
ENDBRANCH   9  12
ENDBRANCH   8   9
ENDBRANCH   2   7
BRANCH   3  17
HETATM   17  C   UNK N   1      28.921  17.196   5.958  0.00  0.00     0.040 C 
BRANCH  17  18
HETATM   18  C   UNK N   1      29.104  17.963   4.688  0.00  0.00    -0.030 C 
HETATM   19  C   UNK N   1      28.058  18.391   3.970  0.00  0.00    -0.031 C 
BRANCH  19  20
HETATM   20  C   UNK N   1      26.645  18.092   4.365  0.00  0.00     0.027 C 
BRANCH  20  21
HETATM   21  C   UNK N   1      25.866  19.383   4.486  0.00  0.00     0.014 C 
BRANCH  21  22
HETATM   22  C   UNK N   1      24.596  19.296   3.655  0.00  0.00     0.110 C 
BRANCH  22  23
HETATM   23  C   UNK N   1      24.370  20.521   2.816  0.00  0.00     0.139 C 
HETATM   24  O   UNK N   1      25.216  20.909   2.028  0.00  0.00    -0.650 OA
BRANCH  23  25
HETATM   25  O   UNK N   1      23.216  21.204   2.946  0.00  0.00    -0.776 OA
HETATM   26  H   UNK N   1      22.868  21.682   2.220  0.00  0.00     0.167 HD
ENDBRANCH  23  25
ENDBRANCH  22  23
ENDBRANCH  21  22
ENDBRANCH  20  21
ENDBRANCH  19  20
ENDBRANCH  17  18
ENDBRANCH   3  17
BRANCH   4  27
HETATM   27  O   UNK N   1      29.657  16.855  10.581  0.00  0.00    -0.394 OA
HETATM   28  H   UNK N   1      30.019  15.956  10.627  0.00  0.00     0.210 HD
ENDBRANCH   4  27
TORSDOF 15
ENDMDL
MODEL 4
REMARK VINA RESULT:      -5.8     10.405     14.410
REMARK  15 active torsions:
REMARK  status: ('A' for Active; 'I' for Inactive)
REMARK    1  A    between atoms: C_8  and  O_1 
REMARK    2  A    between atoms: C_15  and  O_3 
REMARK    3  A    between atoms: O_4  and  C_25 
REMARK    4  A    between atoms: C_6  and  C_12 
REMARK    5  A    between atoms: C_7  and  C_11 
REMARK    6  A    between atoms: C_11  and  C_14 
REMARK    7  A    between atoms: C_13  and  C_15 
REMARK    8  A    between atoms: C_15  and  C_16 
REMARK    9  A    between atoms: C_16  and  C_17 
REMARK   10  A    between atoms: C_17  and  C_19 
REMARK   11  A    between atoms: C_18  and  C_20 
REMARK   12  A    between atoms: C_19  and  C_21 
REMARK   13  A    between atoms: C_20  and  C_22 
REMARK   14  A    between atoms: C_22  and  C_23 
REMARK   15  A    between atoms: C_23  and  C_25 
ROOT
HETATM    1  O   UNK N   1      28.235  20.869  -8.880  0.00  0.00    -0.297 OA
HETATM    2  C   UNK N   1      25.915  22.833  -7.180  0.00  0.00     0.048 C 
HETATM    3  C   UNK N   1      27.359  22.691  -7.611  0.00  0.00     0.069 C 
HETATM    4  C   UNK N   1      25.093  22.300  -8.344  0.00  0.00     0.133 C 
HETATM    5  C   UNK N   1      25.869  21.083  -8.817  0.00  0.00     0.111 C 
HETATM    6  C   UNK N   1      27.259  21.472  -8.461  0.00  0.00     0.134 C 
ENDROOT
BRANCH   2   7
HETATM    7  C   UNK N   1      25.549  24.219  -6.751  0.00  0.00    -0.020 C 
HETATM    8  C   UNK N   1      26.002  25.241  -7.468  0.00  0.00     0.001 C 
BRANCH   8   9
HETATM    9  C   UNK N   1      25.733  26.663  -7.122  0.00  0.00     0.140 C 
BRANCH   9  10
HETATM   10  O   UNK N   1      26.923  27.394  -7.114  0.00  0.00    -0.392 OA
HETATM   11  H   UNK N   1      27.194  27.952  -7.860  0.00  0.00     0.210 HD
ENDBRANCH   9  10
BRANCH   9  12
HETATM   12  C   UNK N   1      25.135  26.636  -5.732  0.00  0.00     0.036 C 
BRANCH  12  13
HETATM   13  C   UNK N   1      25.676  27.736  -4.848  0.00  0.00     0.003 C 
BRANCH  13  14
HETATM   14  C   UNK N   1      26.083  27.086  -3.544  0.00  0.00    -0.000 C 
BRANCH  14  15
HETATM   15  C   UNK N   1      26.551  25.669  -3.770  0.00  0.00    -0.005 C 
HETATM   16  C   UNK N   1      28.046  25.680  -4.007  0.00  0.00     0.005 C 
ENDBRANCH  14  15
ENDBRANCH  13  14
ENDBRANCH  12  13
ENDBRANCH   9  12
ENDBRANCH   8   9
ENDBRANCH   2   7
BRANCH   3  17
HETATM   17  C   UNK N   1      28.200  22.468  -6.368  0.00  0.00     0.040 C 
BRANCH  17  18
HETATM   18  C   UNK N   1      29.591  22.963  -6.598  0.00  0.00    -0.030 C 
HETATM   19  C   UNK N   1      30.655  22.168  -6.436  0.00  0.00    -0.031 C 
BRANCH  19  20
HETATM   20  C   UNK N   1      30.527  20.750  -5.973  0.00  0.00     0.027 C 
BRANCH  20  21
HETATM   21  C   UNK N   1      31.223  20.584  -4.640  0.00  0.00     0.014 C 
BRANCH  21  22
HETATM   22  C   UNK N   1      30.407  21.257  -3.548  0.00  0.00     0.110 C 
BRANCH  22  23
HETATM   23  C   UNK N   1      31.253  22.082  -2.621  0.00  0.00     0.139 C 
HETATM   24  O   UNK N   1      32.331  21.674  -2.221  0.00  0.00    -0.650 OA
BRANCH  23  25
HETATM   25  O   UNK N   1      30.806  23.288  -2.219  0.00  0.00    -0.776 OA
HETATM   26  H   UNK N   1      30.033  23.353  -1.695  0.00  0.00     0.167 HD
ENDBRANCH  23  25
ENDBRANCH  22  23
ENDBRANCH  21  22
ENDBRANCH  20  21
ENDBRANCH  19  20
ENDBRANCH  17  18
ENDBRANCH   3  17
BRANCH   4  27
HETATM   27  O   UNK N   1      23.807  21.945  -7.936  0.00  0.00    -0.394 OA
HETATM   28  H   UNK N   1      23.011  22.497  -7.881  0.00  0.00     0.210 HD
ENDBRANCH   4  27
TORSDOF 15
ENDMDL
MODEL 5
REMARK VINA RESULT:      -5.7     10.838     12.540
REMARK  15 active torsions:
REMARK  status: ('A' for Active; 'I' for Inactive)
REMARK    1  A    between atoms: C_8  and  O_1 
REMARK    2  A    between atoms: C_15  and  O_3 
REMARK    3  A    between atoms: O_4  and  C_25 
REMARK    4  A    between atoms: C_6  and  C_12 
REMARK    5  A    between atoms: C_7  and  C_11 
REMARK    6  A    between atoms: C_11  and  C_14 
REMARK    7  A    between atoms: C_13  and  C_15 
REMARK    8  A    between atoms: C_15  and  C_16 
REMARK    9  A    between atoms: C_16  and  C_17 
REMARK   10  A    between atoms: C_17  and  C_19 
REMARK   11  A    between atoms: C_18  and  C_20 
REMARK   12  A    between atoms: C_19  and  C_21 
REMARK   13  A    between atoms: C_20  and  C_22 
REMARK   14  A    between atoms: C_22  and  C_23 
REMARK   15  A    between atoms: C_23  and  C_25 
ROOT
HETATM    1  O   UNK N   1      29.515  26.361  -5.125  0.00  0.00    -0.297 OA
HETATM    2  C   UNK N   1      29.687  23.036  -4.105  0.00  0.00     0.048 C 
HETATM    3  C   UNK N   1      29.468  23.979  -5.268  0.00  0.00     0.069 C 
HETATM    4  C   UNK N   1      30.767  23.689  -3.254  0.00  0.00     0.133 C 
HETATM    5  C   UNK N   1      30.411  25.166  -3.277  0.00  0.00     0.111 C 
HETATM    6  C   UNK N   1      29.752  25.283  -4.605  0.00  0.00     0.134 C 
ENDROOT
BRANCH   2   7
HETATM    7  C   UNK N   1      29.994  21.632  -4.519  0.00  0.00    -0.020 C 
HETATM    8  C   UNK N   1      30.956  21.434  -5.414  0.00  0.00     0.001 C 
BRANCH   8   9
HETATM    9  C   UNK N   1      31.329  20.089  -5.927  0.00  0.00     0.140 C 
BRANCH   9  10
HETATM   10  O   UNK N   1      32.640  19.776  -5.560  0.00  0.00    -0.392 OA
HETATM   11  H   UNK N   1      33.373  20.402  -5.671  0.00  0.00     0.210 HD
ENDBRANCH   9  10
BRANCH   9  12
HETATM   12  C   UNK N   1      31.223  20.184  -7.433  0.00  0.00     0.036 C 
BRANCH  12  13
HETATM   13  C   UNK N   1      30.390  19.073  -8.026  0.00  0.00     0.003 C 
BRANCH  13  14
HETATM   14  C   UNK N   1      28.942  19.420  -7.754  0.00  0.00    -0.000 C 
BRANCH  14  15
HETATM   15  C   UNK N   1      28.463  20.503  -8.691  0.00  0.00    -0.005 C 
HETATM   16  C   UNK N   1      27.326  21.253  -8.029  0.00  0.00     0.005 C 
ENDBRANCH  14  15
ENDBRANCH  13  14
ENDBRANCH  12  13
ENDBRANCH   9  12
ENDBRANCH   8   9
ENDBRANCH   2   7
BRANCH   3  17
HETATM   17  C   UNK N   1      28.021  23.853  -5.709  0.00  0.00     0.040 C 
BRANCH  17  18
HETATM   18  C   UNK N   1      27.112  24.057  -4.540  0.00  0.00    -0.030 C 
HETATM   19  C   UNK N   1      25.994  24.785  -4.639  0.00  0.00    -0.031 C 
BRANCH  19  20
HETATM   20  C   UNK N   1      25.604  25.477  -5.909  0.00  0.00     0.027 C 
BRANCH  20  21
HETATM   21  C   UNK N   1      24.995  26.824  -5.588  0.00  0.00     0.014 C 
BRANCH  21  22
HETATM   22  C   UNK N   1      26.090  27.801  -5.191  0.00  0.00     0.110 C 
BRANCH  22  23
HETATM   23  C   UNK N   1      25.827  28.456  -3.866  0.00  0.00     0.139 C 
HETATM   24  O   UNK N   1      25.474  27.802  -2.899  0.00  0.00    -0.650 OA
BRANCH  23  25
HETATM   25  O   UNK N   1      25.976  29.790  -3.749  0.00  0.00    -0.776 OA
HETATM   26  H   UNK N   1      25.227  30.352  -3.779  0.00  0.00     0.167 HD
ENDBRANCH  23  25
ENDBRANCH  22  23
ENDBRANCH  21  22
ENDBRANCH  20  21
ENDBRANCH  19  20
ENDBRANCH  17  18
ENDBRANCH   3  17
BRANCH   4  27
HETATM   27  O   UNK N   1      30.755  23.193  -1.951  0.00  0.00    -0.394 OA
HETATM   28  H   UNK N   1      31.234  22.433  -1.583  0.00  0.00     0.210 HD
ENDBRANCH   4  27
TORSDOF 15
ENDMDL
MODEL 6
REMARK VINA RESULT:      -5.7      6.295     10.179
REMARK  15 active torsions:
REMARK  status: ('A' for Active; 'I' for Inactive)
REMARK    1  A    between atoms: C_8  and  O_1 
REMARK    2  A    between atoms: C_15  and  O_3 
REMARK    3  A    between atoms: O_4  and  C_25 
REMARK    4  A    between atoms: C_6  and  C_12 
REMARK    5  A    between atoms: C_7  and  C_11 
REMARK    6  A    between atoms: C_11  and  C_14 
REMARK    7  A    between atoms: C_13  and  C_15 
REMARK    8  A    between atoms: C_15  and  C_16 
REMARK    9  A    between atoms: C_16  and  C_17 
REMARK   10  A    between atoms: C_17  and  C_19 
REMARK   11  A    between atoms: C_18  and  C_20 
REMARK   12  A    between atoms: C_19  and  C_21 
REMARK   13  A    between atoms: C_20  and  C_22 
REMARK   14  A    between atoms: C_22  and  C_23 
REMARK   15  A    between atoms: C_23  and  C_25 
ROOT
HETATM    1  O   UNK N   1      34.497  13.266   8.186  0.00  0.00    -0.297 OA
HETATM    2  C   UNK N   1      36.078  14.974  10.777  0.00  0.00     0.048 C 
HETATM    3  C   UNK N   1      34.808  14.290  10.320  0.00  0.00     0.069 C 
HETATM    4  C   UNK N   1      37.214  14.141  10.201  0.00  0.00     0.133 C 
HETATM    5  C   UNK N   1      36.734  13.775   8.807  0.00  0.00     0.111 C 
HETATM    6  C   UNK N   1      35.261  13.746   9.009  0.00  0.00     0.134 C 
ENDROOT
BRANCH   2   7
HETATM    7  C   UNK N   1      36.153  15.178  12.257  0.00  0.00    -0.020 C 
HETATM    8  C   UNK N   1      36.375  14.119  13.029  0.00  0.00     0.001 C 
BRANCH   8   9
HETATM    9  C   UNK N   1      36.437  14.191  14.513  0.00  0.00     0.140 C 
BRANCH   9  10
HETATM   10  O   UNK N   1      37.370  15.150  14.914  0.00  0.00    -0.392 OA
HETATM   11  H   UNK N   1      37.990  14.997  15.643  0.00  0.00     0.210 HD
ENDBRANCH   9  10
BRANCH   9  12
HETATM   12  C   UNK N   1      36.880  12.818  14.968  0.00  0.00     0.036 C 
BRANCH  12  13
HETATM   13  C   UNK N   1      35.801  12.084  15.729  0.00  0.00     0.003 C 
BRANCH  13  14
HETATM   14  C   UNK N   1      34.929  13.138  16.376  0.00  0.00    -0.000 C 
BRANCH  14  15
HETATM   15  C   UNK N   1      35.080  13.114  17.878  0.00  0.00    -0.005 C 
HETATM   16  C   UNK N   1      35.366  11.693  18.317  0.00  0.00     0.005 C 
ENDBRANCH  14  15
ENDBRANCH  13  14
ENDBRANCH  12  13
ENDBRANCH   9  12
ENDBRANCH   8   9
ENDBRANCH   2   7
BRANCH   3  17
HETATM   17  C   UNK N   1      33.732  15.349  10.171  0.00  0.00     0.040 C 
BRANCH  17  18
HETATM   18  C   UNK N   1      34.287  16.544   9.465  0.00  0.00    -0.030 C 
HETATM   19  C   UNK N   1      33.578  17.208   8.544  0.00  0.00    -0.031 C 
BRANCH  19  20
HETATM   20  C   UNK N   1      32.207  16.773   8.129  0.00  0.00     0.027 C 
BRANCH  20  21
HETATM   21  C   UNK N   1      31.232  17.914   8.317  0.00  0.00     0.014 C 
BRANCH  21  22
HETATM   22  C   UNK N   1      29.809  17.377   8.323  0.00  0.00     0.110 C 
BRANCH  22  23
HETATM   23  C   UNK N   1      29.011  17.870   9.497  0.00  0.00     0.139 C 
HETATM   24  O   UNK N   1      27.812  17.663   9.574  0.00  0.00    -0.650 OA
BRANCH  23  25
HETATM   25  O   UNK N   1      29.634  18.558  10.474  0.00  0.00    -0.776 OA
HETATM   26  H   UNK N   1      30.565  18.657  10.459  0.00  0.00     0.167 HD
ENDBRANCH  23  25
ENDBRANCH  22  23
ENDBRANCH  21  22
ENDBRANCH  20  21
ENDBRANCH  19  20
ENDBRANCH  17  18
ENDBRANCH   3  17
BRANCH   4  27
HETATM   27  O   UNK N   1      38.401  14.871  10.145  0.00  0.00    -0.394 OA
HETATM   28  H   UNK N   1      38.994  15.128  10.869  0.00  0.00     0.210 HD
ENDBRANCH   4  27
TORSDOF 15
ENDMDL
MODEL 7
REMARK VINA RESULT:      -5.7      6.116      7.918
REMARK  15 active torsions:
REMARK  status: ('A' for Active; 'I' for Inactive)
REMARK    1  A    between atoms: C_8  and  O_1 
REMARK    2  A    between atoms: C_15  and  O_3 
REMARK    3  A    between atoms: O_4  and  C_25 
REMARK    4  A    between atoms: C_6  and  C_12 
REMARK    5  A    between atoms: C_7  and  C_11 
REMARK    6  A    between atoms: C_11  and  C_14 
REMARK    7  A    between atoms: C_13  and  C_15 
REMARK    8  A    between atoms: C_15  and  C_16 
REMARK    9  A    between atoms: C_16  and  C_17 
REMARK   10  A    between atoms: C_17  and  C_19 
REMARK   11  A    between atoms: C_18  and  C_20 
REMARK   12  A    between atoms: C_19  and  C_21 
REMARK   13  A    between atoms: C_20  and  C_22 
REMARK   14  A    between atoms: C_22  and  C_23 
REMARK   15  A    between atoms: C_23  and  C_25 
ROOT
HETATM    1  O   UNK N   1      21.037  18.579   7.208  0.00  0.00    -0.297 OA
HETATM    2  C   UNK N   1      20.217  15.279   7.961  0.00  0.00     0.048 C 
HETATM    3  C   UNK N   1      21.268  16.211   7.397  0.00  0.00     0.069 C 
HETATM    4  C   UNK N   1      19.583  16.040   9.117  0.00  0.00     0.133 C 
HETATM    5  C   UNK N   1      19.468  17.464   8.602  0.00  0.00     0.111 C 
HETATM    6  C   UNK N   1      20.624  17.527   7.668  0.00  0.00     0.134 C 
ENDROOT
BRANCH   2   7
HETATM    7  C   UNK N   1      20.745  13.929   8.329  0.00  0.00    -0.020 C 
HETATM    8  C   UNK N   1      21.076  13.705   9.596  0.00  0.00     0.001 C 
BRANCH   8   9
HETATM    9  C   UNK N   1      21.641  12.416  10.075  0.00  0.00     0.140 C 
BRANCH   9  10
HETATM   10  O   UNK N   1      21.921  12.486  11.442  0.00  0.00    -0.392 OA
HETATM   11  H   UNK N   1      21.287  12.844  12.083  0.00  0.00     0.210 HD
ENDBRANCH   9  10
BRANCH   9  12
HETATM   12  C   UNK N   1      22.923  12.219   9.296  0.00  0.00     0.036 C 
BRANCH  12  13
HETATM   13  C   UNK N   1      24.149  12.603  10.092  0.00  0.00     0.003 C 
BRANCH  13  14
HETATM   14  C   UNK N   1      25.105  13.271   9.128  0.00  0.00    -0.000 C 
BRANCH  14  15
HETATM   15  C   UNK N   1      24.421  13.575   7.816  0.00  0.00    -0.005 C 
HETATM   16  C   UNK N   1      25.403  13.337   6.688  0.00  0.00     0.005 C 
ENDBRANCH  14  15
ENDBRANCH  13  14
ENDBRANCH  12  13
ENDBRANCH   9  12
ENDBRANCH   8   9
ENDBRANCH   2   7
BRANCH   3  17
HETATM   17  C   UNK N   1      21.403  15.922   5.913  0.00  0.00     0.040 C 
BRANCH  17  18
HETATM   18  C   UNK N   1      22.848  15.880   5.532  0.00  0.00    -0.030 C 
HETATM   19  C   UNK N   1      23.311  16.535   4.461  0.00  0.00    -0.031 C 
BRANCH  19  20
HETATM   20  C   UNK N   1      22.410  17.314   3.553  0.00  0.00     0.027 C 
BRANCH  20  21
HETATM   21  C   UNK N   1      22.568  18.794   3.826  0.00  0.00     0.014 C 
BRANCH  21  22
HETATM   22  C   UNK N   1      21.218  19.484   3.710  0.00  0.00     0.110 C 
BRANCH  22  23
HETATM   23  C   UNK N   1      21.159  20.447   2.559  0.00  0.00     0.139 C 
HETATM   24  O   UNK N   1      20.754  20.095   1.463  0.00  0.00    -0.650 OA
BRANCH  23  25
HETATM   25  O   UNK N   1      21.568  21.717   2.742  0.00  0.00    -0.776 OA
HETATM   26  H   UNK N   1      21.843  22.233   2.010  0.00  0.00     0.167 HD
ENDBRANCH  23  25
ENDBRANCH  22  23
ENDBRANCH  21  22
ENDBRANCH  20  21
ENDBRANCH  19  20
ENDBRANCH  17  18
ENDBRANCH   3  17
BRANCH   4  27
HETATM   27  O   UNK N   1      18.327  15.522   9.436  0.00  0.00    -0.394 OA
HETATM   28  H   UNK N   1      17.454  15.799   9.114  0.00  0.00     0.210 HD
ENDBRANCH   4  27
TORSDOF 15
ENDMDL
MODEL 8
REMARK VINA RESULT:      -5.6      7.171      8.299
REMARK  15 active torsions:
REMARK  status: ('A' for Active; 'I' for Inactive)
REMARK    1  A    between atoms: C_8  and  O_1 
REMARK    2  A    between atoms: C_15  and  O_3 
REMARK    3  A    between atoms: O_4  and  C_25 
REMARK    4  A    between atoms: C_6  and  C_12 
REMARK    5  A    between atoms: C_7  and  C_11 
REMARK    6  A    between atoms: C_11  and  C_14 
REMARK    7  A    between atoms: C_13  and  C_15 
REMARK    8  A    between atoms: C_15  and  C_16 
REMARK    9  A    between atoms: C_16  and  C_17 
REMARK   10  A    between atoms: C_17  and  C_19 
REMARK   11  A    between atoms: C_18  and  C_20 
REMARK   12  A    between atoms: C_19  and  C_21 
REMARK   13  A    between atoms: C_20  and  C_22 
REMARK   14  A    between atoms: C_22  and  C_23 
REMARK   15  A    between atoms: C_23  and  C_25 
ROOT
HETATM    1  O   UNK N   1      20.698  18.723   7.179  0.00  0.00    -0.297 OA
HETATM    2  C   UNK N   1      21.301  15.295   7.304  0.00  0.00     0.048 C 
HETATM    3  C   UNK N   1      21.828  16.644   6.865  0.00  0.00     0.069 C 
HETATM    4  C   UNK N   1      20.605  15.548   8.634  0.00  0.00     0.133 C 
HETATM    5  C   UNK N   1      19.888  16.872   8.429  0.00  0.00     0.111 C 
HETATM    6  C   UNK N   1      20.784  17.535   7.444  0.00  0.00     0.134 C 
ENDROOT
BRANCH   2   7
HETATM    7  C   UNK N   1      22.346  14.226   7.349  0.00  0.00    -0.020 C 
HETATM    8  C   UNK N   1      22.180  13.150   6.588  0.00  0.00     0.001 C 
BRANCH   8   9
HETATM    9  C   UNK N   1      23.132  12.007   6.573  0.00  0.00     0.140 C 
BRANCH   9  10
HETATM   10  O   UNK N   1      22.460  10.811   6.833  0.00  0.00    -0.392 OA
HETATM   11  H   UNK N   1      22.424  10.086   6.189  0.00  0.00     0.210 HD
ENDBRANCH   9  10
BRANCH   9  12
HETATM   12  C   UNK N   1      24.125  12.291   7.679  0.00  0.00     0.036 C 
BRANCH  12  13
HETATM   13  C   UNK N   1      23.903  11.421   8.894  0.00  0.00     0.003 C 
BRANCH  13  14
HETATM   14  C   UNK N   1      23.997  12.327  10.102  0.00  0.00    -0.000 C 
BRANCH  14  15
HETATM   15  C   UNK N   1      23.041  11.882  11.184  0.00  0.00    -0.005 C 
HETATM   16  C   UNK N   1      21.639  12.302  10.798  0.00  0.00     0.005 C 
ENDBRANCH  14  15
ENDBRANCH  13  14
ENDBRANCH  12  13
ENDBRANCH   9  12
ENDBRANCH   8   9
ENDBRANCH   2   7
BRANCH   3  17
HETATM   17  C   UNK N   1      21.841  16.672   5.348  0.00  0.00     0.040 C 
BRANCH  17  18
HETATM   18  C   UNK N   1      20.518  16.219   4.818  0.00  0.00    -0.030 C 
HETATM   19  C   UNK N   1      20.004  16.723   3.690  0.00  0.00    -0.031 C 
BRANCH  19  20
HETATM   20  C   UNK N   1      20.695  17.800   2.911  0.00  0.00     0.027 C 
BRANCH  20  21
HETATM   21  C   UNK N   1      19.730  18.933   2.644  0.00  0.00     0.014 C 
BRANCH  21  22
HETATM   22  C   UNK N   1      20.356  20.252   3.072  0.00  0.00     0.110 C 
BRANCH  22  23
HETATM   23  C   UNK N   1      21.529  20.638   2.217  0.00  0.00     0.139 C 
HETATM   24  O   UNK N   1      21.465  20.588   1.000  0.00  0.00    -0.650 OA
BRANCH  23  25
HETATM   25  O   UNK N   1      22.671  21.040   2.808  0.00  0.00    -0.776 OA
HETATM   26  H   UNK N   1      23.363  21.406   2.294  0.00  0.00     0.167 HD
ENDBRANCH  23  25
ENDBRANCH  22  23
ENDBRANCH  21  22
ENDBRANCH  20  21
ENDBRANCH  19  20
ENDBRANCH  17  18
ENDBRANCH   3  17
BRANCH   4  27
HETATM   27  O   UNK N   1      19.699  14.531   8.934  0.00  0.00    -0.394 OA
HETATM   28  H   UNK N   1      18.933  14.553   9.529  0.00  0.00     0.210 HD
ENDBRANCH   4  27
TORSDOF 15
ENDMDL
MODEL 9
REMARK VINA RESULT:      -5.6      5.385      8.692
REMARK  15 active torsions:
REMARK  status: ('A' for Active; 'I' for Inactive)
REMARK    1  A    between atoms: C_8  and  O_1 
REMARK    2  A    between atoms: C_15  and  O_3 
REMARK    3  A    between atoms: O_4  and  C_25 
REMARK    4  A    between atoms: C_6  and  C_12 
REMARK    5  A    between atoms: C_7  and  C_11 
REMARK    6  A    between atoms: C_11  and  C_14 
REMARK    7  A    between atoms: C_13  and  C_15 
REMARK    8  A    between atoms: C_15  and  C_16 
REMARK    9  A    between atoms: C_16  and  C_17 
REMARK   10  A    between atoms: C_17  and  C_19 
REMARK   11  A    between atoms: C_18  and  C_20 
REMARK   12  A    between atoms: C_19  and  C_21 
REMARK   13  A    between atoms: C_20  and  C_22 
REMARK   14  A    between atoms: C_22  and  C_23 
REMARK   15  A    between atoms: C_23  and  C_25 
ROOT
HETATM    1  O   UNK N   1      20.237  13.896   7.152  0.00  0.00    -0.297 OA
HETATM    2  C   UNK N   1      21.300  17.202   6.890  0.00  0.00     0.048 C 
HETATM    3  C   UNK N   1      21.184  15.865   6.192  0.00  0.00     0.069 C 
HETATM    4  C   UNK N   1      20.027  17.338   7.713  0.00  0.00     0.133 C 
HETATM    5  C   UNK N   1      19.799  15.945   8.274  0.00  0.00     0.111 C 
HETATM    6  C   UNK N   1      20.408  15.103   7.210  0.00  0.00     0.134 C 
ENDROOT
BRANCH   2   7
HETATM    7  C   UNK N   1      21.559  18.346   5.962  0.00  0.00    -0.020 C 
HETATM    8  C   UNK N   1      20.964  18.341   4.775  0.00  0.00     0.001 C 
BRANCH   8   9
HETATM    9  C   UNK N   1      21.169  19.405   3.755  0.00  0.00     0.140 C 
BRANCH   9  10
HETATM   10  O   UNK N   1      20.303  20.476   3.990  0.00  0.00    -0.392 OA
HETATM   11  H   UNK N   1      20.340  21.004   4.803  0.00  0.00     0.210 HD
ENDBRANCH   9  10
BRANCH   9  12
HETATM   12  C   UNK N   1      20.845  18.761   2.425  0.00  0.00     0.036 C 
BRANCH  12  13
HETATM   13  C   UNK N   1      20.195  17.406   2.581  0.00  0.00     0.003 C 
BRANCH  13  14
HETATM   14  C   UNK N   1      20.255  16.735   1.225  0.00  0.00    -0.000 C 
BRANCH  14  15
HETATM   15  C   UNK N   1      20.900  15.374   1.326  0.00  0.00    -0.005 C 
HETATM   16  C   UNK N   1      19.930  14.334   0.806  0.00  0.00     0.005 C 
ENDBRANCH  14  15
ENDBRANCH  13  14
ENDBRANCH  12  13
ENDBRANCH   9  12
ENDBRANCH   8   9
ENDBRANCH   2   7
BRANCH   3  17
HETATM   17  C   UNK N   1      22.585  15.315   5.995  0.00  0.00     0.040 C 
BRANCH  17  18
HETATM   18  C   UNK N   1      22.853  15.110   4.539  0.00  0.00    -0.030 C 
HETATM   19  C   UNK N   1      23.713  15.885   3.868  0.00  0.00    -0.031 C 
BRANCH  19  20
HETATM   20  C   UNK N   1      24.427  17.030   4.518  0.00  0.00     0.027 C 
BRANCH  20  21
HETATM   21  C   UNK N   1      24.943  17.977   3.456  0.00  0.00     0.014 C 
BRANCH  21  22
HETATM   22  C   UNK N   1      24.828  19.411   3.949  0.00  0.00     0.110 C 
BRANCH  22  23
HETATM   23  C   UNK N   1      25.002  20.416   2.846  0.00  0.00     0.139 C 
HETATM   24  O   UNK N   1      26.103  20.861   2.567  0.00  0.00    -0.650 OA
BRANCH  23  25
HETATM   25  O   UNK N   1      23.920  20.835   2.161  0.00  0.00    -0.776 OA
HETATM   26  H   UNK N   1      23.510  20.270   1.537  0.00  0.00     0.167 HD
ENDBRANCH  23  25
ENDBRANCH  22  23
ENDBRANCH  21  22
ENDBRANCH  20  21
ENDBRANCH  19  20
ENDBRANCH  17  18
ENDBRANCH   3  17
BRANCH   4  27
HETATM   27  O   UNK N   1      20.183  18.270   8.739  0.00  0.00    -0.394 OA
HETATM   28  H   UNK N   1      20.622  19.136   8.715  0.00  0.00     0.210 HD
ENDBRANCH   4  27
TORSDOF 15
ENDMDL
