MODEL 1
REMARK VINA RESULT:      -7.3      0.000      0.000
REMARK  4 active torsions:
REMARK  status: ('A' for Active; 'I' for Inactive)
REMARK    1  A    between atoms: C_8  and  O_20 
REMARK    2  A    between atoms: C_9  and  C_11 
REMARK    3  A    between atoms: C_11  and  C_12 
REMARK    4  A    between atoms: C_11  and  C_18 
ROOT
HETATM    1  C   UNK N   1      36.299  15.934  11.351  0.00  0.00     0.038 A 
HETATM    2  C   UNK N   1      36.148  14.731  12.046  0.00  0.00     0.003 A 
HETATM    3  C   UNK N   1      35.041  13.914  11.799  0.00  0.00     0.001 A 
HETATM    4  C   UNK N   1      34.085  14.300  10.854  0.00  0.00     0.017 A 
HETATM    5  C   UNK N   1      34.230  15.510  10.158  0.00  0.00     0.032 A 
HETATM    6  C   UNK N   1      35.342  16.326  10.411  0.00  0.00     0.092 A 
HETATM    7  O   UNK N   1      35.493  17.467   9.757  0.00  0.00    -0.274 OA
HETATM    8  C   UNK N   1      33.283  15.927   9.221  0.00  0.00     0.091 A 
HETATM    9  C   UNK N   1      33.436  17.174   8.552  0.00  0.00     0.060 A 
HETATM   10  C   UNK N   1      34.617  17.915   8.861  0.00  0.00     0.298 A 
HETATM   11  O   UNK N   1      34.866  18.966   8.313  0.00  0.00    -0.259 OA
ENDROOT
BRANCH   9  12
HETATM   12  C   UNK N   1      32.319  17.594   7.551  0.00  0.00     0.060 C 
BRANCH  12  13
HETATM   13  C   UNK N   1      30.815  17.734   7.820  0.00  0.00    -0.049 A 
HETATM   14  C   UNK N   1      29.819  17.394   6.896  0.00  0.00     0.008 A 
HETATM   15  C   UNK N   1      28.466  17.601   7.176  0.00  0.00     0.001 A 
HETATM   16  C   UNK N   1      28.086  18.180   8.386  0.00  0.00     0.000 A 
HETATM   17  C   UNK N   1      29.061  18.545   9.315  0.00  0.00     0.001 A 
HETATM   18  C   UNK N   1      30.412  18.322   9.033  0.00  0.00     0.008 A 
ENDBRANCH  12  13
BRANCH  12  19
HETATM   19  C   UNK N   1      32.455  16.784   6.258  0.00  0.00     0.010 C 
HETATM   20  C   UNK N   1      33.315  17.542   5.260  0.00  0.00     0.006 C 
ENDBRANCH  12  19
ENDBRANCH   9  12
BRANCH   8  21
HETATM   21  O   UNK N   1      32.223  15.134   8.968  0.00  0.00    -0.359 OA
HETATM   22  H   UNK N   1      32.295  14.205   9.060  0.00  0.00     0.217 HD
ENDBRANCH   8  21
TORSDOF 4
ENDMDL
MODEL 2
REMARK VINA RESULT:      -7.0     11.434     13.909
REMARK  4 active torsions:
REMARK  status: ('A' for Active; 'I' for Inactive)
REMARK    1  A    between atoms: C_8  and  O_20 
REMARK    2  A    between atoms: C_9  and  C_11 
REMARK    3  A    between atoms: C_11  and  C_12 
REMARK    4  A    between atoms: C_11  and  C_18 
ROOT
HETATM    1  C   UNK N   1      19.807  17.920   2.437  0.00  0.00     0.038 A 
HETATM    2  C   UNK N   1      20.533  18.999   1.925  0.00  0.00     0.003 A 
HETATM    3  C   UNK N   1      21.467  19.659   2.729  0.00  0.00     0.001 A 
HETATM    4  C   UNK N   1      21.676  19.239   4.047  0.00  0.00     0.017 A 
HETATM    5  C   UNK N   1      20.945  18.159   4.566  0.00  0.00     0.032 A 
HETATM    6  C   UNK N   1      20.010  17.501   3.755  0.00  0.00     0.092 A 
HETATM    7  O   UNK N   1      19.318  16.479   4.233  0.00  0.00    -0.274 OA
HETATM    8  C   UNK N   1      21.124  17.729   5.882  0.00  0.00     0.091 A 
HETATM    9  C   UNK N   1      20.347  16.653   6.396  0.00  0.00     0.060 A 
HETATM   10  C   UNK N   1      19.443  16.033   5.481  0.00  0.00     0.298 A 
HETATM   11  O   UNK N   1      18.770  15.080   5.803  0.00  0.00    -0.259 OA
ENDROOT
BRANCH   9  12
HETATM   12  C   UNK N   1      20.569  16.255   7.886  0.00  0.00     0.060 C 
BRANCH  12  13
HETATM   13  C   UNK N   1      21.032  14.903   8.442  0.00  0.00    -0.049 A 
HETATM   14  C   UNK N   1      20.562  14.345   9.638  0.00  0.00     0.008 A 
HETATM   15  C   UNK N   1      21.066  13.136  10.123  0.00  0.00     0.001 A 
HETATM   16  C   UNK N   1      22.077  12.473   9.428  0.00  0.00     0.000 A 
HETATM   17  C   UNK N   1      22.575  13.019   8.244  0.00  0.00     0.001 A 
HETATM   18  C   UNK N   1      22.055  14.221   7.757  0.00  0.00     0.008 A 
ENDBRANCH  12  13
BRANCH  12  19
HETATM   19  C   UNK N   1      19.352  16.673   8.717  0.00  0.00     0.010 C 
HETATM   20  C   UNK N   1      19.486  18.127   9.138  0.00  0.00     0.006 C 
ENDBRANCH  12  19
ENDBRANCH   9  12
BRANCH   8  21
HETATM   21  O   UNK N   1      22.034  18.353   6.655  0.00  0.00    -0.359 OA
HETATM   22  H   UNK N   1      21.799  18.663   7.507  0.00  0.00     0.217 HD
ENDBRANCH   8  21
TORSDOF 4
ENDMDL
MODEL 3
REMARK VINA RESULT:      -6.9      5.797      8.998
REMARK  4 active torsions:
REMARK  status: ('A' for Active; 'I' for Inactive)
REMARK    1  A    between atoms: C_8  and  O_20 
REMARK    2  A    between atoms: C_9  and  C_11 
REMARK    3  A    between atoms: C_11  and  C_12 
REMARK    4  A    between atoms: C_11  and  C_18 
ROOT
HETATM    1  C   UNK N   1      38.592  12.572  10.595  0.00  0.00     0.038 A 
HETATM    2  C   UNK N   1      38.334  13.443   9.532  0.00  0.00     0.003 A 
HETATM    3  C   UNK N   1      37.154  14.191   9.510  0.00  0.00     0.001 A 
HETATM    4  C   UNK N   1      36.230  14.069  10.553  0.00  0.00     0.017 A 
HETATM    5  C   UNK N   1      36.483  13.193  11.619  0.00  0.00     0.032 A 
HETATM    6  C   UNK N   1      37.668  12.445  11.636  0.00  0.00     0.092 A 
HETATM    7  O   UNK N   1      37.919  11.618  12.639  0.00  0.00    -0.274 OA
HETATM    8  C   UNK N   1      35.571  13.042  12.666  0.00  0.00     0.091 A 
HETATM    9  C   UNK N   1      35.833  12.122  13.719  0.00  0.00     0.060 A 
HETATM   10  C   UNK N   1      37.081  11.429  13.656  0.00  0.00     0.298 A 
HETATM   11  O   UNK N   1      37.423  10.660  14.526  0.00  0.00    -0.259 OA
ENDROOT
BRANCH   9  12
HETATM   12  C   UNK N   1      34.752  11.974  14.830  0.00  0.00     0.060 C 
BRANCH  12  13
HETATM   13  C   UNK N   1      34.912  12.197  16.339  0.00  0.00    -0.049 A 
HETATM   14  C   UNK N   1      34.949  13.459  16.945  0.00  0.00     0.008 A 
HETATM   15  C   UNK N   1      35.157  13.600  18.319  0.00  0.00     0.001 A 
HETATM   16  C   UNK N   1      35.360  12.471  19.113  0.00  0.00     0.000 A 
HETATM   17  C   UNK N   1      35.348  11.204  18.529  0.00  0.00     0.001 A 
HETATM   18  C   UNK N   1      35.124  11.070  17.155  0.00  0.00     0.008 A 
ENDBRANCH  12  13
BRANCH  12  19
HETATM   19  C   UNK N   1      34.023  10.637  14.664  0.00  0.00     0.010 C 
HETATM   20  C   UNK N   1      33.835  10.328  13.187  0.00  0.00     0.006 C 
ENDBRANCH  12  19
ENDBRANCH   9  12
BRANCH   8  21
HETATM   21  O   UNK N   1      34.439  13.773  12.655  0.00  0.00    -0.359 OA
HETATM   22  H   UNK N   1      33.605  13.352  12.592  0.00  0.00     0.217 HD
ENDBRANCH   8  21
TORSDOF 4
ENDMDL
MODEL 4
REMARK VINA RESULT:      -6.8      4.253      8.699
REMARK  4 active torsions:
REMARK  status: ('A' for Active; 'I' for Inactive)
REMARK    1  A    between atoms: C_8  and  O_20 
REMARK    2  A    between atoms: C_9  and  C_11 
REMARK    3  A    between atoms: C_11  and  C_12 
REMARK    4  A    between atoms: C_11  and  C_18 
ROOT
HETATM    1  C   UNK N   1      35.359  16.371  10.946  0.00  0.00     0.038 A 
HETATM    2  C   UNK N   1      34.607  16.158   9.787  0.00  0.00     0.003 A 
HETATM    3  C   UNK N   1      34.015  14.914   9.556  0.00  0.00     0.001 A 
HETATM    4  C   UNK N   1      34.173  13.881  10.486  0.00  0.00     0.017 A 
HETATM    5  C   UNK N   1      34.931  14.089  11.648  0.00  0.00     0.032 A 
HETATM    6  C   UNK N   1      35.523  15.339  11.874  0.00  0.00     0.092 A 
HETATM    7  O   UNK N   1      36.237  15.549  12.970  0.00  0.00    -0.274 OA
HETATM    8  C   UNK N   1      35.116  13.071  12.585  0.00  0.00     0.091 A 
HETATM    9  C   UNK N   1      35.917  13.296  13.740  0.00  0.00     0.060 A 
HETATM   10  C   UNK N   1      36.453  14.612  13.890  0.00  0.00     0.298 A 
HETATM   11  O   UNK N   1      37.108  14.922  14.859  0.00  0.00    -0.259 OA
ENDROOT
BRANCH   9  12
HETATM   12  C   UNK N   1      36.116  12.103  14.720  0.00  0.00     0.060 C 
BRANCH  12  13
HETATM   13  C   UNK N   1      35.863  12.071  16.233  0.00  0.00    -0.049 A 
HETATM   14  C   UNK N   1      36.033  10.933  17.032  0.00  0.00     0.008 A 
HETATM   15  C   UNK N   1      35.729  10.951  18.396  0.00  0.00     0.001 A 
HETATM   16  C   UNK N   1      35.220  12.110  18.981  0.00  0.00     0.000 A 
HETATM   17  C   UNK N   1      35.023  13.250  18.201  0.00  0.00     0.001 A 
HETATM   18  C   UNK N   1      35.344  13.229  16.840  0.00  0.00     0.008 A 
ENDBRANCH  12  13
BRANCH  12  19
HETATM   19  C   UNK N   1      37.497  11.478  14.498  0.00  0.00     0.010 C 
HETATM   20  C   UNK N   1      37.367  10.210  13.670  0.00  0.00     0.006 C 
ENDBRANCH  12  19
ENDBRANCH   9  12
BRANCH   8  21
HETATM   21  O   UNK N   1      34.533  11.875  12.373  0.00  0.00    -0.359 OA
HETATM   22  H   UNK N   1      35.001  11.083  12.549  0.00  0.00     0.217 HD
ENDBRANCH   8  21
TORSDOF 4
ENDMDL
MODEL 5
REMARK VINA RESULT:      -6.8     14.031     17.463
REMARK  4 active torsions:
REMARK  status: ('A' for Active; 'I' for Inactive)
REMARK    1  A    between atoms: C_8  and  O_20 
REMARK    2  A    between atoms: C_9  and  C_11 
REMARK    3  A    between atoms: C_11  and  C_12 
REMARK    4  A    between atoms: C_11  and  C_18 
ROOT
HETATM    1  C   UNK N   1      25.796  27.966  -3.492  0.00  0.00     0.038 A 
HETATM    2  C   UNK N   1      26.112  29.216  -4.031  0.00  0.00     0.003 A 
HETATM    3  C   UNK N   1      27.246  29.366  -4.833  0.00  0.00     0.001 A 
HETATM    4  C   UNK N   1      28.066  28.265  -5.098  0.00  0.00     0.017 A 
HETATM    5  C   UNK N   1      27.756  27.009  -4.554  0.00  0.00     0.032 A 
HETATM    6  C   UNK N   1      26.617  26.864  -3.749  0.00  0.00     0.092 A 
HETATM    7  O   UNK N   1      26.312  25.683  -3.235  0.00  0.00    -0.274 OA
HETATM    8  C   UNK N   1      28.565  25.896  -4.790  0.00  0.00     0.091 A 
HETATM    9  C   UNK N   1      28.248  24.640  -4.200  0.00  0.00     0.060 A 
HETATM   10  C   UNK N   1      27.052  24.593  -3.420  0.00  0.00     0.298 A 
HETATM   11  O   UNK N   1      26.666  23.564  -2.913  0.00  0.00    -0.259 OA
ENDROOT
BRANCH   9  12
HETATM   12  C   UNK N   1      29.219  23.453  -4.471  0.00  0.00     0.060 C 
BRANCH  12  13
HETATM   13  C   UNK N   1      29.121  22.385  -5.568  0.00  0.00    -0.049 A 
HETATM   14  C   UNK N   1      29.989  21.291  -5.677  0.00  0.00     0.008 A 
HETATM   15  C   UNK N   1      29.885  20.383  -6.733  0.00  0.00     0.001 A 
HETATM   16  C   UNK N   1      28.919  20.571  -7.721  0.00  0.00     0.000 A 
HETATM   17  C   UNK N   1      28.055  21.664  -7.645  0.00  0.00     0.001 A 
HETATM   18  C   UNK N   1      28.155  22.561  -6.576  0.00  0.00     0.008 A 
ENDBRANCH  12  13
BRANCH  12  19
HETATM   19  C   UNK N   1      29.499  22.708  -3.163  0.00  0.00     0.010 C 
HETATM   20  C   UNK N   1      30.809  23.190  -2.561  0.00  0.00     0.006 C 
ENDBRANCH  12  19
ENDBRANCH   9  12
BRANCH   8  21
HETATM   21  O   UNK N   1      29.651  26.034  -5.575  0.00  0.00    -0.359 OA
HETATM   22  H   UNK N   1      30.258  26.730  -5.424  0.00  0.00     0.217 HD
ENDBRANCH   8  21
TORSDOF 4
ENDMDL
MODEL 6
REMARK VINA RESULT:      -6.6      1.891      6.699
REMARK  4 active torsions:
REMARK  status: ('A' for Active; 'I' for Inactive)
REMARK    1  A    between atoms: C_8  and  O_20 
REMARK    2  A    between atoms: C_9  and  C_11 
REMARK    3  A    between atoms: C_11  and  C_12 
REMARK    4  A    between atoms: C_11  and  C_18 
ROOT
HETATM    1  C   UNK N   1      32.969  17.922   8.157  0.00  0.00     0.038 A 
HETATM    2  C   UNK N   1      31.818  17.622   7.422  0.00  0.00     0.003 A 
HETATM    3  C   UNK N   1      31.291  16.328   7.444  0.00  0.00     0.001 A 
HETATM    4  C   UNK N   1      31.915  15.332   8.201  0.00  0.00     0.017 A 
HETATM    5  C   UNK N   1      33.073  15.627   8.936  0.00  0.00     0.032 A 
HETATM    6  C   UNK N   1      33.598  16.927   8.911  0.00  0.00     0.092 A 
HETATM    7  O   UNK N   1      34.688  17.218   9.604  0.00  0.00    -0.274 OA
HETATM    8  C   UNK N   1      33.724  14.648   9.689  0.00  0.00     0.091 A 
HETATM    9  C   UNK N   1      34.916  14.963  10.399  0.00  0.00     0.060 A 
HETATM   10  C   UNK N   1      35.351  16.322  10.330  0.00  0.00     0.298 A 
HETATM   11  O   UNK N   1      36.327  16.706  10.936  0.00  0.00    -0.259 OA
ENDROOT
BRANCH   9  12
HETATM   12  C   UNK N   1      35.612  13.811  11.183  0.00  0.00     0.060 C 
BRANCH  12  13
HETATM   13  C   UNK N   1      35.637  13.582  12.700  0.00  0.00    -0.049 A 
HETATM   14  C   UNK N   1      36.444  14.304  13.588  0.00  0.00     0.008 A 
HETATM   15  C   UNK N   1      36.467  14.009  14.953  0.00  0.00     0.001 A 
HETATM   16  C   UNK N   1      35.696  12.960  15.453  0.00  0.00     0.000 A 
HETATM   17  C   UNK N   1      34.899  12.213  14.584  0.00  0.00     0.001 A 
HETATM   18  C   UNK N   1      34.870  12.524  13.221  0.00  0.00     0.008 A 
ENDBRANCH  12  13
BRANCH  12  19
HETATM   19  C   UNK N   1      37.055  13.655  10.696  0.00  0.00     0.010 C 
HETATM   20  C   UNK N   1      37.424  12.183  10.626  0.00  0.00     0.006 C 
ENDBRANCH  12  19
ENDBRANCH   9  12
BRANCH   8  21
HETATM   21  O   UNK N   1      33.209  13.403   9.724  0.00  0.00    -0.359 OA
HETATM   22  H   UNK N   1      33.276  12.886  10.502  0.00  0.00     0.217 HD
ENDBRANCH   8  21
TORSDOF 4
ENDMDL
MODEL 7
REMARK VINA RESULT:      -6.6      3.499      5.650
REMARK  4 active torsions:
REMARK  status: ('A' for Active; 'I' for Inactive)
REMARK    1  A    between atoms: C_8  and  O_20 
REMARK    2  A    between atoms: C_9  and  C_11 
REMARK    3  A    between atoms: C_11  and  C_12 
REMARK    4  A    between atoms: C_11  and  C_18 
ROOT
HETATM    1  C   UNK N   1      32.336  17.096   8.407  0.00  0.00     0.038 A 
HETATM    2  C   UNK N   1      33.708  17.167   8.146  0.00  0.00     0.003 A 
HETATM    3  C   UNK N   1      34.163  17.336   6.835  0.00  0.00     0.001 A 
HETATM    4  C   UNK N   1      33.246  17.436   5.784  0.00  0.00     0.017 A 
HETATM    5  C   UNK N   1      31.868  17.360   6.042  0.00  0.00     0.032 A 
HETATM    6  C   UNK N   1      31.418  17.190   7.358  0.00  0.00     0.092 A 
HETATM    7  O   UNK N   1      30.120  17.121   7.613  0.00  0.00    -0.274 OA
HETATM    8  C   UNK N   1      30.932  17.443   5.009  0.00  0.00     0.091 A 
HETATM    9  C   UNK N   1      29.542  17.330   5.291  0.00  0.00     0.060 A 
HETATM   10  C   UNK N   1      29.186  17.185   6.667  0.00  0.00     0.298 A 
HETATM   11  O   UNK N   1      28.030  17.128   7.020  0.00  0.00    -0.259 OA
ENDROOT
BRANCH   9  12
HETATM   12  C   UNK N   1      28.557  17.387   4.086  0.00  0.00     0.060 C 
BRANCH  12  13
HETATM   13  C   UNK N   1      27.356  18.322   3.892  0.00  0.00    -0.049 A 
HETATM   14  C   UNK N   1      27.439  19.720   3.913  0.00  0.00     0.008 A 
HETATM   15  C   UNK N   1      26.299  20.518   3.790  0.00  0.00     0.001 A 
HETATM   16  C   UNK N   1      25.043  19.924   3.669  0.00  0.00     0.000 A 
HETATM   17  C   UNK N   1      24.933  18.533   3.666  0.00  0.00     0.001 A 
HETATM   18  C   UNK N   1      26.080  17.741   3.775  0.00  0.00     0.008 A 
ENDBRANCH  12  13
BRANCH  12  19
HETATM   19  C   UNK N   1      28.067  15.975   3.753  0.00  0.00     0.010 C 
HETATM   20  C   UNK N   1      28.815  15.437   2.545  0.00  0.00     0.006 C 
ENDBRANCH  12  19
ENDBRANCH   9  12
BRANCH   8  21
HETATM   21  O   UNK N   1      31.367  17.622   3.747  0.00  0.00    -0.359 OA
HETATM   22  H   UNK N   1      31.849  16.947   3.312  0.00  0.00     0.217 HD
ENDBRANCH   8  21
TORSDOF 4
ENDMDL
MODEL 8
REMARK VINA RESULT:      -6.6     16.256     18.373
REMARK  4 active torsions:
REMARK  status: ('A' for Active; 'I' for Inactive)
REMARK    1  A    between atoms: C_8  and  O_20 
REMARK    2  A    between atoms: C_9  and  C_11 
REMARK    3  A    between atoms: C_11  and  C_12 
REMARK    4  A    between atoms: C_11  and  C_18 
ROOT
HETATM    1  C   UNK N   1      26.165  28.439  -3.117  0.00  0.00     0.038 A 
HETATM    2  C   UNK N   1      26.435  29.715  -3.621  0.00  0.00     0.003 A 
HETATM    3  C   UNK N   1      27.077  29.859  -4.854  0.00  0.00     0.001 A 
HETATM    4  C   UNK N   1      27.449  28.727  -5.585  0.00  0.00     0.017 A 
HETATM    5  C   UNK N   1      27.184  27.444  -5.081  0.00  0.00     0.032 A 
HETATM    6  C   UNK N   1      26.540  27.305  -3.843  0.00  0.00     0.092 A 
HETATM    7  O   UNK N   1      26.281  26.100  -3.360  0.00  0.00    -0.274 OA
HETATM    8  C   UNK N   1      27.557  26.297  -5.784  0.00  0.00     0.091 A 
HETATM    9  C   UNK N   1      27.308  25.007  -5.236  0.00  0.00     0.060 A 
HETATM   10  C   UNK N   1      26.622  24.975  -3.984  0.00  0.00     0.298 A 
HETATM   11  O   UNK N   1      26.320  23.930  -3.454  0.00  0.00    -0.259 OA
ENDROOT
BRANCH   9  12
HETATM   12  C   UNK N   1      27.790  23.774  -6.056  0.00  0.00     0.060 C 
BRANCH  12  13
HETATM   13  C   UNK N   1      26.933  22.747  -6.807  0.00  0.00    -0.049 A 
HETATM   14  C   UNK N   1      25.556  22.583  -6.614  0.00  0.00     0.008 A 
HETATM   15  C   UNK N   1      24.840  21.590  -7.286  0.00  0.00     0.001 A 
HETATM   16  C   UNK N   1      25.502  20.719  -8.151  0.00  0.00     0.000 A 
HETATM   17  C   UNK N   1      26.878  20.849  -8.345  0.00  0.00     0.001 A 
HETATM   18  C   UNK N   1      27.585  21.855  -7.680  0.00  0.00     0.008 A 
ENDBRANCH  12  13
BRANCH  12  19
HETATM   19  C   UNK N   1      28.804  22.974  -5.233  0.00  0.00     0.010 C 
HETATM   20  C   UNK N   1      30.157  23.665  -5.263  0.00  0.00     0.006 C 
ENDBRANCH  12  19
ENDBRANCH   9  12
BRANCH   8  21
HETATM   21  O   UNK N   1      28.162  26.433  -6.980  0.00  0.00    -0.359 OA
HETATM   22  H   UNK N   1      29.092  26.349  -7.052  0.00  0.00     0.217 HD
ENDBRANCH   8  21
TORSDOF 4
ENDMDL
MODEL 9
REMARK VINA RESULT:      -6.5     10.581     12.064
REMARK  4 active torsions:
REMARK  status: ('A' for Active; 'I' for Inactive)
REMARK    1  A    between atoms: C_8  and  O_20 
REMARK    2  A    between atoms: C_9  and  C_11 
REMARK    3  A    between atoms: C_11  and  C_12 
REMARK    4  A    between atoms: C_11  and  C_18 
ROOT
HETATM    1  C   UNK N   1      20.855  14.888   9.370  0.00  0.00     0.038 A 
HETATM    2  C   UNK N   1      20.985  13.503   9.506  0.00  0.00     0.003 A 
HETATM    3  C   UNK N   1      21.371  12.725   8.412  0.00  0.00     0.001 A 
HETATM    4  C   UNK N   1      21.628  13.332   7.178  0.00  0.00     0.017 A 
HETATM    5  C   UNK N   1      21.494  14.722   7.036  0.00  0.00     0.032 A 
HETATM    6  C   UNK N   1      21.106  15.497   8.137  0.00  0.00     0.092 A 
HETATM    7  O   UNK N   1      20.980  16.810   8.015  0.00  0.00    -0.274 OA
HETATM    8  C   UNK N   1      21.730  15.352   5.812  0.00  0.00     0.091 A 
HETATM    9  C   UNK N   1      21.555  16.758   5.684  0.00  0.00     0.060 A 
HETATM   10  C   UNK N   1      21.185  17.459   6.872  0.00  0.00     0.298 A 
HETATM   11  O   UNK N   1      21.056  18.663   6.883  0.00  0.00    -0.259 OA
ENDROOT
BRANCH   9  12
HETATM   12  C   UNK N   1      21.795  17.386   4.279  0.00  0.00     0.060 C 
BRANCH  12  13
HETATM   13  C   UNK N   1      22.774  18.504   3.900  0.00  0.00    -0.049 A 
HETATM   14  C   UNK N   1      22.401  19.683   3.241  0.00  0.00     0.008 A 
HETATM   15  C   UNK N   1      23.350  20.639   2.869  0.00  0.00     0.001 A 
HETATM   16  C   UNK N   1      24.701  20.418   3.129  0.00  0.00     0.000 A 
HETATM   17  C   UNK N   1      25.099  19.242   3.767  0.00  0.00     0.001 A 
HETATM   18  C   UNK N   1      24.143  18.296   4.150  0.00  0.00     0.008 A 
ENDBRANCH  12  13
BRANCH  12  19
HETATM   19  C   UNK N   1      20.451  17.752   3.643  0.00  0.00     0.010 C 
HETATM   20  C   UNK N   1      20.136  16.793   2.506  0.00  0.00     0.006 C 
ENDBRANCH  12  19
ENDBRANCH   9  12
BRANCH   8  21
HETATM   21  O   UNK N   1      22.118  14.606   4.759  0.00  0.00    -0.359 OA
HETATM   22  H   UNK N   1      22.463  13.745   4.890  0.00  0.00     0.217 HD
ENDBRANCH   8  21
TORSDOF 4
ENDMDL
