MODEL 1
REMARK VINA RESULT:      -8.1      0.000      0.000
REMARK  8 active torsions:
REMARK  status: ('A' for Active; 'I' for Inactive)
REMARK    1  A    between atoms: C_3  and  O_20 
REMARK    2  A    between atoms: C_10  and  O_31 
REMARK    3  A    between atoms: C_11  and  O_22 
REMARK    4  A    between atoms: C_16  and  C_24 
REMARK    5  A    between atoms: C_17  and  O_29 
REMARK    6  A    between atoms: C_18  and  N_32 
REMARK       I    between atoms: C_24  and  N_25 
REMARK    7  A    between atoms: N_25  and  C_26 
REMARK    8  A    between atoms: C_26  and  O_27 
ROOT
HETATM    1  C   UNK N   1      25.131  17.336   3.278  0.00  0.00     0.027 A 
HETATM    2  C   UNK N   1      24.934  18.379   4.168  0.00  0.00     0.039 A 
HETATM    3  C   UNK N   1      25.941  18.754   5.051  0.00  0.00     0.080 A 
HETATM    4  C   UNK N   1      27.197  18.093   5.030  0.00  0.00     0.059 A 
HETATM    5  C   UNK N   1      27.420  17.045   4.088  0.00  0.00     0.015 A 
HETATM    6  C   UNK N   1      26.346  16.660   3.231  0.00  0.00     0.044 A 
HETATM    7  C   UNK N   1      28.224  18.405   6.068  0.00  0.00     0.195 C 
HETATM    8  C   UNK N   1      29.471  17.601   6.129  0.00  0.00     0.033 C 
HETATM    9  C   UNK N   1      29.910  16.945   4.842  0.00  0.00     0.065 C 
HETATM   10  C   UNK N   1      28.747  16.273   4.060  0.00  0.00     0.092 C 
HETATM   11  C   UNK N   1      30.171  17.466   7.290  0.00  0.00     0.097 C 
HETATM   12  C   UNK N   1      31.436  16.626   7.379  0.00  0.00     0.177 C 
HETATM   13  C   UNK N   1      32.088  16.350   6.020  0.00  0.00     0.075 C 
HETATM   14  C   UNK N   1      31.031  15.905   5.033  0.00  0.00     0.024 C 
HETATM   15  C   UNK N   1      32.533  17.243   8.223  0.00  0.00     0.208 C 
HETATM   16  C   UNK N   1      33.864  16.535   8.350  0.00  0.00     0.112 C 
HETATM   17  C   UNK N   1      34.128  15.554   7.415  0.00  0.00     0.096 C 
HETATM   18  C   UNK N   1      33.163  15.252   6.270  0.00  0.00     0.286 C 
HETATM   19 Cl   UNK N   1      26.450  15.311   2.101  0.00  0.00    -0.084 Cl
HETATM   20  O   UNK N   1      27.987  19.232   6.937  0.00  0.00    -0.287 OA
HETATM   21  O   UNK N   1      32.333  18.304   8.801  0.00  0.00    -0.288 OA
HETATM   22  C   UNK N   1      29.259  16.132   2.623  0.00  0.00     0.052 C 
HETATM   23  O   UNK N   1      31.055  15.420   7.980  0.00  0.00    -0.374 OA
HETATM   24  H   UNK N   1      30.819  14.626   8.485  0.00  0.00     0.211 HD
ENDROOT
BRANCH  11  25
HETATM   25  O   UNK N   1      29.689  18.009   8.430  0.00  0.00    -0.361 OA
HETATM   26  H   UNK N   1      29.102  18.740   8.413  0.00  0.00     0.217 HD
ENDBRANCH  11  25
BRANCH  18  27
HETATM   27  N   UNK N   1      33.874  14.723   5.092  0.00  0.00     0.091 N 
HETATM   28  C   UNK N   1      33.376  13.404   4.734  0.00  0.00     0.310 C 
HETATM   29  C   UNK N   1      33.777  15.607   3.940  0.00  0.00     0.310 C 
ENDBRANCH  18  27
BRANCH  16  30
HETATM   30  C   UNK N   1      34.765  16.974   9.524  0.00  0.00     0.259 C 
HETATM   31  N   UNK N   1      35.031  16.297  10.680  0.00  0.00    -0.336 N 
HETATM   32  H   UNK N   1      35.642  16.763  11.297  0.00  0.00     0.164 HD
HETATM   33  O   UNK N   1      35.317  18.060   9.412  0.00  0.00    -0.267 OA
BRANCH  31  34
HETATM   34  C   UNK N   1      34.569  15.021  11.141  0.00  0.00     0.290 C 
BRANCH  34  35
HETATM   35  O   UNK N   1      33.177  15.015  11.184  0.00  0.00    -0.382 OA
HETATM   36  H   UNK N   1      32.313  15.139  11.607  0.00  0.00     0.211 HD
ENDBRANCH  34  35
ENDBRANCH  31  34
ENDBRANCH  16  30
BRANCH  17  37
HETATM   37  O   UNK N   1      35.231  14.801   7.458  0.00  0.00    -0.362 OA
HETATM   38  H   UNK N   1      35.722  14.616   6.683  0.00  0.00     0.217 HD
ENDBRANCH  17  37
BRANCH  10  39
HETATM   39  O   UNK N   1      28.494  14.998   4.574  0.00  0.00    -0.385 OA
HETATM   40  H   UNK N   1      28.489  14.056   4.809  0.00  0.00     0.211 HD
ENDBRANCH  10  39
BRANCH   3  41
HETATM   41  O   UNK N   1      25.679  19.729   5.938  0.00  0.00    -0.360 OA
HETATM   42  H   UNK N   1      26.053  19.719   6.797  0.00  0.00     0.217 HD
ENDBRANCH   3  41
TORSDOF 8
ENDMDL
MODEL 2
REMARK VINA RESULT:      -8.0      7.267     12.812
REMARK  8 active torsions:
REMARK  status: ('A' for Active; 'I' for Inactive)
REMARK    1  A    between atoms: C_3  and  O_20 
REMARK    2  A    between atoms: C_10  and  O_31 
REMARK    3  A    between atoms: C_11  and  O_22 
REMARK    4  A    between atoms: C_16  and  C_24 
REMARK    5  A    between atoms: C_17  and  O_29 
REMARK    6  A    between atoms: C_18  and  N_32 
REMARK       I    between atoms: C_24  and  N_25 
REMARK    7  A    between atoms: N_25  and  C_26 
REMARK    8  A    between atoms: C_26  and  O_27 
ROOT
HETATM    1  C   UNK N   1      35.940   9.575  20.515  0.00  0.00     0.027 A 
HETATM    2  C   UNK N   1      35.552  10.872  20.810  0.00  0.00     0.039 A 
HETATM    3  C   UNK N   1      35.327  11.790  19.790  0.00  0.00     0.080 A 
HETATM    4  C   UNK N   1      35.460  11.402  18.431  0.00  0.00     0.059 A 
HETATM    5  C   UNK N   1      35.820  10.056  18.121  0.00  0.00     0.015 A 
HETATM    6  C   UNK N   1      36.087   9.158  19.197  0.00  0.00     0.044 A 
HETATM    7  C   UNK N   1      35.351  12.422  17.347  0.00  0.00     0.195 C 
HETATM    8  C   UNK N   1      35.643  12.034  15.944  0.00  0.00     0.033 C 
HETATM    9  C   UNK N   1      35.450  10.577  15.597  0.00  0.00     0.065 C 
HETATM   10  C   UNK N   1      36.018   9.604  16.667  0.00  0.00     0.092 C 
HETATM   11  C   UNK N   1      36.066  12.950  15.029  0.00  0.00     0.097 C 
HETATM   12  C   UNK N   1      36.395  12.567  13.593  0.00  0.00     0.177 C 
HETATM   13  C   UNK N   1      35.786  11.230  13.158  0.00  0.00     0.075 C 
HETATM   14  C   UNK N   1      36.038  10.189  14.226  0.00  0.00     0.024 C 
HETATM   15  C   UNK N   1      35.922  13.570  12.559  0.00  0.00     0.208 C 
HETATM   16  C   UNK N   1      36.138  13.283  11.090  0.00  0.00     0.112 C 
HETATM   17  C   UNK N   1      36.432  11.975  10.757  0.00  0.00     0.096 C 
HETATM   18  C   UNK N   1      36.464  10.865  11.805  0.00  0.00     0.286 C 
HETATM   19 Cl   UNK N   1      36.647   7.504  18.955  0.00  0.00    -0.084 Cl
HETATM   20  O   UNK N   1      35.144  13.595  17.626  0.00  0.00    -0.287 OA
HETATM   21  O   UNK N   1      35.376  14.604  12.920  0.00  0.00    -0.288 OA
HETATM   22  C   UNK N   1      35.306   8.271  16.415  0.00  0.00     0.052 C 
HETATM   23  O   UNK N   1      37.792  12.501  13.524  0.00  0.00    -0.374 OA
HETATM   24  H   UNK N   1      38.758  12.552  13.444  0.00  0.00     0.211 HD
ENDROOT
BRANCH  11  25
HETATM   25  O   UNK N   1      36.298  14.224  15.413  0.00  0.00    -0.361 OA
HETATM   26  H   UNK N   1      37.167  14.577  15.437  0.00  0.00     0.217 HD
ENDBRANCH  11  25
BRANCH  18  27
HETATM   27  N   UNK N   1      36.129   9.557  11.213  0.00  0.00     0.091 N 
HETATM   28  C   UNK N   1      37.056   8.531  11.663  0.00  0.00     0.310 C 
HETATM   29  C   UNK N   1      34.766   9.143  11.514  0.00  0.00     0.310 C 
ENDBRANCH  18  27
BRANCH  16  30
HETATM   30  C   UNK N   1      36.028  14.489  10.132  0.00  0.00     0.259 C 
HETATM   31  N   UNK N   1      34.899  15.040   9.599  0.00  0.00    -0.336 N 
HETATM   32  H   UNK N   1      35.057  15.813   9.009  0.00  0.00     0.164 HD
HETATM   33  O   UNK N   1      37.078  15.027   9.809  0.00  0.00    -0.267 OA
BRANCH  31  34
HETATM   34  C   UNK N   1      33.520  14.677   9.756  0.00  0.00     0.290 C 
BRANCH  34  35
HETATM   35  O   UNK N   1      33.085  15.037  11.030  0.00  0.00    -0.382 OA
HETATM   36  H   UNK N   1      33.199  15.218  11.976  0.00  0.00     0.211 HD
ENDBRANCH  34  35
ENDBRANCH  31  34
ENDBRANCH  16  30
BRANCH  17  37
HETATM   37  O   UNK N   1      36.721  11.602   9.507  0.00  0.00    -0.362 OA
HETATM   38  H   UNK N   1      36.105  11.719   8.812  0.00  0.00     0.217 HD
ENDBRANCH  17  37
BRANCH  10  39
HETATM   39  O   UNK N   1      37.391   9.424  16.475  0.00  0.00    -0.385 OA
HETATM   40  H   UNK N   1      38.352   9.515  16.372  0.00  0.00     0.211 HD
ENDBRANCH  10  39
BRANCH   3  41
HETATM   41  O   UNK N   1      35.014  13.052  20.128  0.00  0.00    -0.360 OA
HETATM   42  H   UNK N   1      35.518  13.527  20.760  0.00  0.00     0.217 HD
ENDBRANCH   3  41
TORSDOF 8
ENDMDL
MODEL 3
REMARK VINA RESULT:      -7.9      2.351      3.587
REMARK  8 active torsions:
REMARK  status: ('A' for Active; 'I' for Inactive)
REMARK    1  A    between atoms: C_3  and  O_20 
REMARK    2  A    between atoms: C_10  and  O_31 
REMARK    3  A    between atoms: C_11  and  O_22 
REMARK    4  A    between atoms: C_16  and  C_24 
REMARK    5  A    between atoms: C_17  and  O_29 
REMARK    6  A    between atoms: C_18  and  N_32 
REMARK       I    between atoms: C_24  and  N_25 
REMARK    7  A    between atoms: N_25  and  C_26 
REMARK    8  A    between atoms: C_26  and  O_27 
ROOT
HETATM    1  C   UNK N   1      27.776  18.228   5.415  0.00  0.00     0.027 A 
HETATM    2  C   UNK N   1      27.541  18.700   6.697  0.00  0.00     0.039 A 
HETATM    3  C   UNK N   1      28.406  18.377   7.737  0.00  0.00     0.080 A 
HETATM    4  C   UNK N   1      29.559  17.587   7.494  0.00  0.00     0.059 A 
HETATM    5  C   UNK N   1      29.828  17.132   6.168  0.00  0.00     0.015 A 
HETATM    6  C   UNK N   1      28.892  17.447   5.138  0.00  0.00     0.044 A 
HETATM    7  C   UNK N   1      30.407  17.130   8.634  0.00  0.00     0.195 C 
HETATM    8  C   UNK N   1      31.520  16.179   8.384  0.00  0.00     0.033 C 
HETATM    9  C   UNK N   1      32.109  16.187   6.993  0.00  0.00     0.065 C 
HETATM   10  C   UNK N   1      31.040  16.238   5.867  0.00  0.00     0.092 C 
HETATM   11  C   UNK N   1      31.975  15.348   9.362  0.00  0.00     0.097 C 
HETATM   12  C   UNK N   1      33.097  14.349   9.119  0.00  0.00     0.177 C 
HETATM   13  C   UNK N   1      33.951  14.671   7.887  0.00  0.00     0.075 C 
HETATM   14  C   UNK N   1      33.048  14.996   6.718  0.00  0.00     0.024 C 
HETATM   15  C   UNK N   1      34.084  14.233  10.262  0.00  0.00     0.208 C 
HETATM   16  C   UNK N   1      35.278  13.314  10.126  0.00  0.00     0.112 C 
HETATM   17  C   UNK N   1      35.594  12.905   8.846  0.00  0.00     0.096 C 
HETATM   18  C   UNK N   1      34.827  13.412   7.626  0.00  0.00     0.286 C 
HETATM   19 Cl   UNK N   1      29.045  16.855   3.484  0.00  0.00    -0.084 Cl
HETATM   20  O   UNK N   1      30.113  17.438   9.781  0.00  0.00    -0.287 OA
HETATM   21  O   UNK N   1      33.906  14.876  11.289  0.00  0.00    -0.288 OA
HETATM   22  C   UNK N   1      31.786  16.741   4.628  0.00  0.00     0.052 C 
HETATM   23  O   UNK N   1      32.475  13.105   8.956  0.00  0.00    -0.374 OA
HETATM   24  H   UNK N   1      32.060  12.228   8.944  0.00  0.00     0.211 HD
ENDROOT
BRANCH  11  25
HETATM   25  O   UNK N   1      31.359  15.327  10.564  0.00  0.00    -0.361 OA
HETATM   26  H   UNK N   1      30.606  15.859  10.737  0.00  0.00     0.217 HD
ENDBRANCH  11  25
BRANCH  18  27
HETATM   27  N   UNK N   1      35.676  13.418   6.421  0.00  0.00     0.091 N 
HETATM   28  C   UNK N   1      35.044  12.684   5.336  0.00  0.00     0.310 C 
HETATM   29  C   UNK N   1      35.995  14.766   5.972  0.00  0.00     0.310 C 
ENDBRANCH  18  27
BRANCH  16  30
HETATM   30  C   UNK N   1      35.994  12.920  11.436  0.00  0.00     0.259 C 
HETATM   31  N   UNK N   1      35.840  11.779  12.169  0.00  0.00    -0.336 N 
HETATM   32  H   UNK N   1      36.403  11.729  12.976  0.00  0.00     0.164 HD
HETATM   33  O   UNK N   1      36.803  13.724  11.878  0.00  0.00    -0.267 OA
BRANCH  31  34
HETATM   34  C   UNK N   1      34.997  10.639  11.955  0.00  0.00     0.290 C 
BRANCH  34  35
HETATM   35  O   UNK N   1      33.765  10.848  12.572  0.00  0.00    -0.382 OA
HETATM   36  H   UNK N   1      33.165  10.913  13.331  0.00  0.00     0.211 HD
ENDBRANCH  34  35
ENDBRANCH  31  34
ENDBRANCH  16  30
BRANCH  17  37
HETATM   37  O   UNK N   1      36.575  12.034   8.593  0.00  0.00    -0.362 OA
HETATM   38  H   UNK N   1      36.716  11.290   9.144  0.00  0.00     0.217 HD
ENDBRANCH  17  37
BRANCH  10  39
HETATM   39  O   UNK N   1      30.550  14.955   5.608  0.00  0.00    -0.385 OA
HETATM   40  H   UNK N   1      30.265  14.111   5.221  0.00  0.00     0.211 HD
ENDBRANCH  10  39
BRANCH   3  41
HETATM   41  O   UNK N   1      28.100  18.806   8.974  0.00  0.00    -0.360 OA
HETATM   42  H   UNK N   1      28.672  18.648   9.699  0.00  0.00     0.217 HD
ENDBRANCH   3  41
TORSDOF 8
ENDMDL
MODEL 4
REMARK VINA RESULT:      -7.7      4.988      8.108
REMARK  8 active torsions:
REMARK  status: ('A' for Active; 'I' for Inactive)
REMARK    1  A    between atoms: C_3  and  O_20 
REMARK    2  A    between atoms: C_10  and  O_31 
REMARK    3  A    between atoms: C_11  and  O_22 
REMARK    4  A    between atoms: C_16  and  C_24 
REMARK    5  A    between atoms: C_17  and  O_29 
REMARK    6  A    between atoms: C_18  and  N_32 
REMARK       I    between atoms: C_24  and  N_25 
REMARK    7  A    between atoms: N_25  and  C_26 
REMARK    8  A    between atoms: C_26  and  O_27 
ROOT
HETATM    1  C   UNK N   1      32.680  17.242   6.940  0.00  0.00     0.027 A 
HETATM    2  C   UNK N   1      33.605  18.084   7.537  0.00  0.00     0.039 A 
HETATM    3  C   UNK N   1      34.483  17.598   8.498  0.00  0.00     0.080 A 
HETATM    4  C   UNK N   1      34.466  16.226   8.860  0.00  0.00     0.059 A 
HETATM    5  C   UNK N   1      33.544  15.345   8.219  0.00  0.00     0.015 A 
HETATM    6  C   UNK N   1      32.629  15.892   7.270  0.00  0.00     0.044 A 
HETATM    7  C   UNK N   1      35.314  15.738   9.987  0.00  0.00     0.195 C 
HETATM    8  C   UNK N   1      35.175  14.336  10.456  0.00  0.00     0.033 C 
HETATM    9  C   UNK N   1      34.662  13.338   9.443  0.00  0.00     0.065 C 
HETATM   10  C   UNK N   1      33.460  13.863   8.610  0.00  0.00     0.092 C 
HETATM   11  C   UNK N   1      35.491  13.979  11.731  0.00  0.00     0.097 C 
HETATM   12  C   UNK N   1      35.331  12.553  12.237  0.00  0.00     0.177 C 
HETATM   13  C   UNK N   1      35.244  11.510  11.118  0.00  0.00     0.075 C 
HETATM   14  C   UNK N   1      34.270  11.982  10.061  0.00  0.00     0.024 C 
HETATM   15  C   UNK N   1      36.461  12.080  13.129  0.00  0.00     0.208 C 
HETATM   16  C   UNK N   1      36.451  10.662  13.656  0.00  0.00     0.112 C 
HETATM   17  C   UNK N   1      35.608   9.776  13.016  0.00  0.00     0.096 C 
HETATM   18  C   UNK N   1      34.786  10.186  11.795  0.00  0.00     0.286 C 
HETATM   19 Cl   UNK N   1      31.366  14.940   6.490  0.00  0.00    -0.084 Cl
HETATM   20  O   UNK N   1      36.028  16.519  10.602  0.00  0.00    -0.287 OA
HETATM   21  O   UNK N   1      37.368  12.848  13.422  0.00  0.00    -0.288 OA
HETATM   22  C   UNK N   1      33.422  12.977   7.361  0.00  0.00     0.052 C 
HETATM   23  O   UNK N   1      34.151  12.544  12.992  0.00  0.00    -0.374 OA
HETATM   24  H   UNK N   1      33.393  12.554  13.597  0.00  0.00     0.211 HD
ENDROOT
BRANCH  11  25
HETATM   25  O   UNK N   1      35.869  14.927  12.617  0.00  0.00    -0.361 OA
HETATM   26  H   UNK N   1      36.382  15.666  12.354  0.00  0.00     0.217 HD
ENDBRANCH  11  25
BRANCH  18  27
HETATM   27  N   UNK N   1      34.520   9.033  10.914  0.00  0.00     0.091 N 
HETATM   28  C   UNK N   1      33.122   8.995  10.517  0.00  0.00     0.310 C 
HETATM   29  C   UNK N   1      35.361   9.036   9.726  0.00  0.00     0.310 C 
ENDBRANCH  18  27
BRANCH  16  30
HETATM   30  C   UNK N   1      37.369  10.373  14.864  0.00  0.00     0.259 C 
HETATM   31  N   UNK N   1      37.027  10.306  16.184  0.00  0.00    -0.336 N 
HETATM   32  H   UNK N   1      37.774  10.103  16.792  0.00  0.00     0.164 HD
HETATM   33  O   UNK N   1      38.549  10.173  14.616  0.00  0.00    -0.267 OA
BRANCH  31  34
HETATM   34  C   UNK N   1      35.758  10.481  16.829  0.00  0.00     0.290 C 
BRANCH  34  35
HETATM   35  O   UNK N   1      34.903   9.442  16.468  0.00  0.00    -0.382 OA
HETATM   36  H   UNK N   1      34.372   8.647  16.631  0.00  0.00     0.211 HD
ENDBRANCH  34  35
ENDBRANCH  31  34
ENDBRANCH  16  30
BRANCH  17  37
HETATM   37  O   UNK N   1      35.446   8.515  13.428  0.00  0.00    -0.362 OA
HETATM   38  H   UNK N   1      35.274   8.318  14.327  0.00  0.00     0.217 HD
ENDBRANCH  17  37
BRANCH  10  39
HETATM   39  O   UNK N   1      32.269  13.690   9.320  0.00  0.00    -0.385 OA
HETATM   40  H   UNK N   1      31.355  13.680   9.646  0.00  0.00     0.211 HD
ENDBRANCH  10  39
BRANCH   3  41
HETATM   41  O   UNK N   1      35.318  18.467   9.094  0.00  0.00    -0.360 OA
HETATM   42  H   UNK N   1      35.593  18.347   9.982  0.00  0.00     0.217 HD
ENDBRANCH   3  41
TORSDOF 8
ENDMDL
MODEL 5
REMARK VINA RESULT:      -7.7      3.254      5.622
REMARK  8 active torsions:
REMARK  status: ('A' for Active; 'I' for Inactive)
REMARK    1  A    between atoms: C_3  and  O_20 
REMARK    2  A    between atoms: C_10  and  O_31 
REMARK    3  A    between atoms: C_11  and  O_22 
REMARK    4  A    between atoms: C_16  and  C_24 
REMARK    5  A    between atoms: C_17  and  O_29 
REMARK    6  A    between atoms: C_18  and  N_32 
REMARK       I    between atoms: C_24  and  N_25 
REMARK    7  A    between atoms: N_25  and  C_26 
REMARK    8  A    between atoms: C_26  and  O_27 
ROOT
HETATM    1  C   UNK N   1      19.660  18.539   3.106  0.00  0.00     0.027 A 
HETATM    2  C   UNK N   1      20.136  19.834   2.978  0.00  0.00     0.039 A 
HETATM    3  C   UNK N   1      21.495  20.100   3.101  0.00  0.00     0.080 A 
HETATM    4  C   UNK N   1      22.417  19.045   3.327  0.00  0.00     0.059 A 
HETATM    5  C   UNK N   1      21.936  17.705   3.418  0.00  0.00     0.015 A 
HETATM    6  C   UNK N   1      20.530  17.479   3.333  0.00  0.00     0.044 A 
HETATM    7  C   UNK N   1      23.854  19.350   3.594  0.00  0.00     0.195 C 
HETATM    8  C   UNK N   1      24.777  18.253   3.980  0.00  0.00     0.033 C 
HETATM    9  C   UNK N   1      24.399  16.865   3.517  0.00  0.00     0.065 C 
HETATM   10  C   UNK N   1      22.892  16.538   3.706  0.00  0.00     0.092 C 
HETATM   11  C   UNK N   1      25.898  18.495   4.714  0.00  0.00     0.097 C 
HETATM   12  C   UNK N   1      26.842  17.380   5.141  0.00  0.00     0.177 C 
HETATM   13  C   UNK N   1      26.693  16.098   4.316  0.00  0.00     0.075 C 
HETATM   14  C   UNK N   1      25.226  15.749   4.184  0.00  0.00     0.024 C 
HETATM   15  C   UNK N   1      28.311  17.740   5.046  0.00  0.00     0.208 C 
HETATM   16  C   UNK N   1      29.357  16.703   5.390  0.00  0.00     0.112 C 
HETATM   17  C   UNK N   1      28.928  15.390   5.429  0.00  0.00     0.096 C 
HETATM   18  C   UNK N   1      27.495  15.000   5.072  0.00  0.00     0.286 C 
HETATM   19 Cl   UNK N   1      19.794  15.890   3.540  0.00  0.00    -0.084 Cl
HETATM   20  O   UNK N   1      24.242  20.510   3.616  0.00  0.00    -0.287 OA
HETATM   21  O   UNK N   1      28.641  18.867   4.699  0.00  0.00    -0.288 OA
HETATM   22  C   UNK N   1      22.614  15.367   2.758  0.00  0.00     0.052 C 
HETATM   23  O   UNK N   1      26.546  17.121   6.485  0.00  0.00    -0.374 OA
HETATM   24  H   UNK N   1      26.417  17.006   7.440  0.00  0.00     0.211 HD
ENDROOT
BRANCH  11  25
HETATM   25  O   UNK N   1      26.145  19.743   5.168  0.00  0.00    -0.361 OA
HETATM   26  H   UNK N   1      26.701  19.893   5.909  0.00  0.00     0.217 HD
ENDBRANCH  11  25
BRANCH  18  27
HETATM   27  N   UNK N   1      27.429  13.627   4.539  0.00  0.00     0.091 N 
HETATM   28  C   UNK N   1      26.374  12.867   5.190  0.00  0.00     0.310 C 
HETATM   29  C   UNK N   1      27.227  13.599   3.098  0.00  0.00     0.310 C 
ENDBRANCH  18  27
BRANCH  16  30
HETATM   30  C   UNK N   1      30.778  17.231   5.679  0.00  0.00     0.259 C 
HETATM   31  N   UNK N   1      31.385  17.393   6.891  0.00  0.00    -0.336 N 
HETATM   32  H   UNK N   1      32.305  17.744   6.846  0.00  0.00     0.164 HD
HETATM   33  O   UNK N   1      31.452  17.542   4.707  0.00  0.00    -0.267 OA
BRANCH  31  34
HETATM   34  C   UNK N   1      30.905  17.134   8.217  0.00  0.00     0.290 C 
BRANCH  34  35
HETATM   35  O   UNK N   1      31.904  17.430   9.142  0.00  0.00    -0.382 OA
HETATM   36  H   UNK N   1      32.268  17.538  10.034  0.00  0.00     0.211 HD
ENDBRANCH  34  35
ENDBRANCH  31  34
ENDBRANCH  16  30
BRANCH  17  37
HETATM   37  O   UNK N   1      29.730  14.386   5.794  0.00  0.00    -0.362 OA
HETATM   38  H   UNK N   1      29.395  13.521   5.924  0.00  0.00     0.217 HD
ENDBRANCH  17  37
BRANCH  10  39
HETATM   39  O   UNK N   1      22.650  16.121   5.018  0.00  0.00    -0.385 OA
HETATM   40  H   UNK N   1      22.335  15.993   5.928  0.00  0.00     0.211 HD
ENDBRANCH  10  39
BRANCH   3  41
HETATM   41  O   UNK N   1      21.901  21.380   3.032  0.00  0.00    -0.360 OA
HETATM   42  H   UNK N   1      22.714  21.654   3.410  0.00  0.00     0.217 HD
ENDBRANCH   3  41
TORSDOF 8
ENDMDL
MODEL 6
REMARK VINA RESULT:      -7.7      3.354      7.932
REMARK  8 active torsions:
REMARK  status: ('A' for Active; 'I' for Inactive)
REMARK    1  A    between atoms: C_3  and  O_20 
REMARK    2  A    between atoms: C_10  and  O_31 
REMARK    3  A    between atoms: C_11  and  O_22 
REMARK    4  A    between atoms: C_16  and  C_24 
REMARK    5  A    between atoms: C_17  and  O_29 
REMARK    6  A    between atoms: C_18  and  N_32 
REMARK       I    between atoms: C_24  and  N_25 
REMARK    7  A    between atoms: N_25  and  C_26 
REMARK    8  A    between atoms: C_26  and  O_27 
ROOT
HETATM    1  C   UNK N   1      38.673  13.375   8.955  0.00  0.00     0.027 A 
HETATM    2  C   UNK N   1      38.243  13.843  10.186  0.00  0.00     0.039 A 
HETATM    3  C   UNK N   1      36.981  14.408  10.325  0.00  0.00     0.080 A 
HETATM    4  C   UNK N   1      36.102  14.486   9.213  0.00  0.00     0.059 A 
HETATM    5  C   UNK N   1      36.524  13.969   7.951  0.00  0.00     0.015 A 
HETATM    6  C   UNK N   1      37.844  13.439   7.840  0.00  0.00     0.044 A 
HETATM    7  C   UNK N   1      34.805  15.215   9.333  0.00  0.00     0.195 C 
HETATM    8  C   UNK N   1      33.966  15.422   8.125  0.00  0.00     0.033 C 
HETATM    9  C   UNK N   1      34.139  14.419   7.009  0.00  0.00     0.065 C 
HETATM   10  C   UNK N   1      35.624  14.072   6.711  0.00  0.00     0.092 C 
HETATM   11  C   UNK N   1      33.094  16.464   8.038  0.00  0.00     0.097 C 
HETATM   12  C   UNK N   1      32.245  16.707   6.799  0.00  0.00     0.177 C 
HETATM   13  C   UNK N   1      32.106  15.477   5.897  0.00  0.00     0.075 C 
HETATM   14  C   UNK N   1      33.466  14.846   5.690  0.00  0.00     0.024 C 
HETATM   15  C   UNK N   1      30.823  17.140   7.096  0.00  0.00     0.208 C 
HETATM   16  C   UNK N   1      29.857  17.362   5.953  0.00  0.00     0.112 C 
HETATM   17  C   UNK N   1      30.216  16.823   4.733  0.00  0.00     0.096 C 
HETATM   18  C   UNK N   1      31.482  15.984   4.565  0.00  0.00     0.286 C 
HETATM   19 Cl   UNK N   1      38.530  12.872   6.318  0.00  0.00    -0.084 Cl
HETATM   20  O   UNK N   1      34.494  15.746  10.390  0.00  0.00    -0.287 OA
HETATM   21  O   UNK N   1      30.468  17.311   8.255  0.00  0.00    -0.288 OA
HETATM   22  C   UNK N   1      35.582  12.736   5.963  0.00  0.00     0.052 C 
HETATM   23  O   UNK N   1      32.875  17.745   6.099  0.00  0.00    -0.374 OA
HETATM   24  H   UNK N   1      33.248  18.527   5.663  0.00  0.00     0.211 HD
ENDROOT
BRANCH  11  25
HETATM   25  O   UNK N   1      33.038  17.376   9.033  0.00  0.00    -0.361 OA
HETATM   26  H   UNK N   1      33.808  17.820   9.334  0.00  0.00     0.217 HD
ENDBRANCH  11  25
BRANCH  18  27
HETATM   27  N   UNK N   1      31.336  15.006   3.471  0.00  0.00     0.091 N 
HETATM   28  C   UNK N   1      32.613  14.766   2.816  0.00  0.00     0.310 C 
HETATM   29  C   UNK N   1      30.781  13.740   3.927  0.00  0.00     0.310 C 
ENDBRANCH  18  27
BRANCH  16  30
HETATM   30  C   UNK N   1      28.592  18.186   6.275  0.00  0.00     0.259 C 
HETATM   31  N   UNK N   1      27.613  17.905   7.183  0.00  0.00    -0.336 N 
HETATM   32  H   UNK N   1      26.891  18.574   7.230  0.00  0.00     0.164 HD
HETATM   33  O   UNK N   1      28.442  19.223   5.644  0.00  0.00    -0.267 OA
BRANCH  31  34
HETATM   34  C   UNK N   1      27.464  16.798   8.082  0.00  0.00     0.290 C 
BRANCH  34  35
HETATM   35  O   UNK N   1      27.505  17.255   9.398  0.00  0.00    -0.382 OA
HETATM   36  H   UNK N   1      27.521  17.150  10.362  0.00  0.00     0.211 HD
ENDBRANCH  34  35
ENDBRANCH  31  34
ENDBRANCH  16  30
BRANCH  17  37
HETATM   37  O   UNK N   1      29.493  17.012   3.626  0.00  0.00    -0.362 OA
HETATM   38  H   UNK N   1      29.838  17.487   2.897  0.00  0.00     0.217 HD
ENDBRANCH  17  37
BRANCH  10  39
HETATM   39  O   UNK N   1      36.187  15.039   5.873  0.00  0.00    -0.385 OA
HETATM   40  H   UNK N   1      36.661  15.788   5.477  0.00  0.00     0.211 HD
ENDBRANCH  10  39
BRANCH   3  41
HETATM   41  O   UNK N   1      36.634  14.904  11.525  0.00  0.00    -0.360 OA
HETATM   42  H   UNK N   1      35.748  14.870  11.828  0.00  0.00     0.217 HD
ENDBRANCH   3  41
TORSDOF 8
ENDMDL
MODEL 7
REMARK VINA RESULT:      -7.1     13.775     15.483
REMARK  8 active torsions:
REMARK  status: ('A' for Active; 'I' for Inactive)
REMARK    1  A    between atoms: C_3  and  O_20 
REMARK    2  A    between atoms: C_10  and  O_31 
REMARK    3  A    between atoms: C_11  and  O_22 
REMARK    4  A    between atoms: C_16  and  C_24 
REMARK    5  A    between atoms: C_17  and  O_29 
REMARK    6  A    between atoms: C_18  and  N_32 
REMARK       I    between atoms: C_24  and  N_25 
REMARK    7  A    between atoms: N_25  and  C_26 
REMARK    8  A    between atoms: C_26  and  O_27 
ROOT
HETATM    1  C   UNK N   1      28.622  19.746  -8.160  0.00  0.00     0.027 A 
HETATM    2  C   UNK N   1      29.774  19.436  -7.455  0.00  0.00     0.039 A 
HETATM    3  C   UNK N   1      30.289  20.326  -6.520  0.00  0.00     0.080 A 
HETATM    4  C   UNK N   1      29.626  21.551  -6.251  0.00  0.00     0.059 A 
HETATM    5  C   UNK N   1      28.417  21.858  -6.944  0.00  0.00     0.015 A 
HETATM    6  C   UNK N   1      27.945  20.939  -7.929  0.00  0.00     0.044 A 
HETATM    7  C   UNK N   1      30.255  22.561  -5.350  0.00  0.00     0.195 C 
HETATM    8  C   UNK N   1      29.628  23.898  -5.196  0.00  0.00     0.033 C 
HETATM    9  C   UNK N   1      28.141  23.975  -5.454  0.00  0.00     0.065 C 
HETATM   10  C   UNK N   1      27.689  23.191  -6.717  0.00  0.00     0.092 C 
HETATM   11  C   UNK N   1      30.362  24.990  -4.846  0.00  0.00     0.097 C 
HETATM   12  C   UNK N   1      29.742  26.373  -4.709  0.00  0.00     0.177 C 
HETATM   13  C   UNK N   1      28.220  26.350  -4.538  0.00  0.00     0.075 C 
HETATM   14  C   UNK N   1      27.610  25.418  -5.561  0.00  0.00     0.024 C 
HETATM   15  C   UNK N   1      30.259  27.171  -3.529  0.00  0.00     0.208 C 
HETATM   16  C   UNK N   1      29.685  28.542  -3.248  0.00  0.00     0.112 C 
HETATM   17  C   UNK N   1      28.486  28.843  -3.863  0.00  0.00     0.096 C 
HETATM   18  C   UNK N   1      27.742  27.820  -4.719  0.00  0.00     0.286 C 
HETATM   19 Cl   UNK N   1      26.530  21.247  -8.934  0.00  0.00    -0.084 Cl
HETATM   20  O   UNK N   1      31.343  22.335  -4.838  0.00  0.00    -0.287 OA
HETATM   21  O   UNK N   1      31.140  26.705  -2.817  0.00  0.00    -0.288 OA
HETATM   22  C   UNK N   1      26.186  22.960  -6.529  0.00  0.00     0.052 C 
HETATM   23  O   UNK N   1      30.081  27.063  -5.880  0.00  0.00    -0.374 OA
HETATM   24  H   UNK N   1      30.397  27.578  -6.639  0.00  0.00     0.211 HD
ENDROOT
BRANCH  11  25
HETATM   25  O   UNK N   1      31.701  24.880  -4.706  0.00  0.00    -0.361 OA
HETATM   26  H   UNK N   1      32.214  24.361  -5.296  0.00  0.00     0.217 HD
ENDBRANCH  11  25
BRANCH  18  27
HETATM   27  N   UNK N   1      26.287  28.064  -4.706  0.00  0.00     0.091 N 
HETATM   28  C   UNK N   1      25.649  27.457  -5.863  0.00  0.00     0.310 C 
HETATM   29  C   UNK N   1      25.653  27.575  -3.491  0.00  0.00     0.310 C 
ENDBRANCH  18  27
BRANCH  16  30
HETATM   30  C   UNK N   1      30.517  29.457  -2.324  0.00  0.00     0.259 C 
HETATM   31  N   UNK N   1      30.144  30.016  -1.135  0.00  0.00    -0.336 N 
HETATM   32  H   UNK N   1      30.838  30.569  -0.705  0.00  0.00     0.164 HD
HETATM   33  O   UNK N   1      31.654  29.716  -2.693  0.00  0.00    -0.267 OA
BRANCH  31  34
HETATM   34  C   UNK N   1      28.911  29.930  -0.410  0.00  0.00     0.290 C 
BRANCH  34  35
HETATM   35  O   UNK N   1      27.992  30.832  -0.942  0.00  0.00    -0.382 OA
HETATM   36  H   UNK N   1      27.431  31.202  -1.641  0.00  0.00     0.211 HD
ENDBRANCH  34  35
ENDBRANCH  31  34
ENDBRANCH  16  30
BRANCH  17  37
HETATM   37  O   UNK N   1      27.910  30.044  -3.761  0.00  0.00    -0.362 OA
HETATM   38  H   UNK N   1      27.832  30.608  -4.503  0.00  0.00     0.217 HD
ENDBRANCH  17  37
BRANCH  10  39
HETATM   39  O   UNK N   1      27.885  23.967  -7.862  0.00  0.00    -0.385 OA
HETATM   40  H   UNK N   1      28.072  24.662  -8.514  0.00  0.00     0.211 HD
ENDBRANCH  10  39
BRANCH   3  41
HETATM   41  O   UNK N   1      31.444  20.007  -5.909  0.00  0.00    -0.360 OA
HETATM   42  H   UNK N   1      32.180  19.689  -6.394  0.00  0.00     0.217 HD
ENDBRANCH   3  41
TORSDOF 8
ENDMDL
MODEL 8
REMARK VINA RESULT:      -7.0     13.993     16.395
REMARK  8 active torsions:
REMARK  status: ('A' for Active; 'I' for Inactive)
REMARK    1  A    between atoms: C_3  and  O_20 
REMARK    2  A    between atoms: C_10  and  O_31 
REMARK    3  A    between atoms: C_11  and  O_22 
REMARK    4  A    between atoms: C_16  and  C_24 
REMARK    5  A    between atoms: C_17  and  O_29 
REMARK    6  A    between atoms: C_18  and  N_32 
REMARK       I    between atoms: C_24  and  N_25 
REMARK    7  A    between atoms: N_25  and  C_26 
REMARK    8  A    between atoms: C_26  and  O_27 
ROOT
HETATM    1  C   UNK N   1      29.467  30.193  -2.783  0.00  0.00     0.027 A 
HETATM    2  C   UNK N   1      28.092  30.368  -2.775  0.00  0.00     0.039 A 
HETATM    3  C   UNK N   1      27.253  29.379  -3.276  0.00  0.00     0.080 A 
HETATM    4  C   UNK N   1      27.790  28.164  -3.774  0.00  0.00     0.059 A 
HETATM    5  C   UNK N   1      29.203  27.962  -3.748  0.00  0.00     0.015 A 
HETATM    6  C   UNK N   1      30.033  29.019  -3.268  0.00  0.00     0.044 A 
HETATM    7  C   UNK N   1      26.898  27.167  -4.436  0.00  0.00     0.195 C 
HETATM    8  C   UNK N   1      27.492  25.972  -5.088  0.00  0.00     0.033 C 
HETATM    9  C   UNK N   1      28.833  25.517  -4.562  0.00  0.00     0.065 C 
HETATM   10  C   UNK N   1      29.831  26.682  -4.318  0.00  0.00     0.092 C 
HETATM   11  C   UNK N   1      26.856  25.332  -6.108  0.00  0.00     0.097 C 
HETATM   12  C   UNK N   1      27.459  24.122  -6.806  0.00  0.00     0.177 C 
HETATM   13  C   UNK N   1      28.560  23.429  -5.996  0.00  0.00     0.075 C 
HETATM   14  C   UNK N   1      29.520  24.467  -5.457  0.00  0.00     0.024 C 
HETATM   15  C   UNK N   1      26.461  23.029  -7.129  0.00  0.00     0.208 C 
HETATM   16  C   UNK N   1      26.941  21.748  -7.776  0.00  0.00     0.112 C 
HETATM   17  C   UNK N   1      28.298  21.501  -7.714  0.00  0.00     0.096 C 
HETATM   18  C   UNK N   1      29.253  22.432  -6.969  0.00  0.00     0.286 C 
HETATM   19 Cl   UNK N   1      31.794  28.945  -3.285  0.00  0.00    -0.084 Cl
HETATM   20  O   UNK N   1      25.701  27.392  -4.548  0.00  0.00    -0.287 OA
HETATM   21  O   UNK N   1      25.275  23.191  -6.871  0.00  0.00    -0.288 OA
HETATM   22  C   UNK N   1      30.877  26.118  -3.350  0.00  0.00     0.052 C 
HETATM   23  O   UNK N   1      27.984  24.599  -8.014  0.00  0.00    -0.374 OA
HETATM   24  H   UNK N   1      28.259  24.902  -8.894  0.00  0.00     0.211 HD
ENDROOT
BRANCH  11  25
HETATM   25  O   UNK N   1      25.697  25.829  -6.592  0.00  0.00    -0.361 OA
HETATM   26  H   UNK N   1      25.194  26.457  -6.109  0.00  0.00     0.217 HD
ENDBRANCH  11  25
BRANCH  18  27
HETATM   27  N   UNK N   1      30.430  21.703  -6.463  0.00  0.00     0.091 N 
HETATM   28  C   UNK N   1      31.648  22.468  -6.681  0.00  0.00     0.310 C 
HETATM   29  C   UNK N   1      30.314  21.369  -5.051  0.00  0.00     0.310 C 
ENDBRANCH  18  27
BRANCH  16  30
HETATM   30  C   UNK N   1      25.861  20.874  -8.450  0.00  0.00     0.259 C 
HETATM   31  N   UNK N   1      25.492  20.858  -9.764  0.00  0.00    -0.336 N 
HETATM   32  H   UNK N   1      24.778  20.215  -9.982  0.00  0.00     0.164 HD
HETATM   33  O   UNK N   1      25.261  20.094  -7.725  0.00  0.00    -0.267 OA
BRANCH  31  34
HETATM   34  C   UNK N   1      25.973  21.621 -10.878  0.00  0.00     0.290 C 
BRANCH  34  35
HETATM   35  O   UNK N   1      25.540  22.940 -10.762  0.00  0.00    -0.382 OA
HETATM   36  H   UNK N   1      25.105  23.684 -10.316  0.00  0.00     0.211 HD
ENDBRANCH  34  35
ENDBRANCH  31  34
ENDBRANCH  16  30
BRANCH  17  37
HETATM   37  O   UNK N   1      28.862  20.447  -8.310  0.00  0.00    -0.362 OA
HETATM   38  H   UNK N   1      28.400  19.951  -8.956  0.00  0.00     0.217 HD
ENDBRANCH  17  37
BRANCH  10  39
HETATM   39  O   UNK N   1      30.467  27.031  -5.512  0.00  0.00    -0.385 OA
HETATM   40  H   UNK N   1      30.769  27.130  -6.430  0.00  0.00     0.211 HD
ENDBRANCH  10  39
BRANCH   3  41
HETATM   41  O   UNK N   1      25.931  29.622  -3.304  0.00  0.00    -0.360 OA
HETATM   42  H   UNK N   1      25.479  29.763  -4.113  0.00  0.00     0.217 HD
ENDBRANCH   3  41
TORSDOF 8
ENDMDL
MODEL 9
REMARK VINA RESULT:      -6.9      4.746      9.513
REMARK  8 active torsions:
REMARK  status: ('A' for Active; 'I' for Inactive)
REMARK    1  A    between atoms: C_3  and  O_20 
REMARK    2  A    between atoms: C_10  and  O_31 
REMARK    3  A    between atoms: C_11  and  O_22 
REMARK    4  A    between atoms: C_16  and  C_24 
REMARK    5  A    between atoms: C_17  and  O_29 
REMARK    6  A    between atoms: C_18  and  N_32 
REMARK       I    between atoms: C_24  and  N_25 
REMARK    7  A    between atoms: N_25  and  C_26 
REMARK    8  A    between atoms: C_26  and  O_27 
ROOT
HETATM    1  C   UNK N   1      37.121  11.953  13.506  0.00  0.00     0.027 A 
HETATM    2  C   UNK N   1      37.680  11.006  12.663  0.00  0.00     0.039 A 
HETATM    3  C   UNK N   1      37.514  11.101  11.286  0.00  0.00     0.080 A 
HETATM    4  C   UNK N   1      36.796  12.188  10.722  0.00  0.00     0.059 A 
HETATM    5  C   UNK N   1      36.253  13.189  11.583  0.00  0.00     0.015 A 
HETATM    6  C   UNK N   1      36.407  13.030  12.992  0.00  0.00     0.044 A 
HETATM    7  C   UNK N   1      36.504  12.213   9.259  0.00  0.00     0.195 C 
HETATM    8  C   UNK N   1      35.623  13.273   8.705  0.00  0.00     0.033 C 
HETATM    9  C   UNK N   1      35.558  14.565   9.485  0.00  0.00     0.065 C 
HETATM   10  C   UNK N   1      35.433  14.358  11.019  0.00  0.00     0.092 C 
HETATM   11  C   UNK N   1      34.915  13.079   7.559  0.00  0.00     0.097 C 
HETATM   12  C   UNK N   1      33.988  14.144   6.990  0.00  0.00     0.177 C 
HETATM   13  C   UNK N   1      34.270  15.553   7.522  0.00  0.00     0.075 C 
HETATM   14  C   UNK N   1      34.425  15.503   9.026  0.00  0.00     0.024 C 
HETATM   15  C   UNK N   1      34.045  14.275   5.481  0.00  0.00     0.208 C 
HETATM   16  C   UNK N   1      33.212  15.333   4.793  0.00  0.00     0.112 C 
HETATM   17  C   UNK N   1      32.722  16.345   5.595  0.00  0.00     0.096 C 
HETATM   18  C   UNK N   1      33.063  16.432   7.081  0.00  0.00     0.286 C 
HETATM   19 Cl   UNK N   1      35.691  14.130  14.169  0.00  0.00    -0.084 Cl
HETATM   20  O   UNK N   1      36.883  11.298   8.540  0.00  0.00    -0.287 OA
HETATM   21  O   UNK N   1      34.757  13.521   4.831  0.00  0.00    -0.288 OA
HETATM   22  C   UNK N   1      35.885  15.683  11.642  0.00  0.00     0.052 C 
HETATM   23  O   UNK N   1      32.690  13.751   7.341  0.00  0.00    -0.374 OA
HETATM   24  H   UNK N   1      31.786  13.433   7.493  0.00  0.00     0.211 HD
ENDROOT
BRANCH  11  25
HETATM   25  O   UNK N   1      34.948  11.876   6.946  0.00  0.00    -0.361 OA
HETATM   26  H   UNK N   1      35.562  11.693   6.260  0.00  0.00     0.217 HD
ENDBRANCH  11  25
BRANCH  18  27
HETATM   27  N   UNK N   1      33.033  17.826   7.560  0.00  0.00     0.091 N 
HETATM   28  C   UNK N   1      32.123  17.969   8.685  0.00  0.00     0.310 C 
HETATM   29  C   UNK N   1      34.352  18.313   7.939  0.00  0.00     0.310 C 
ENDBRANCH  18  27
BRANCH  16  30
HETATM   30  C   UNK N   1      32.986  15.150   3.276  0.00  0.00     0.259 C 
HETATM   31  N   UNK N   1      32.340  14.131   2.639  0.00  0.00    -0.336 N 
HETATM   32  H   UNK N   1      32.308  14.215   1.658  0.00  0.00     0.164 HD
HETATM   33  O   UNK N   1      33.436  16.025   2.549  0.00  0.00    -0.267 OA
BRANCH  31  34
HETATM   34  C   UNK N   1      31.699  12.961   3.162  0.00  0.00     0.290 C 
BRANCH  34  35
HETATM   35  O   UNK N   1      30.460  13.306   3.698  0.00  0.00    -0.382 OA
HETATM   36  H   UNK N   1      29.862  13.611   4.398  0.00  0.00     0.211 HD
ENDBRANCH  34  35
ENDBRANCH  31  34
ENDBRANCH  16  30
BRANCH  17  37
HETATM   37  O   UNK N   1      31.910  17.299   5.129  0.00  0.00    -0.362 OA
HETATM   38  H   UNK N   1      31.225  17.654   5.660  0.00  0.00     0.217 HD
ENDBRANCH  17  37
BRANCH  10  39
HETATM   39  O   UNK N   1      34.098  14.130  11.368  0.00  0.00    -0.385 OA
HETATM   40  H   UNK N   1      33.232  13.762  11.605  0.00  0.00     0.211 HD
ENDBRANCH  10  39
BRANCH   3  41
HETATM   41  O   UNK N   1      38.020  10.123  10.515  0.00  0.00    -0.360 OA
HETATM   42  H   UNK N   1      37.800   9.224  10.662  0.00  0.00     0.217 HD
ENDBRANCH   3  41
TORSDOF 8
ENDMDL
