REMARK  12 active torsions:
REMARK  status: ('A' for Active; 'I' for Inactive)
REMARK    1  A    between atoms: C_8  and  O_27 
REMARK    2  A    between atoms: C_24  and  C_20 
REMARK    3  A    between atoms: C_28  and  O_27 
REMARK    4  A    between atoms: C_33  and  O_34 
REMARK    5  A    between atoms: C_35  and  O_36 
REMARK    6  A    between atoms: C_37  and  O_36 
REMARK    7  A    between atoms: C_42  and  O_43 
REMARK    8  A    between atoms: C_44  and  O_45 
REMARK    9  A    between atoms: C_46  and  O_45 
REMARK   10  A    between atoms: C_51  and  O_52 
REMARK   11  A    between atoms: C_53  and  O_54 
REMARK   12  A    between atoms: O_54  and  C_55 
ROOT
HETATM    1  C   UNK N   1      -2.008  -0.026  -0.648  0.00  0.00     0.012 C 
HETATM    2  C   UNK N   1      -3.151  -0.848  -1.205  0.00  0.00     0.033 C 
HETATM    3  C   UNK N   1      -1.851  -2.996  -0.645  0.00  0.00     0.037 C 
HETATM    4  C   UNK N   1       0.661  -2.850  -0.403  0.00  0.00     0.006 C 
HETATM    5  C   UNK N   1       1.840  -2.033   0.163  0.00  0.00     0.008 C 
HETATM    6  C   UNK N   1       0.329   1.560  -0.313  0.00  0.00     0.007 C 
HETATM    7  C   UNK N   1       4.384   0.039   0.046  0.00  0.00     0.040 C 
HETATM    8  C   UNK N   1      -3.158  -2.208  -0.530  0.00  0.00     0.125 C 
HETATM    9  C   UNK N   1      -0.684  -2.151  -0.148  0.00  0.00    -0.004 C 
HETATM   10  C   UNK N   1      -0.664  -0.731  -0.789  0.00  0.00    -0.036 C 
HETATM   11  C   UNK N   1      -0.369  -0.777  -2.296  0.00  0.00     0.016 C 
HETATM   12  C   UNK N   1       0.413   0.055  -0.014  0.00  0.00     0.001 C 
HETATM   13  C   UNK N   1       2.908   0.290   0.395  0.00  0.00     0.070 C 
HETATM   14  O   UNK N   1       2.760   0.139   1.784  0.00  0.00    -0.389 OA
HETATM   15  C   UNK N   1       1.409   2.311   0.454  0.00  0.00     0.013 C 
HETATM   16  C   UNK N   1       2.755   1.762  -0.005  0.00  0.00    -0.005 C 
HETATM   17  C   UNK N   1       2.853   1.956  -1.544  0.00  0.00     0.019 C 
HETATM   18  C   UNK N   1       3.969   2.375   0.675  0.00  0.00     0.028 C 
HETATM   19  C   UNK N   1       1.823  -0.563  -0.305  0.00  0.00     0.025 C 
HETATM   20  C   UNK N   1       5.084   1.425   0.212  0.00  0.00     0.013 C 
HETATM   21  H   UNK N   1       2.619   0.175   2.743  0.00  0.00     0.210 HD
ENDROOT
BRANCH  18  22
HETATM   22  C   UNK N   1       4.070   3.851   0.378  0.00  0.00    -0.045 A 
HETATM   23  C   UNK N   1       4.409   4.466  -0.967  0.00  0.00     0.213 A 
HETATM   24  O   UNK N   1       3.910   5.756  -0.845  0.00  0.00    -0.314 OA
HETATM   25  C   UNK N   1       3.343   5.918   0.353  0.00  0.00     0.283 A 
HETATM   26  C   UNK N   1       3.398   4.721   1.125  0.00  0.00     0.087 A 
HETATM   27  O   UNK N   1       2.756   6.941   0.692  0.00  0.00    -0.260 OA
ENDBRANCH  18  22
BRANCH   8  28
HETATM   28  O   UNK N   1      -3.966  -2.353   0.624  0.00  0.00    -0.356 OA
BRANCH  28  29
HETATM   29  C   UNK N   1      -3.490  -1.791   1.849  0.00  0.00     0.263 C 
HETATM   30  C   UNK N   1      -4.672  -1.877   2.848  0.00  0.00     0.095 C 
HETATM   31  C   UNK N   1      -5.888  -1.077   2.316  0.00  0.00     0.154 C 
HETATM   32  C   UNK N   1      -5.377  -0.069   1.292  0.00  0.00     0.182 C 
HETATM   33  C   UNK N   1      -4.080   0.560   1.767  0.00  0.00     0.152 C 
HETATM   34  O   UNK N   1      -3.037  -0.425   1.747  0.00  0.00    -0.354 OA
HETATM   35  C   UNK N   1      -3.686   1.792   0.966  0.00  0.00     0.042 C 
BRANCH  31  36
HETATM   36  O   UNK N   1      -6.787  -1.950   1.706  0.00  0.00    -0.393 OA
HETATM   37  H   UNK N   1      -7.626  -1.712   1.281  0.00  0.00     0.210 HD
ENDBRANCH  31  36
BRANCH  32  38
HETATM   38  O   UNK N   1      -6.300   0.672   0.553  0.00  0.00    -0.351 OA
BRANCH  38  39
HETATM   39  C   UNK N   1      -5.993   0.353  -0.792  0.00  0.00     0.263 C 
HETATM   40  O   UNK N   1      -6.143  -1.049  -1.060  0.00  0.00    -0.354 OA
HETATM   41  C   UNK N   1      -7.312  -1.383  -1.792  0.00  0.00     0.152 C 
HETATM   42  C   UNK N   1      -8.533  -0.584  -1.318  0.00  0.00     0.182 C 
HETATM   43  C   UNK N   1      -7.555  -2.877  -1.684  0.00  0.00     0.042 C 
HETATM   44  C   UNK N   1      -8.251   0.925  -1.609  0.00  0.00     0.154 C 
HETATM   45  C   UNK N   1      -6.770   1.245  -1.748  0.00  0.00     0.095 C 
BRANCH  42  46
HETATM   46  O   UNK N   1      -8.750  -0.858   0.055  0.00  0.00    -0.351 OA
BRANCH  46  47
HETATM   47  C   UNK N   1     -10.044  -0.460   0.475  0.00  0.00     0.263 C 
HETATM   48  C   UNK N   1     -10.809  -1.499   1.320  0.00  0.00     0.096 C 
HETATM   49  C   UNK N   1     -12.329  -1.338   1.091  0.00  0.00     0.167 C 
HETATM   50  C   UNK N   1     -12.731   0.162   0.993  0.00  0.00     0.176 C 
HETATM   51  C   UNK N   1     -11.673   0.968   0.232  0.00  0.00     0.151 C 
HETATM   52  O   UNK N   1     -10.865   0.113  -0.519  0.00  0.00    -0.354 OA
HETATM   53  C   UNK N   1     -12.262   2.072  -0.619  0.00  0.00     0.042 C 
BRANCH  49  54
HETATM   54  O   UNK N   1     -12.622  -2.002  -0.088  0.00  0.00    -0.313 OA
BRANCH  54  55
HETATM   55  C   UNK N   1     -13.844  -2.057  -0.674  0.00  0.00     0.255 C 
HETATM   56  C   UNK N   1     -14.037  -2.918  -1.872  0.00  0.00     0.126 C 
HETATM   57  O   UNK N   1     -14.781  -1.398  -0.247  0.00  0.00    -0.266 OA
ENDBRANCH  54  55
ENDBRANCH  49  54
BRANCH  50  58
HETATM   58  O   UNK N   1     -12.886   0.714   2.265  0.00  0.00    -0.390 OA
HETATM   59  H   UNK N   1     -12.608   0.999   3.149  0.00  0.00     0.210 HD
ENDBRANCH  50  58
ENDBRANCH  46  47
ENDBRANCH  42  46
BRANCH  44  60
HETATM   60  O   UNK N   1      -8.801   1.771  -0.645  0.00  0.00    -0.393 OA
HETATM   61  H   UNK N   1      -8.483   2.395   0.026  0.00  0.00     0.210 HD
ENDBRANCH  44  60
ENDBRANCH  38  39
ENDBRANCH  32  38
ENDBRANCH  28  29
ENDBRANCH   8  28
TORSDOF 12
