REMARK  9 active torsions:
REMARK  status: ('A' for Active; 'I' for Inactive)
REMARK    1  A    between atoms: C_10  and  C_8 
REMARK       I    between atoms: N_58  and  C_10 
REMARK    2  A    between atoms: N_15  and  C_11 
REMARK    3  A    between atoms: C_19  and  C_16 
REMARK       I    between atoms: N_24  and  C_19 
REMARK    4  A    between atoms: C_25  and  N_24 
REMARK    5  A    between atoms: C_43  and  C_44 
REMARK    6  A    between atoms: C_54  and  C_56 
REMARK    7  A    between atoms: C_59  and  N_58 
REMARK    8  A    between atoms: C_77  and  C_78 
REMARK    9  A    between atoms: C_88  and  C_90 
ROOT
HETATM    1  C   UNK N   1       1.222  -0.522   0.327  0.00  0.00     0.086 A 
HETATM    2  C   UNK N   1       1.089  -1.979   0.142  0.00  0.00     0.114 A 
HETATM    3  O   UNK N   1      -0.123  -2.498  -0.061  0.00  0.00    -0.305 OA
HETATM    4  C   UNK N   1      -1.082  -0.324   0.047  0.00  0.00     0.083 A 
HETATM    5  C   UNK N   1      -1.213  -1.726  -0.065  0.00  0.00     0.109 A 
HETATM    6  N   UNK N   1       0.131   0.230   0.221  0.00  0.00    -0.350 N 
ATOM      7  HN  UNK N   1       0.216   1.245   0.271  1.00  0.00     0.166 HD
HETATM    8  C   UNK N   1       2.408   0.043   0.780  0.00  0.00     0.091 A 
HETATM    9  C   UNK N   1       2.213  -2.784   0.296  0.00  0.00     0.027 A 
HETATM   10  C   UNK N   1       3.507  -0.819   1.007  0.00  0.00     0.095 A 
HETATM   11  C   UNK N   1       3.422  -2.203   0.728  0.00  0.00     0.207 A 
HETATM   12  C   UNK N   1       2.109  -4.261   0.087  0.00  0.00     0.056 C 
HETATM   13  C   UNK N   1      -2.188   0.503   0.091  0.00  0.00     0.061 A 
HETATM   14  C   UNK N   1      -2.501  -2.286  -0.130  0.00  0.00    -0.026 A 
HETATM   15  O   UNK N   1       4.400  -2.911   0.903  0.00  0.00    -0.285 OA
HETATM   16  C   UNK N   1      -3.470  -0.062   0.071  0.00  0.00     0.020 A 
HETATM   17  C   UNK N   1      -3.625  -1.451  -0.042  0.00  0.00     0.011 A 
HETATM   18  C   UNK N   1      -2.691  -3.760  -0.224  0.00  0.00     0.051 C 
ENDROOT
BRANCH   8  19
HETATM   19  C   UNK N   1       2.469   1.509   1.122  0.00  0.00     0.257 C 
HETATM   20  N   UNK N   1       1.929   2.470   0.295  0.00  0.00    -0.341 N 
HETATM   21  H   UNK N   1       1.427   2.163  -0.494  0.00  0.00     0.163 HD
HETATM   22  O   UNK N   1       3.062   1.839   2.138  0.00  0.00    -0.267 OA
BRANCH  20  23
HETATM   23  C   UNK N   1       2.050   3.929   0.506  0.00  0.00     0.206 C 
HETATM   24  C   UNK N   1       1.482   4.763  -0.663  0.00  0.00     0.243 C 
HETATM   25  O   UNK N   1       0.775   4.199  -1.482  0.00  0.00    -0.271 OA
HETATM   26  N   UNK N   1       1.734   6.104  -0.852  0.00  0.00    -0.346 N 
HETATM   27  C   UNK N   1       2.626   6.953  -0.063  0.00  0.00     0.180 C 
HETATM   28  H   UNK N   1       1.263   6.538  -1.599  0.00  0.00     0.163 HD
HETATM   29  C   UNK N   1       4.065   6.902  -0.628  0.00  0.00     0.243 C 
HETATM   30  N   UNK N   1       5.070   7.804  -0.346  0.00  0.00    -0.337 N 
HETATM   31  O   UNK N   1       4.340   5.937  -1.329  0.00  0.00    -0.271 OA
HETATM   32  C   UNK N   1       4.879   9.057   0.317  0.00  0.00     0.127 C 
HETATM   33  C   UNK N   1       6.446   7.553  -0.732  0.00  0.00     0.179 C 
HETATM   34  C   UNK N   1       6.190   9.806   0.155  0.00  0.00     0.022 C 
HETATM   35  C   UNK N   1       7.224   8.775  -0.274  0.00  0.00     0.037 C 
HETATM   36  C   UNK N   1       7.004   6.304  -0.046  0.00  0.00     0.242 C 
HETATM   37  O   UNK N   1       6.296   5.703   0.752  0.00  0.00    -0.271 OA
HETATM   38  N   UNK N   1       8.255   5.819  -0.334  0.00  0.00    -0.346 N 
HETATM   39  C   UNK N   1       8.693   4.530   0.175  0.00  0.00     0.228 C 
HETATM   40  C   UNK N   1       9.125   6.508  -1.252  0.00  0.00     0.153 C 
HETATM   41  C   UNK N   1       7.772   3.473  -0.375  0.00  0.00     0.238 C 
HETATM   42  O   UNK N   1       7.541   3.477  -1.577  0.00  0.00    -0.272 OA
HETATM   43  N   UNK N   1       7.123   2.592   0.444  0.00  0.00    -0.341 N 
HETATM   44  C   UNK N   1       7.404   2.553   1.859  0.00  0.00     0.153 C 
HETATM   45  C   UNK N   1       6.001   1.813  -0.048  0.00  0.00     0.190 C 
HETATM   46  C   UNK N   1       4.866   2.777  -0.257  0.00  0.00     0.282 C 
HETATM   47  O   UNK N   1       4.458   3.473   0.831  0.00  0.00    -0.312 OA
HETATM   48  O   UNK N   1       4.346   2.940  -1.352  0.00  0.00    -0.263 OA
HETATM   49  C   UNK N   1       3.453   4.407   0.896  0.00  0.00     0.159 C 
HETATM   50  C   UNK N   1       3.397   4.982   2.298  0.00  0.00     0.042 C 
BRANCH  27  51
HETATM   51  C   UNK N   1       1.989   8.283   0.404  0.00  0.00     0.009 C 
HETATM   52  C   UNK N   1       2.520   8.683   1.768  0.00  0.00     0.012 C 
HETATM   53  C   UNK N   1       0.497   8.153   0.605  0.00  0.00     0.012 C 
ENDBRANCH  27  51
BRANCH  45  54
HETATM   54  C   UNK N   1       6.364   0.901  -1.232  0.00  0.00     0.010 C 
HETATM   55  C   UNK N   1       7.420  -0.097  -0.797  0.00  0.00     0.012 C 
HETATM   56  C   UNK N   1       5.156   0.121  -1.725  0.00  0.00     0.012 C 
ENDBRANCH  45  54
ENDBRANCH  20  23
ENDBRANCH   8  19
BRANCH  10  57
HETATM   57  N   UNK N   1       4.717  -0.299   1.516  0.00  0.00    -0.395 N 
HETATM   58  H   UNK N   1       5.453  -0.849   1.871  0.00  0.00     0.156 HD
HETATM   59  H   UNK N   1       4.833   0.679   1.516  0.00  0.00     0.156 HD
ENDBRANCH  10  57
BRANCH  13  60
HETATM   60  C   UNK N   1      -1.984   1.967   0.100  0.00  0.00     0.254 C 
HETATM   61  N   UNK N   1      -2.895   2.777   0.669  0.00  0.00    -0.341 N 
HETATM   62  H   UNK N   1      -3.454   2.420   1.396  0.00  0.00     0.163 HD
HETATM   63  O   UNK N   1      -1.055   2.444  -0.535  0.00  0.00    -0.268 OA
BRANCH  61  64
HETATM   64  C   UNK N   1      -3.091   4.154   0.258  0.00  0.00     0.206 C 
HETATM   65  C   UNK N   1      -1.939   5.055   0.704  0.00  0.00     0.243 C 
HETATM   66  O   UNK N   1      -0.972   4.545   1.249  0.00  0.00    -0.271 OA
HETATM   67  N   UNK N   1      -1.990   6.412   0.644  0.00  0.00    -0.346 N 
HETATM   68  C   UNK N   1      -3.029   7.223   0.045  0.00  0.00     0.180 C 
HETATM   69  H   UNK N   1      -1.237   6.896   1.053  0.00  0.00     0.163 HD
HETATM   70  C   UNK N   1      -3.918   7.817   1.112  0.00  0.00     0.243 C 
HETATM   71  N   UNK N   1      -5.285   7.783   1.006  0.00  0.00    -0.337 N 
HETATM   72  O   UNK N   1      -3.397   8.400   2.055  0.00  0.00    -0.271 OA
HETATM   73  C   UNK N   1      -6.111   8.570   1.872  0.00  0.00     0.127 C 
HETATM   74  C   UNK N   1      -6.014   7.284  -0.138  0.00  0.00     0.179 C 
HETATM   75  C   UNK N   1      -7.184   9.108   0.925  0.00  0.00     0.022 C 
HETATM   76  C   UNK N   1      -6.860   8.506  -0.454  0.00  0.00     0.037 C 
HETATM   77  C   UNK N   1      -6.813   6.035   0.290  0.00  0.00     0.242 C 
HETATM   78  O   UNK N   1      -6.198   5.206   0.943  0.00  0.00    -0.271 OA
HETATM   79  N   UNK N   1      -8.146   5.799  -0.022  0.00  0.00    -0.346 N 
HETATM   80  C   UNK N   1      -8.872   4.631   0.482  0.00  0.00     0.228 C 
HETATM   81  C   UNK N   1      -8.904   6.694  -0.857  0.00  0.00     0.153 C 
HETATM   82  C   UNK N   1      -8.112   3.349   0.294  0.00  0.00     0.238 C 
HETATM   83  O   UNK N   1      -7.711   2.791   1.302  0.00  0.00    -0.272 OA
HETATM   84  N   UNK N   1      -7.772   2.887  -0.957  0.00  0.00    -0.341 N 
HETATM   85  C   UNK N   1      -8.315   3.524  -2.129  0.00  0.00     0.153 C 
HETATM   86  C   UNK N   1      -6.673   1.954  -1.177  0.00  0.00     0.190 C 
HETATM   87  C   UNK N   1      -5.429   2.584  -0.650  0.00  0.00     0.282 C 
HETATM   88  O   UNK N   1      -4.558   3.198  -1.516  0.00  0.00    -0.312 OA
HETATM   89  O   UNK N   1      -5.301   2.664   0.559  0.00  0.00    -0.263 OA
HETATM   90  C   UNK N   1      -3.475   4.047  -1.243  0.00  0.00     0.159 C 
HETATM   91  C   UNK N   1      -3.649   5.336  -2.006  0.00  0.00     0.042 C 
BRANCH  68  92
HETATM   92  C   UNK N   1      -2.359   8.356  -0.756  0.00  0.00     0.009 C 
HETATM   93  C   UNK N   1      -3.373   9.305  -1.373  0.00  0.00     0.012 C 
HETATM   94  C   UNK N   1      -1.474   7.814  -1.865  0.00  0.00     0.012 C 
ENDBRANCH  68  92
BRANCH  86  95
HETATM   95  C   UNK N   1      -6.861   0.480  -0.743  0.00  0.00     0.010 C 
HETATM   96  C   UNK N   1      -7.005   0.212   0.747  0.00  0.00     0.012 C 
HETATM   97  C   UNK N   1      -7.964  -0.207  -1.515  0.00  0.00     0.012 C 
ENDBRANCH  86  95
ENDBRANCH  61  64
ENDBRANCH  13  60
TORSDOF 9
