MODEL 1
REMARK VINA RESULT:      -6.1      0.000      0.000
REMARK  0 active torsions:
REMARK  status: ('A' for Active; 'I' for Inactive)
ROOT
HETATM    1  C   UNK N   1      35.482  15.836  11.274  0.00  0.00     0.684 A 
HETATM    2  N   UNK N   1      34.748  14.687  10.981  0.00  0.00    -0.204 N 
HETATM    3  C   UNK N   1      33.854  15.808   9.007  0.00  0.00     0.011 A 
HETATM    4  N   UNK N   1      35.449  16.897  10.547  0.00  0.00    -0.191 N 
ATOM      5  HN  UNK N   1      36.006  17.712  10.805  1.00  0.00     0.184 HD
HETATM    6  C   UNK N   1      34.634  16.933   9.380  0.00  0.00     0.059 A 
HETATM    7  C   UNK N   1      33.874  14.550   9.843  0.00  0.00     0.184 A 
HETATM    8  C   UNK N   1      33.055  15.862   7.852  0.00  0.00     0.066 A 
HETATM    9  C   UNK N   1      33.035  17.031   7.073  0.00  0.00     0.056 A 
HETATM   10  C   UNK N   1      34.602  18.088   8.594  0.00  0.00     0.032 A 
HETATM   11  C   UNK N   1      33.807  18.135   7.447  0.00  0.00     0.028 A 
HETATM   12 Cl   UNK N   1      32.084  14.464   7.385  0.00  0.00    -0.082 Cl
HETATM   13 Cl   UNK N   1      32.049  17.133   5.623  0.00  0.00    -0.083 Cl
HETATM   14  C   UNK N   1      34.994  13.672  11.979  0.00  0.00     0.245 A 
HETATM   15  N   UNK N   1      36.236  15.681  12.431  0.00  0.00    -0.158 N 
HETATM   16  C   UNK N   1      35.973  14.429  12.867  0.00  0.00     0.254 A 
HETATM   17  O   UNK N   1      36.479  13.964  13.874  0.00  0.00    -0.271 OA
HETATM   18  H   UNK N   1      36.834  16.343  12.847  0.00  0.00     0.187 HD
ENDROOT
TORSDOF 0
ENDMDL
MODEL 2
REMARK VINA RESULT:      -5.8      6.666      8.785
REMARK  0 active torsions:
REMARK  status: ('A' for Active; 'I' for Inactive)
ROOT
HETATM    1  C   UNK N   1      36.526  13.271  14.100  0.00  0.00     0.684 A 
HETATM    2  N   UNK N   1      36.735  11.894  14.012  0.00  0.00    -0.204 N 
HETATM    3  C   UNK N   1      36.021  11.677  16.335  0.00  0.00     0.011 A 
HETATM    4  N   UNK N   1      36.108  13.853  15.169  0.00  0.00    -0.191 N 
ATOM      5  HN  UNK N   1      35.971  14.864  15.180  1.00  0.00     0.184 HD
HETATM    6  C   UNK N   1      35.836  13.084  16.336  0.00  0.00     0.059 A 
HETATM    7  C   UNK N   1      36.510  10.969  15.094  0.00  0.00     0.184 A 
HETATM    8  C   UNK N   1      35.747  10.935  17.496  0.00  0.00     0.066 A 
HETATM    9  C   UNK N   1      35.291  11.592  18.652  0.00  0.00     0.056 A 
HETATM   10  C   UNK N   1      35.382  13.722  17.493  0.00  0.00     0.032 A 
HETATM   11  C   UNK N   1      35.111  12.979  18.645  0.00  0.00     0.028 A 
HETATM   12 Cl   UNK N   1      35.976   9.185  17.500  0.00  0.00    -0.082 Cl
HETATM   13 Cl   UNK N   1      34.939  10.696  20.122  0.00  0.00    -0.083 Cl
HETATM   14  C   UNK N   1      37.203  11.546  12.691  0.00  0.00     0.245 A 
HETATM   15  N   UNK N   1      36.824  13.911  12.903  0.00  0.00    -0.158 N 
HETATM   16  C   UNK N   1      37.222  12.933  12.061  0.00  0.00     0.254 A 
HETATM   17  O   UNK N   1      37.561  13.152  10.910  0.00  0.00    -0.271 OA
HETATM   18  H   UNK N   1      36.760  14.874  12.709  0.00  0.00     0.187 HD
ENDROOT
TORSDOF 0
ENDMDL
MODEL 3
REMARK VINA RESULT:      -5.8      4.646      6.765
REMARK  0 active torsions:
REMARK  status: ('A' for Active; 'I' for Inactive)
ROOT
HETATM    1  C   UNK N   1      36.277  14.236  11.393  0.00  0.00     0.684 A 
HETATM    2  N   UNK N   1      35.363  13.191  11.262  0.00  0.00    -0.204 N 
HETATM    3  C   UNK N   1      35.392  12.912  13.685  0.00  0.00     0.011 A 
HETATM    4  N   UNK N   1      36.740  14.628  12.527  0.00  0.00    -0.191 N 
ATOM      5  HN  UNK N   1      37.408  15.398  12.568  1.00  0.00     0.184 HD
HETATM    6  C   UNK N   1      36.320  13.985  13.726  0.00  0.00     0.059 A 
HETATM    7  C   UNK N   1      34.833  12.432  12.367  0.00  0.00     0.184 A 
HETATM    8  C   UNK N   1      34.989  12.290  14.879  0.00  0.00     0.066 A 
HETATM    9  C   UNK N   1      35.508  12.735  16.107  0.00  0.00     0.056 A 
HETATM   10  C   UNK N   1      36.827  14.415  14.954  0.00  0.00     0.032 A 
HETATM   11  C   UNK N   1      36.422  13.793  16.138  0.00  0.00     0.028 A 
HETATM   12 Cl   UNK N   1      33.835  10.955  14.832  0.00  0.00    -0.082 Cl
HETATM   13 Cl   UNK N   1      35.026  11.980  17.618  0.00  0.00    -0.083 Cl
HETATM   14  C   UNK N   1      35.035  12.989   9.870  0.00  0.00     0.245 A 
HETATM   15  N   UNK N   1      36.611  14.782  10.159  0.00  0.00    -0.158 N 
HETATM   16  C   UNK N   1      35.903  14.077   9.250  0.00  0.00     0.254 A 
HETATM   17  O   UNK N   1      35.962  14.300   8.052  0.00  0.00    -0.271 OA
HETATM   18  H   UNK N   1      37.231  15.526   9.983  0.00  0.00     0.187 HD
ENDROOT
TORSDOF 0
ENDMDL
MODEL 4
REMARK VINA RESULT:      -5.8     11.642     13.352
REMARK  0 active torsions:
REMARK  status: ('A' for Active; 'I' for Inactive)
ROOT
HETATM    1  C   UNK N   1      22.545  19.889   3.096  0.00  0.00     0.684 A 
HETATM    2  N   UNK N   1      22.422  18.679   3.778  0.00  0.00    -0.204 N 
HETATM    3  C   UNK N   1      24.832  18.696   4.163  0.00  0.00     0.011 A 
HETATM    4  N   UNK N   1      23.669  20.493   2.930  0.00  0.00    -0.191 N 
ATOM      5  HN  UNK N   1      23.704  21.378   2.423  1.00  0.00     0.184 HD
HETATM    6  C   UNK N   1      24.864  19.926   3.455  0.00  0.00     0.059 A 
HETATM    7  C   UNK N   1      23.526  17.966   4.372  0.00  0.00     0.184 A 
HETATM    8  C   UNK N   1      26.021  18.151   4.673  0.00  0.00     0.066 A 
HETATM    9  C   UNK N   1      27.238  18.828   4.480  0.00  0.00     0.056 A 
HETATM   10  C   UNK N   1      26.081  20.586   3.272  0.00  0.00     0.032 A 
HETATM   11  C   UNK N   1      27.262  20.039   3.782  0.00  0.00     0.028 A 
HETATM   12 Cl   UNK N   1      25.985  16.621   5.554  0.00  0.00    -0.082 Cl
HETATM   13 Cl   UNK N   1      28.744  18.176   5.105  0.00  0.00    -0.083 Cl
HETATM   14  C   UNK N   1      21.041  18.256   3.796  0.00  0.00     0.245 A 
HETATM   15  N   UNK N   1      21.315  20.342   2.632  0.00  0.00    -0.158 N 
HETATM   16  C   UNK N   1      20.418  19.412   3.024  0.00  0.00     0.254 A 
HETATM   17  O   UNK N   1      19.227  19.501   2.777  0.00  0.00    -0.271 OA
HETATM   18  H   UNK N   1      21.136  21.167   2.125  0.00  0.00     0.187 HD
ENDROOT
TORSDOF 0
ENDMDL
MODEL 5
REMARK VINA RESULT:      -5.7      4.785      7.255
REMARK  0 active torsions:
REMARK  status: ('A' for Active; 'I' for Inactive)
ROOT
HETATM    1  C   UNK N   1      35.039  13.196  11.209  0.00  0.00     0.684 A 
HETATM    2  N   UNK N   1      35.791  14.219  11.787  0.00  0.00    -0.204 N 
HETATM    3  C   UNK N   1      35.483  13.162  13.965  0.00  0.00     0.011 A 
HETATM    4  N   UNK N   1      34.533  12.226  11.885  0.00  0.00    -0.191 N 
ATOM      5  HN  UNK N   1      33.990  11.503  11.413  1.00  0.00     0.184 HD
HETATM    6  C   UNK N   1      34.730  12.163  13.294  0.00  0.00     0.059 A 
HETATM    7  C   UNK N   1      36.088  14.312  13.195  0.00  0.00     0.184 A 
HETATM    8  C   UNK N   1      35.667  13.084  15.355  0.00  0.00     0.066 A 
HETATM    9  C   UNK N   1      35.105  12.015  16.074  0.00  0.00     0.056 A 
HETATM   10  C   UNK N   1      34.178  11.108  14.022  0.00  0.00     0.032 A 
HETATM   11  C   UNK N   1      34.365  11.034  15.406  0.00  0.00     0.028 A 
HETATM   12 Cl   UNK N   1      36.602  14.324  16.193  0.00  0.00    -0.082 Cl
HETATM   13 Cl   UNK N   1      35.315  11.885  17.813  0.00  0.00    -0.083 Cl
HETATM   14  C   UNK N   1      36.219  15.155  10.774  0.00  0.00     0.245 A 
HETATM   15  N   UNK N   1      34.916  13.366   9.835  0.00  0.00    -0.158 N 
HETATM   16  C   UNK N   1      35.593  14.500   9.550  0.00  0.00     0.254 A 
HETATM   17  O   UNK N   1      35.686  14.944   8.418  0.00  0.00    -0.271 OA
HETATM   18  H   UNK N   1      34.437  12.784   9.203  0.00  0.00     0.187 HD
ENDROOT
TORSDOF 0
ENDMDL
MODEL 6
REMARK VINA RESULT:      -5.6      7.335      9.105
REMARK  0 active torsions:
REMARK  status: ('A' for Active; 'I' for Inactive)
ROOT
HETATM    1  C   UNK N   1      26.978  19.451   6.190  0.00  0.00     0.684 A 
HETATM    2  N   UNK N   1      27.589  18.772   5.136  0.00  0.00    -0.204 N 
HETATM    3  C   UNK N   1      29.206  17.852   6.715  0.00  0.00     0.011 A 
HETATM    4  N   UNK N   1      27.391  19.379   7.407  0.00  0.00    -0.191 N 
ATOM      5  HN  UNK N   1      26.908  19.896   8.141  1.00  0.00     0.184 HD
HETATM    6  C   UNK N   1      28.523  18.577   7.726  0.00  0.00     0.059 A 
HETATM    7  C   UNK N   1      28.742  17.919   5.279  0.00  0.00     0.184 A 
HETATM    8  C   UNK N   1      30.321  17.066   7.049  0.00  0.00     0.066 A 
HETATM    9  C   UNK N   1      30.754  17.002   8.384  0.00  0.00     0.056 A 
HETATM   10  C   UNK N   1      28.966  18.503   9.049  0.00  0.00     0.032 A 
HETATM   11  C   UNK N   1      30.076  17.719   9.375  0.00  0.00     0.028 A 
HETATM   12 Cl   UNK N   1      31.172  16.163   5.794  0.00  0.00    -0.082 Cl
HETATM   13 Cl   UNK N   1      32.145  16.029   8.838  0.00  0.00    -0.083 Cl
HETATM   14  C   UNK N   1      26.899  19.052   3.898  0.00  0.00     0.245 A 
HETATM   15  N   UNK N   1      25.889  20.197   5.756  0.00  0.00    -0.158 N 
HETATM   16  C   UNK N   1      25.816  19.986   4.424  0.00  0.00     0.254 A 
HETATM   17  O   UNK N   1      24.961  20.499   3.722  0.00  0.00    -0.271 OA
HETATM   18  H   UNK N   1      25.296  20.761   6.303  0.00  0.00     0.187 HD
ENDROOT
TORSDOF 0
ENDMDL
MODEL 7
REMARK VINA RESULT:      -5.6      3.657      4.764
REMARK  0 active torsions:
REMARK  status: ('A' for Active; 'I' for Inactive)
ROOT
HETATM    1  C   UNK N   1      32.506  16.790   8.702  0.00  0.00     0.684 A 
HETATM    2  N   UNK N   1      32.577  16.288   7.402  0.00  0.00    -0.204 N 
HETATM    3  C   UNK N   1      30.407  17.301   6.934  0.00  0.00     0.011 A 
HETATM    4  N   UNK N   1      31.513  17.485   9.135  0.00  0.00    -0.191 N 
ATOM      5  HN  UNK N   1      31.511  17.829  10.095  1.00  0.00     0.184 HD
HETATM    6  C   UNK N   1      30.418  17.773   8.272  0.00  0.00     0.059 A 
HETATM    7  C   UNK N   1      31.560  16.484   6.399  0.00  0.00     0.184 A 
HETATM    8  C   UNK N   1      29.318  17.595   6.097  0.00  0.00     0.066 A 
HETATM    9  C   UNK N   1      28.244  18.356   6.591  0.00  0.00     0.056 A 
HETATM   10  C   UNK N   1      29.344  18.527   8.748  0.00  0.00     0.032 A 
HETATM   11  C   UNK N   1      28.262  18.817   7.912  0.00  0.00     0.028 A 
HETATM   12 Cl   UNK N   1      29.301  17.011   4.432  0.00  0.00    -0.082 Cl
HETATM   13 Cl   UNK N   1      26.866  18.742   5.573  0.00  0.00    -0.083 Cl
HETATM   14  C   UNK N   1      33.807  15.554   7.219  0.00  0.00     0.245 A 
HETATM   15  N   UNK N   1      33.628  16.445   9.446  0.00  0.00    -0.158 N 
HETATM   16  C   UNK N   1      34.407  15.724   8.609  0.00  0.00     0.254 A 
HETATM   17  O   UNK N   1      35.482  15.260   8.948  0.00  0.00    -0.271 OA
HETATM   18  H   UNK N   1      33.817  16.677  10.383  0.00  0.00     0.187 HD
ENDROOT
TORSDOF 0
ENDMDL
MODEL 8
REMARK VINA RESULT:      -5.6     14.946     16.442
REMARK  0 active torsions:
REMARK  status: ('A' for Active; 'I' for Inactive)
ROOT
HETATM    1  C   UNK N   1      19.876  17.936   2.214  0.00  0.00     0.684 A 
HETATM    2  N   UNK N   1      21.010  17.618   2.963  0.00  0.00    -0.204 N 
HETATM    3  C   UNK N   1      20.944  15.363   2.033  0.00  0.00     0.011 A 
HETATM    4  N   UNK N   1      19.289  17.097   1.435  0.00  0.00    -0.191 N 
ATOM      5  HN  UNK N   1      18.463  17.380   0.909  1.00  0.00     0.184 HD
HETATM    6  C   UNK N   1      19.795  15.772   1.308  0.00  0.00     0.059 A 
HETATM    7  C   UNK N   1      21.653  16.327   2.955  0.00  0.00     0.184 A 
HETATM    8  C   UNK N   1      21.428  14.052   1.895  0.00  0.00     0.066 A 
HETATM    9  C   UNK N   1      20.771  13.152   1.038  0.00  0.00     0.056 A 
HETATM   10  C   UNK N   1      19.153  14.866   0.460  0.00  0.00     0.032 A 
HETATM   11  C   UNK N   1      19.639  13.563   0.327  0.00  0.00     0.028 A 
HETATM   12 Cl   UNK N   1      22.857  13.539   2.795  0.00  0.00    -0.082 Cl
HETATM   13 Cl   UNK N   1      21.349  11.505   0.841  0.00  0.00    -0.083 Cl
HETATM   14  C   UNK N   1      21.433  18.763   3.735  0.00  0.00     0.245 A 
HETATM   15  N   UNK N   1      19.479  19.252   2.421  0.00  0.00    -0.158 N 
HETATM   16  C   UNK N   1      20.366  19.761   3.303  0.00  0.00     0.254 A 
HETATM   17  O   UNK N   1      20.307  20.911   3.706  0.00  0.00    -0.271 OA
HETATM   18  H   UNK N   1      18.713  19.715   2.012  0.00  0.00     0.187 HD
ENDROOT
TORSDOF 0
ENDMDL
MODEL 9
REMARK VINA RESULT:      -5.5     14.752     16.083
REMARK  0 active torsions:
REMARK  status: ('A' for Active; 'I' for Inactive)
ROOT
HETATM    1  C   UNK N   1      20.322  18.150   2.211  0.00  0.00     0.684 A 
HETATM    2  N   UNK N   1      21.109  18.645   3.251  0.00  0.00    -0.204 N 
HETATM    3  C   UNK N   1      20.820  16.528   4.428  0.00  0.00     0.011 A 
HETATM    4  N   UNK N   1      19.807  16.971   2.218  0.00  0.00    -0.191 N 
ATOM      5  HN  UNK N   1      19.238  16.657   1.432  1.00  0.00     0.184 HD
HETATM    6  C   UNK N   1      20.031  16.105   3.326  0.00  0.00     0.059 A 
HETATM    7  C   UNK N   1      21.436  17.906   4.445  0.00  0.00     0.184 A 
HETATM    8  C   UNK N   1      21.030  15.659   5.512  0.00  0.00     0.066 A 
HETATM    9  C   UNK N   1      20.457  14.376   5.498  0.00  0.00     0.056 A 
HETATM   10  C   UNK N   1      19.469  14.826   3.328  0.00  0.00     0.032 A 
HETATM   11  C   UNK N   1      19.681  13.967   4.409  0.00  0.00     0.028 A 
HETATM   12 Cl   UNK N   1      22.010  16.182   6.883  0.00  0.00    -0.082 Cl
HETATM   13 Cl   UNK N   1      20.699  13.264   6.836  0.00  0.00    -0.083 Cl
HETATM   14  C   UNK N   1      21.538  19.991   2.951  0.00  0.00     0.245 A 
HETATM   15  N   UNK N   1      20.175  19.083   1.191  0.00  0.00    -0.158 N 
HETATM   16  C   UNK N   1      20.873  20.168   1.592  0.00  0.00     0.254 A 
HETATM   17  O   UNK N   1      20.953  21.183   0.922  0.00  0.00    -0.271 OA
HETATM   18  H   UNK N   1      19.670  18.976   0.353  0.00  0.00     0.187 HD
ENDROOT
TORSDOF 0
ENDMDL
