MODEL 1
REMARK VINA RESULT:      -7.7      0.000      0.000
REMARK  5 active torsions:
REMARK  status: ('A' for Active; 'I' for Inactive)
REMARK    1  A    between atoms: C_16  and  C_7 
REMARK    2  A    between atoms: C_7  and  O_29 
REMARK    3  A    between atoms: C_8  and  O_24 
REMARK    4  A    between atoms: C_26  and  C_16 
REMARK    5  A    between atoms: O_27  and  C_26 
ROOT
HETATM    1  C   UNK N   1      27.544  28.180  -5.204  0.00  0.00     0.039 A 
HETATM    2  C   UNK N   1      26.374  24.250  -6.891  0.00  0.00     0.001 C 
HETATM    3  C   UNK N   1      27.068  26.740  -5.611  0.00  0.00     0.147 C 
HETATM    4  C   UNK N   1      28.766  28.021  -4.282  0.00  0.00    -0.027 A 
HETATM    5  C   UNK N   1      27.870  24.599  -6.890  0.00  0.00     0.005 C 
HETATM    6  C   UNK N   1      28.274  25.939  -6.203  0.00  0.00     0.037 C 
HETATM    7  C   UNK N   1      26.400  22.969  -7.767  0.00  0.00     0.131 C 
HETATM    8  C   UNK N   1      25.887  26.767  -6.647  0.00  0.00     0.160 C 
HETATM    9  C   UNK N   1      26.411  28.971  -4.564  0.00  0.00    -0.006 A 
HETATM   10  C   UNK N   1      25.585  25.449  -7.416  0.00  0.00     0.048 C 
HETATM   11  C   UNK N   1      27.568  22.210  -7.080  0.00  0.00     0.025 C 
HETATM   12  C   UNK N   1      28.559  23.277  -6.557  0.00  0.00     0.013 C 
HETATM   13  C   UNK N   1      29.410  25.800  -5.177  0.00  0.00     0.050 C 
HETATM   14  C   UNK N   1      29.923  27.180  -4.745  0.00  0.00     0.201 C 
HETATM   15  C   UNK N   1      28.819  28.559  -3.057  0.00  0.00     0.061 A 
HETATM   16  C   UNK N   1      26.488  29.515  -3.342  0.00  0.00     0.052 A 
HETATM   17  C   UNK N   1      27.705  29.360  -2.538  0.00  0.00     0.172 A 
HETATM   18  F   UNK N   1      26.644  26.114  -4.448  0.00  0.00    -0.238 F 
HETATM   19  O   UNK N   1      27.789  29.893  -1.443  0.00  0.00    -0.289 OA
HETATM   20  C   UNK N   1      27.963  28.977  -6.438  0.00  0.00     0.028 C 
HETATM   21  C   UNK N   1      25.850  23.884  -5.488  0.00  0.00     0.019 C 
HETATM   22  F   UNK N   1      30.574  27.794  -5.801  0.00  0.00    -0.245 F 
HETATM   23  C   UNK N   1      28.238  21.151  -7.939  0.00  0.00     0.013 C 
ENDROOT
BRANCH   7  24
HETATM   24  C   UNK N   1      25.111  22.166  -7.835  0.00  0.00     0.185 C 
HETATM   25  O   UNK N   1      24.148  22.587  -8.456  0.00  0.00    -0.292 OA
BRANCH  24  26
HETATM   26  C   UNK N   1      24.999  20.835  -7.152  0.00  0.00     0.245 C 
BRANCH  26  27
HETATM   27  O   UNK N   1      23.849  20.783  -6.364  0.00  0.00    -0.393 OA
HETATM   28  H   UNK N   1      23.339  20.339  -5.668  0.00  0.00     0.209 HD
ENDBRANCH  26  27
ENDBRANCH  24  26
ENDBRANCH   7  24
BRANCH   7  29
HETATM   29  O   UNK N   1      26.761  23.302  -9.083  0.00  0.00    -0.381 OA
HETATM   30  H   UNK N   1      26.779  23.163 -10.042  0.00  0.00     0.211 HD
ENDBRANCH   7  29
BRANCH   8  31
HETATM   31  O   UNK N   1      24.712  27.229  -6.053  0.00  0.00    -0.392 OA
HETATM   32  H   UNK N   1      23.959  26.633  -5.909  0.00  0.00     0.210 HD
ENDBRANCH   8  31
TORSDOF 5
ENDMDL
MODEL 2
REMARK VINA RESULT:      -7.7     15.723     17.104
REMARK  5 active torsions:
REMARK  status: ('A' for Active; 'I' for Inactive)
REMARK    1  A    between atoms: C_16  and  C_7 
REMARK    2  A    between atoms: C_7  and  O_29 
REMARK    3  A    between atoms: C_8  and  O_24 
REMARK    4  A    between atoms: C_26  and  C_16 
REMARK    5  A    between atoms: O_27  and  C_26 
ROOT
HETATM    1  C   UNK N   1      28.714  17.771   6.812  0.00  0.00     0.039 A 
HETATM    2  C   UNK N   1      32.670  16.412   8.280  0.00  0.00     0.001 C 
HETATM    3  C   UNK N   1      30.171  17.488   7.324  0.00  0.00     0.147 C 
HETATM    4  C   UNK N   1      28.818  18.225   5.345  0.00  0.00    -0.027 A 
HETATM    5  C   UNK N   1      32.231  15.928   6.890  0.00  0.00     0.005 C 
HETATM    6  C   UNK N   1      30.884  16.494   6.347  0.00  0.00     0.037 C 
HETATM    7  C   UNK N   1      33.928  15.526   8.485  0.00  0.00     0.131 C 
HETATM    8  C   UNK N   1      30.194  16.906   8.783  0.00  0.00     0.160 C 
HETATM    9  C   UNK N   1      28.007  18.784   7.702  0.00  0.00    -0.006 A 
HETATM   10  C   UNK N   1      31.510  16.229   9.259  0.00  0.00     0.048 C 
HETATM   11  C   UNK N   1      34.629  15.752   7.118  0.00  0.00     0.025 C 
HETATM   12  C   UNK N   1      33.515  15.957   6.064  0.00  0.00     0.013 C 
HETATM   13  C   UNK N   1      30.975  17.077   4.927  0.00  0.00     0.050 C 
HETATM   14  C   UNK N   1      29.577  17.370   4.369  0.00  0.00     0.201 C 
HETATM   15  C   UNK N   1      28.304  19.384   4.911  0.00  0.00     0.061 A 
HETATM   16  C   UNK N   1      27.487  19.931   7.248  0.00  0.00     0.052 A 
HETATM   17  C   UNK N   1      27.585  20.277   5.826  0.00  0.00     0.172 A 
HETATM   18  F   UNK N   1      30.847  18.699   7.301  0.00  0.00    -0.238 F 
HETATM   19  O   UNK N   1      27.071  21.302   5.406  0.00  0.00    -0.289 OA
HETATM   20  C   UNK N   1      27.866  16.502   6.871  0.00  0.00     0.028 C 
HETATM   21  C   UNK N   1      33.098  17.892   8.285  0.00  0.00     0.019 C 
HETATM   22  F   UNK N   1      28.902  16.182   4.142  0.00  0.00    -0.245 F 
HETATM   23  C   UNK N   1      35.626  14.676   6.722  0.00  0.00     0.013 C 
ENDROOT
BRANCH   7  24
HETATM   24  C   UNK N   1      34.807  15.858   9.681  0.00  0.00     0.185 C 
HETATM   25  O   UNK N   1      35.493  16.868   9.687  0.00  0.00    -0.292 OA
BRANCH  24  26
HETATM   26  C   UNK N   1      34.841  14.961  10.882  0.00  0.00     0.245 C 
BRANCH  26  27
HETATM   27  O   UNK N   1      33.560  14.805  11.414  0.00  0.00    -0.393 OA
HETATM   28  H   UNK N   1      32.601  14.912  11.314  0.00  0.00     0.209 HD
ENDBRANCH  26  27
ENDBRANCH  24  26
ENDBRANCH   7  24
BRANCH   7  29
HETATM   29  O   UNK N   1      33.546  14.179   8.603  0.00  0.00    -0.381 OA
HETATM   30  H   UNK N   1      32.901  13.463   8.715  0.00  0.00     0.211 HD
ENDBRANCH   7  29
BRANCH   8  31
HETATM   31  O   UNK N   1      29.817  17.877   9.713  0.00  0.00    -0.392 OA
HETATM   32  H   UNK N   1      30.484  18.359  10.228  0.00  0.00     0.210 HD
ENDBRANCH   8  31
TORSDOF 5
ENDMDL
MODEL 3
REMARK VINA RESULT:      -7.6      3.332      4.355
REMARK  5 active torsions:
REMARK  status: ('A' for Active; 'I' for Inactive)
REMARK    1  A    between atoms: C_16  and  C_7 
REMARK    2  A    between atoms: C_7  and  O_29 
REMARK    3  A    between atoms: C_8  and  O_24 
REMARK    4  A    between atoms: C_26  and  C_16 
REMARK    5  A    between atoms: O_27  and  C_26 
ROOT
HETATM    1  C   UNK N   1      26.845  27.132  -5.225  0.00  0.00     0.039 A 
HETATM    2  C   UNK N   1      29.736  23.803  -4.755  0.00  0.00     0.001 C 
HETATM    3  C   UNK N   1      27.951  26.064  -4.905  0.00  0.00     0.147 C 
HETATM    4  C   UNK N   1      27.552  28.372  -5.800  0.00  0.00    -0.027 A 
HETATM    5  C   UNK N   1      29.783  24.596  -6.069  0.00  0.00     0.005 C 
HETATM    6  C   UNK N   1      28.829  25.825  -6.178  0.00  0.00     0.037 C 
HETATM    7  C   UNK N   1      30.688  22.632  -5.116  0.00  0.00     0.131 C 
HETATM    8  C   UNK N   1      27.347  24.700  -4.413  0.00  0.00     0.160 C 
HETATM    9  C   UNK N   1      26.008  27.439  -3.991  0.00  0.00    -0.006 A 
HETATM   10  C   UNK N   1      28.281  23.457  -4.435  0.00  0.00     0.048 C 
HETATM   11  C   UNK N   1      31.873  23.438  -5.715  0.00  0.00     0.025 C 
HETATM   12  C   UNK N   1      31.273  24.695  -6.390  0.00  0.00     0.013 C 
HETATM   13  C   UNK N   1      29.525  27.120  -6.628  0.00  0.00     0.050 C 
HETATM   14  C   UNK N   1      28.491  28.204  -6.962  0.00  0.00     0.201 C 
HETATM   15  C   UNK N   1      27.405  29.595  -5.272  0.00  0.00     0.061 A 
HETATM   16  C   UNK N   1      25.861  28.671  -3.485  0.00  0.00     0.052 A 
HETATM   17  C   UNK N   1      26.530  29.814  -4.115  0.00  0.00     0.172 A 
HETATM   18  F   UNK N   1      28.750  26.600  -3.906  0.00  0.00    -0.238 F 
HETATM   19  O   UNK N   1      26.359  30.942  -3.679  0.00  0.00    -0.289 OA
HETATM   20  C   UNK N   1      25.868  26.598  -6.270  0.00  0.00     0.028 C 
HETATM   21  C   UNK N   1      30.334  24.584  -3.569  0.00  0.00     0.019 C 
HETATM   22  F   UNK N   1      27.790  27.851  -8.102  0.00  0.00    -0.245 F 
HETATM   23  C   UNK N   1      32.784  22.649  -6.640  0.00  0.00     0.013 C 
ENDROOT
BRANCH   7  24
HETATM   24  C   UNK N   1      31.096  21.710  -3.977  0.00  0.00     0.185 C 
HETATM   25  O   UNK N   1      30.314  20.883  -3.537  0.00  0.00    -0.292 OA
BRANCH  24  26
HETATM   26  C   UNK N   1      32.469  21.790  -3.380  0.00  0.00     0.245 C 
BRANCH  26  27
HETATM   27  O   UNK N   1      32.456  21.341  -2.059  0.00  0.00    -0.393 OA
HETATM   28  H   UNK N   1      32.950  21.108  -1.256  0.00  0.00     0.209 HD
ENDBRANCH  26  27
ENDBRANCH  24  26
ENDBRANCH   7  24
BRANCH   7  29
HETATM   29  O   UNK N   1      30.105  21.837  -6.116  0.00  0.00    -0.381 OA
HETATM   30  H   UNK N   1      30.127  21.277  -6.908  0.00  0.00     0.211 HD
ENDBRANCH   7  29
BRANCH   8  31
HETATM   31  O   UNK N   1      26.791  24.831  -3.139  0.00  0.00    -0.392 OA
HETATM   32  H   UNK N   1      26.009  25.387  -2.992  0.00  0.00     0.210 HD
ENDBRANCH   8  31
TORSDOF 5
ENDMDL
MODEL 4
REMARK VINA RESULT:      -7.3      3.141      6.625
REMARK  5 active torsions:
REMARK  status: ('A' for Active; 'I' for Inactive)
REMARK    1  A    between atoms: C_16  and  C_7 
REMARK    2  A    between atoms: C_7  and  O_29 
REMARK    3  A    between atoms: C_8  and  O_24 
REMARK    4  A    between atoms: C_26  and  C_16 
REMARK    5  A    between atoms: O_27  and  C_26 
ROOT
HETATM    1  C   UNK N   1      30.854  23.259  -5.514  0.00  0.00     0.039 A 
HETATM    2  C   UNK N   1      27.709  26.224  -4.525  0.00  0.00     0.001 C 
HETATM    3  C   UNK N   1      29.683  24.179  -5.014  0.00  0.00     0.147 C 
HETATM    4  C   UNK N   1      30.221  21.998  -6.130  0.00  0.00    -0.027 A 
HETATM    5  C   UNK N   1      27.619  25.532  -5.893  0.00  0.00     0.005 C 
HETATM    6  C   UNK N   1      28.673  24.420  -6.185  0.00  0.00     0.037 C 
HETATM    7  C   UNK N   1      26.619  27.313  -4.705  0.00  0.00     0.131 C 
HETATM    8  C   UNK N   1      30.195  25.557  -4.460  0.00  0.00     0.160 C 
HETATM    9  C   UNK N   1      31.826  22.947  -4.384  0.00  0.00    -0.006 A 
HETATM   10  C   UNK N   1      29.146  26.694  -4.299  0.00  0.00     0.048 C 
HETATM   11  C   UNK N   1      25.468  26.436  -5.269  0.00  0.00     0.025 C 
HETATM   12  C   UNK N   1      26.122  25.303  -6.095  0.00  0.00     0.013 C 
HETATM   13  C   UNK N   1      28.068  23.098  -6.683  0.00  0.00     0.050 C 
HETATM   14  C   UNK N   1      29.167  22.156  -7.191  0.00  0.00     0.201 C 
HETATM   15  C   UNK N   1      30.533  20.761  -5.721  0.00  0.00     0.061 A 
HETATM   16  C   UNK N   1      32.137  21.703  -3.998  0.00  0.00     0.052 A 
HETATM   17  C   UNK N   1      31.528  20.547  -4.665  0.00  0.00     0.172 A 
HETATM   18  F   UNK N   1      29.035  23.488  -4.000  0.00  0.00    -0.238 F 
HETATM   19  O   UNK N   1      31.846  19.414  -4.341  0.00  0.00    -0.289 OA
HETATM   20  C   UNK N   1      31.675  23.968  -6.588  0.00  0.00     0.028 C 
HETATM   21  C   UNK N   1      27.300  25.297  -3.363  0.00  0.00     0.019 C 
HETATM   22  F   UNK N   1      29.724  22.664  -8.353  0.00  0.00    -0.245 F 
HETATM   23  C   UNK N   1      24.404  27.194  -6.045  0.00  0.00     0.013 C 
ENDROOT
BRANCH   7  24
HETATM   24  C   UNK N   1      26.230  28.099  -3.462  0.00  0.00     0.185 C 
HETATM   25  O   UNK N   1      25.418  27.647  -2.670  0.00  0.00    -0.292 OA
BRANCH  24  26
HETATM   26  C   UNK N   1      26.843  29.437  -3.178  0.00  0.00     0.245 C 
BRANCH  26  27
HETATM   27  O   UNK N   1      26.053  30.461  -3.702  0.00  0.00    -0.393 OA
HETATM   28  H   UNK N   1      25.317  30.732  -4.273  0.00  0.00     0.209 HD
ENDBRANCH  26  27
ENDBRANCH  24  26
ENDBRANCH   7  24
BRANCH   7  29
HETATM   29  O   UNK N   1      27.029  28.238  -5.679  0.00  0.00    -0.381 OA
HETATM   30  H   UNK N   1      27.552  28.523  -6.444  0.00  0.00     0.211 HD
ENDBRANCH   7  29
BRANCH   8  31
HETATM   31  O   UNK N   1      30.875  25.388  -3.253  0.00  0.00    -0.392 OA
HETATM   32  H   UNK N   1      31.017  26.138  -2.652  0.00  0.00     0.210 HD
ENDBRANCH   8  31
TORSDOF 5
ENDMDL
MODEL 5
REMARK VINA RESULT:      -7.2     14.885     16.509
REMARK  5 active torsions:
REMARK  status: ('A' for Active; 'I' for Inactive)
REMARK    1  A    between atoms: C_16  and  C_7 
REMARK    2  A    between atoms: C_7  and  O_29 
REMARK    3  A    between atoms: C_8  and  O_24 
REMARK    4  A    between atoms: C_26  and  C_16 
REMARK    5  A    between atoms: O_27  and  C_26 
ROOT
HETATM    1  C   UNK N   1      28.565  17.526   4.872  0.00  0.00     0.039 A 
HETATM    2  C   UNK N   1      32.588  16.337   6.308  0.00  0.00     0.001 C 
HETATM    3  C   UNK N   1      29.917  16.912   5.383  0.00  0.00     0.147 C 
HETATM    4  C   UNK N   1      27.531  17.373   6.001  0.00  0.00    -0.027 A 
HETATM    5  C   UNK N   1      31.748  17.234   7.229  0.00  0.00     0.005 C 
HETATM    6  C   UNK N   1      30.299  17.560   6.755  0.00  0.00     0.037 C 
HETATM    7  C   UNK N   1      33.948  16.389   7.054  0.00  0.00     0.131 C 
HETATM    8  C   UNK N   1      31.092  17.106   4.358  0.00  0.00     0.160 C 
HETATM    9  C   UNK N   1      28.126  16.875   3.567  0.00  0.00    -0.006 A 
HETATM   10  C   UNK N   1      32.540  16.901   4.888  0.00  0.00     0.048 C 
HETATM   11  C   UNK N   1      33.461  16.099   8.499  0.00  0.00     0.025 C 
HETATM   12  C   UNK N   1      32.043  16.704   8.631  0.00  0.00     0.013 C 
HETATM   13  C   UNK N   1      29.218  17.298   7.817  0.00  0.00     0.050 C 
HETATM   14  C   UNK N   1      27.870  17.883   7.375  0.00  0.00     0.201 C 
HETATM   15  C   UNK N   1      26.356  16.754   5.823  0.00  0.00     0.061 A 
HETATM   16  C   UNK N   1      26.941  16.273   3.404  0.00  0.00     0.052 A 
HETATM   17  C   UNK N   1      25.986  16.205   4.515  0.00  0.00     0.172 A 
HETATM   18  F   UNK N   1      29.695  15.556   5.576  0.00  0.00    -0.238 F 
HETATM   19  O   UNK N   1      24.889  15.695   4.351  0.00  0.00    -0.289 OA
HETATM   20  C   UNK N   1      28.733  19.012   4.560  0.00  0.00     0.028 C 
HETATM   21  C   UNK N   1      32.089  14.879   6.282  0.00  0.00     0.019 C 
HETATM   22  F   UNK N   1      27.933  19.266   7.374  0.00  0.00    -0.245 F 
HETATM   23  C   UNK N   1      34.403  16.558   9.599  0.00  0.00     0.013 C 
ENDROOT
BRANCH   7  24
HETATM   24  C   UNK N   1      35.025  15.428   6.572  0.00  0.00     0.185 C 
HETATM   25  O   UNK N   1      35.704  15.695   5.594  0.00  0.00    -0.292 OA
BRANCH  24  26
HETATM   26  C   UNK N   1      35.283  14.141   7.296  0.00  0.00     0.245 C 
BRANCH  26  27
HETATM   27  O   UNK N   1      36.499  14.197   7.979  0.00  0.00    -0.393 OA
HETATM   28  H   UNK N   1      37.451  14.385   7.965  0.00  0.00     0.209 HD
ENDBRANCH  26  27
ENDBRANCH  24  26
ENDBRANCH   7  24
BRANCH   7  29
HETATM   29  O   UNK N   1      34.478  17.687   6.985  0.00  0.00    -0.381 OA
HETATM   30  H   UNK N   1      34.843  18.501   7.368  0.00  0.00     0.211 HD
ENDBRANCH   7  29
BRANCH   8  31
HETATM   31  O   UNK N   1      30.903  16.313   3.226  0.00  0.00    -0.392 OA
HETATM   32  H   UNK N   1      31.567  15.656   2.961  0.00  0.00     0.210 HD
ENDBRANCH   8  31
TORSDOF 5
ENDMDL
MODEL 6
REMARK VINA RESULT:      -7.1     14.558     15.921
REMARK  5 active torsions:
REMARK  status: ('A' for Active; 'I' for Inactive)
REMARK    1  A    between atoms: C_16  and  C_7 
REMARK    2  A    between atoms: C_7  and  O_29 
REMARK    3  A    between atoms: C_8  and  O_24 
REMARK    4  A    between atoms: C_26  and  C_16 
REMARK    5  A    between atoms: O_27  and  C_26 
ROOT
HETATM    1  C   UNK N   1      32.072  16.281   7.691  0.00  0.00     0.039 A 
HETATM    2  C   UNK N   1      29.000  15.411   4.615  0.00  0.00     0.001 C 
HETATM    3  C   UNK N   1      31.075  16.118   6.489  0.00  0.00     0.147 C 
HETATM    4  C   UNK N   1      31.821  17.665   8.317  0.00  0.00    -0.027 A 
HETATM    5  C   UNK N   1      28.515  16.002   5.947  0.00  0.00     0.005 C 
HETATM    6  C   UNK N   1      29.616  16.395   6.979  0.00  0.00     0.037 C 
HETATM    7  C   UNK N   1      27.635  15.039   3.976  0.00  0.00     0.131 C 
HETATM    8  C   UNK N   1      31.154  14.694   5.830  0.00  0.00     0.160 C 
HETATM    9  C   UNK N   1      33.512  16.081   7.240  0.00  0.00    -0.006 A 
HETATM   10  C   UNK N   1      29.978  14.272   4.904  0.00  0.00     0.048 C 
HETATM   11  C   UNK N   1      26.866  16.366   4.220  0.00  0.00     0.025 C 
HETATM   12  C   UNK N   1      27.401  16.966   5.542  0.00  0.00     0.013 C 
HETATM   13  C   UNK N   1      29.474  17.822   7.534  0.00  0.00     0.050 C 
HETATM   14  C   UNK N   1      30.422  18.040   8.720  0.00  0.00     0.201 C 
HETATM   15  C   UNK N   1      32.793  18.574   8.469  0.00  0.00     0.061 A 
HETATM   16  C   UNK N   1      34.475  16.997   7.414  0.00  0.00     0.052 A 
HETATM   17  C   UNK N   1      34.171  18.277   8.061  0.00  0.00     0.172 A 
HETATM   18  F   UNK N   1      31.421  17.079   5.549  0.00  0.00    -0.238 F 
HETATM   19  O   UNK N   1      35.059  19.092   8.258  0.00  0.00    -0.289 OA
HETATM   20  C   UNK N   1      31.815  15.212   8.751  0.00  0.00     0.028 C 
HETATM   21  C   UNK N   1      29.700  16.455   3.723  0.00  0.00     0.019 C 
HETATM   22  F   UNK N   1      30.010  17.277   9.800  0.00  0.00    -0.245 F 
HETATM   23  C   UNK N   1      25.351  16.243   4.198  0.00  0.00     0.013 C 
ENDROOT
BRANCH   7  24
HETATM   24  C   UNK N   1      27.661  14.612   2.517  0.00  0.00     0.185 C 
HETATM   25  O   UNK N   1      27.194  15.333   1.650  0.00  0.00    -0.292 OA
BRANCH  24  26
HETATM   26  C   UNK N   1      28.271  13.304   2.111  0.00  0.00     0.245 C 
BRANCH  26  27
HETATM   27  O   UNK N   1      27.390  12.252   2.364  0.00  0.00    -0.393 OA
HETATM   28  H   UNK N   1      27.028  11.603   2.989  0.00  0.00     0.209 HD
ENDBRANCH  26  27
ENDBRANCH  24  26
ENDBRANCH   7  24
BRANCH   7  29
HETATM   29  O   UNK N   1      27.034  14.003   4.710  0.00  0.00    -0.381 OA
HETATM   30  H   UNK N   1      27.048  13.212   5.271  0.00  0.00     0.211 HD
ENDBRANCH   7  29
BRANCH   8  31
HETATM   31  O   UNK N   1      32.358  14.528   5.144  0.00  0.00    -0.392 OA
HETATM   32  H   UNK N   1      33.208  14.591   5.608  0.00  0.00     0.210 HD
ENDBRANCH   8  31
TORSDOF 5
ENDMDL
MODEL 7
REMARK VINA RESULT:      -7.0     23.444     24.823
REMARK  5 active torsions:
REMARK  status: ('A' for Active; 'I' for Inactive)
REMARK    1  A    between atoms: C_16  and  C_7 
REMARK    2  A    between atoms: C_7  and  O_29 
REMARK    3  A    between atoms: C_8  and  O_24 
REMARK    4  A    between atoms: C_26  and  C_16 
REMARK    5  A    between atoms: O_27  and  C_26 
ROOT
HETATM    1  C   UNK N   1      35.067  10.594  14.523  0.00  0.00     0.039 A 
HETATM    2  C   UNK N   1      35.476  13.166  10.935  0.00  0.00     0.001 C 
HETATM    3  C   UNK N   1      35.411  11.451  13.253  0.00  0.00     0.147 C 
HETATM    4  C   UNK N   1      35.777  11.241  15.725  0.00  0.00    -0.027 A 
HETATM    5  C   UNK N   1      35.107  13.855  12.257  0.00  0.00     0.005 C 
HETATM    6  C   UNK N   1      35.065  12.952  13.528  0.00  0.00     0.037 C 
HETATM    7  C   UNK N   1      35.262  14.346   9.950  0.00  0.00     0.131 C 
HETATM    8  C   UNK N   1      34.652  10.956  11.969  0.00  0.00     0.160 C 
HETATM    9  C   UNK N   1      35.449   9.134  14.319  0.00  0.00    -0.006 A 
HETATM   10  C   UNK N   1      34.596  11.928  10.757  0.00  0.00     0.048 C 
HETATM   11  C   UNK N   1      36.036  15.458  10.708  0.00  0.00     0.025 C 
HETATM   12  C   UNK N   1      35.885  15.169  12.221  0.00  0.00     0.013 C 
HETATM   13  C   UNK N   1      35.871  13.503  14.715  0.00  0.00     0.050 C 
HETATM   14  C   UNK N   1      35.571  12.707  15.991  0.00  0.00     0.201 C 
HETATM   15  C   UNK N   1      36.617  10.562  16.518  0.00  0.00     0.061 A 
HETATM   16  C   UNK N   1      36.280   8.467  15.130  0.00  0.00     0.052 A 
HETATM   17  C   UNK N   1      36.885   9.139  16.285  0.00  0.00     0.172 A 
HETATM   18  F   UNK N   1      36.779  11.338  13.051  0.00  0.00    -0.238 F 
HETATM   19  O   UNK N   1      37.607   8.517  17.049  0.00  0.00    -0.289 OA
HETATM   20  C   UNK N   1      33.562  10.598  14.784  0.00  0.00     0.028 C 
HETATM   21  C   UNK N   1      36.956  12.736  10.884  0.00  0.00     0.019 C 
HETATM   22  F   UNK N   1      34.270  12.945  16.401  0.00  0.00    -0.245 F 
HETATM   23  C   UNK N   1      35.645  16.879  10.337  0.00  0.00     0.013 C 
ENDROOT
BRANCH   7  24
HETATM   24  C   UNK N   1      35.743  14.137   8.523  0.00  0.00     0.185 C 
HETATM   25  O   UNK N   1      36.935  14.140   8.262  0.00  0.00    -0.292 OA
BRANCH  24  26
HETATM   26  C   UNK N   1      34.764  13.909   7.409  0.00  0.00     0.245 C 
BRANCH  26  27
HETATM   27  O   UNK N   1      34.166  15.111   7.029  0.00  0.00    -0.393 OA
HETATM   28  H   UNK N   1      34.263  16.019   6.700  0.00  0.00     0.209 HD
ENDBRANCH  26  27
ENDBRANCH  24  26
ENDBRANCH   7  24
BRANCH   7  29
HETATM   29  O   UNK N   1      33.898  14.674   9.893  0.00  0.00    -0.381 OA
HETATM   30  H   UNK N   1      33.136  15.260  10.028  0.00  0.00     0.211 HD
ENDBRANCH   7  29
BRANCH   8  31
HETATM   31  O   UNK N   1      35.145   9.722  11.543  0.00  0.00    -0.392 OA
HETATM   32  H   UNK N   1      35.927   9.327  11.962  0.00  0.00     0.210 HD
ENDBRANCH   8  31
TORSDOF 5
ENDMDL
MODEL 8
REMARK VINA RESULT:      -7.0     18.217     19.796
REMARK  5 active torsions:
REMARK  status: ('A' for Active; 'I' for Inactive)
REMARK    1  A    between atoms: C_16  and  C_7 
REMARK    2  A    between atoms: C_7  and  O_29 
REMARK    3  A    between atoms: C_8  and  O_24 
REMARK    4  A    between atoms: C_26  and  C_16 
REMARK    5  A    between atoms: O_27  and  C_26 
ROOT
HETATM    1  C   UNK N   1      32.758  16.180   6.096  0.00  0.00     0.039 A 
HETATM    2  C   UNK N   1      35.392  14.213   9.070  0.00  0.00     0.001 C 
HETATM    3  C   UNK N   1      33.571  15.317   7.125  0.00  0.00     0.147 C 
HETATM    4  C   UNK N   1      31.369  16.442   6.707  0.00  0.00    -0.027 A 
HETATM    5  C   UNK N   1      34.553  15.404   9.553  0.00  0.00     0.005 C 
HETATM    6  C   UNK N   1      33.558  16.021   8.523  0.00  0.00     0.037 C 
HETATM    7  C   UNK N   1      36.311  14.016  10.305  0.00  0.00     0.131 C 
HETATM    8  C   UNK N   1      35.054  15.073   6.667  0.00  0.00     0.160 C 
HETATM    9  C   UNK N   1      32.693  15.496   4.737  0.00  0.00    -0.006 A 
HETATM   10  C   UNK N   1      36.060  14.580   7.745  0.00  0.00     0.048 C 
HETATM   11  C   UNK N   1      35.241  14.050  11.430  0.00  0.00     0.025 C 
HETATM   12  C   UNK N   1      34.118  15.005  10.962  0.00  0.00     0.013 C 
HETATM   13  C   UNK N   1      32.124  16.181   9.054  0.00  0.00     0.050 C 
HETATM   14  C   UNK N   1      31.279  17.024   8.090  0.00  0.00     0.201 C 
HETATM   15  C   UNK N   1      30.232  16.122   6.075  0.00  0.00     0.061 A 
HETATM   16  C   UNK N   1      31.546  15.197   4.114  0.00  0.00     0.052 A 
HETATM   17  C   UNK N   1      30.258  15.518   4.738  0.00  0.00     0.172 A 
HETATM   18  F   UNK N   1      32.917  14.098   7.233  0.00  0.00    -0.238 F 
HETATM   19  O   UNK N   1      29.215  15.285   4.149  0.00  0.00    -0.289 OA
HETATM   20  C   UNK N   1      33.446  17.522   5.855  0.00  0.00     0.028 C 
HETATM   21  C   UNK N   1      34.551  12.937   8.867  0.00  0.00     0.019 C 
HETATM   22  F   UNK N   1      31.727  18.335   8.092  0.00  0.00    -0.245 F 
HETATM   23  C   UNK N   1      35.772  14.396  12.811  0.00  0.00     0.013 C 
ENDROOT
BRANCH   7  24
HETATM   24  C   UNK N   1      37.169  12.760  10.322  0.00  0.00     0.185 C 
HETATM   25  O   UNK N   1      36.732  11.714  10.775  0.00  0.00    -0.292 OA
BRANCH  24  26
HETATM   26  C   UNK N   1      38.564  12.778   9.772  0.00  0.00     0.245 C 
BRANCH  26  27
HETATM   27  O   UNK N   1      39.427  13.442  10.645  0.00  0.00    -0.393 OA
HETATM   28  H   UNK N   1      39.593  13.814  11.526  0.00  0.00     0.209 HD
ENDBRANCH  26  27
ENDBRANCH  24  26
ENDBRANCH   7  24
BRANCH   7  29
HETATM   29  O   UNK N   1      37.171  15.118  10.438  0.00  0.00    -0.381 OA
HETATM   30  H   UNK N   1      37.528  15.981  10.175  0.00  0.00     0.211 HD
ENDBRANCH   7  29
BRANCH   8  31
HETATM   31  O   UNK N   1      35.102  14.212   5.569  0.00  0.00    -0.392 OA
HETATM   32  H   UNK N   1      34.660  14.443   4.736  0.00  0.00     0.210 HD
ENDBRANCH   8  31
TORSDOF 5
ENDMDL
MODEL 9
REMARK VINA RESULT:      -6.9     14.498     15.894
REMARK  5 active torsions:
REMARK  status: ('A' for Active; 'I' for Inactive)
REMARK    1  A    between atoms: C_16  and  C_7 
REMARK    2  A    between atoms: C_7  and  O_29 
REMARK    3  A    between atoms: C_8  and  O_24 
REMARK    4  A    between atoms: C_26  and  C_16 
REMARK    5  A    between atoms: O_27  and  C_26 
ROOT
HETATM    1  C   UNK N   1      28.383  17.579   6.008  0.00  0.00     0.039 A 
HETATM    2  C   UNK N   1      32.421  15.750   5.944  0.00  0.00     0.001 C 
HETATM    3  C   UNK N   1      29.883  17.118   5.933  0.00  0.00     0.147 C 
HETATM    4  C   UNK N   1      27.932  17.921   4.577  0.00  0.00    -0.027 A 
HETATM    5  C   UNK N   1      31.405  15.250   4.907  0.00  0.00     0.005 C 
HETATM    6  C   UNK N   1      30.024  15.972   4.877  0.00  0.00     0.037 C 
HETATM    7  C   UNK N   1      33.549  14.703   5.739  0.00  0.00     0.131 C 
HETATM    8  C   UNK N   1      30.433  16.632   7.322  0.00  0.00     0.160 C 
HETATM    9  C   UNK N   1      28.215  18.739   6.981  0.00  0.00    -0.006 A 
HETATM   10  C   UNK N   1      31.747  15.800   7.316  0.00  0.00     0.048 C 
HETATM   11  C   UNK N   1      33.654  14.739   4.190  0.00  0.00     0.025 C 
HETATM   12  C   UNK N   1      32.238  15.038   3.644  0.00  0.00     0.013 C 
HETATM   13  C   UNK N   1      29.594  16.445   3.479  0.00  0.00     0.050 C 
HETATM   14  C   UNK N   1      28.130  16.904   3.488  0.00  0.00     0.201 C 
HETATM   15  C   UNK N   1      27.415  19.113   4.250  0.00  0.00     0.061 A 
HETATM   16  C   UNK N   1      27.683  19.919   6.638  0.00  0.00     0.052 A 
HETATM   17  C   UNK N   1      27.232  20.157   5.263  0.00  0.00     0.172 A 
HETATM   18  F   UNK N   1      30.619  18.214   5.505  0.00  0.00    -0.238 F 
HETATM   19  O   UNK N   1      26.707  21.218   4.964  0.00  0.00    -0.289 OA
HETATM   20  C   UNK N   1      27.500  16.454   6.544  0.00  0.00     0.028 C 
HETATM   21  C   UNK N   1      32.973  17.149   5.608  0.00  0.00     0.019 C 
HETATM   22  F   UNK N   1      27.296  15.817   3.685  0.00  0.00    -0.245 F 
HETATM   23  C   UNK N   1      34.281  13.505   3.561  0.00  0.00     0.013 C 
ENDROOT
BRANCH   7  24
HETATM   24  C   UNK N   1      34.868  14.978   6.443  0.00  0.00     0.185 C 
HETATM   25  O   UNK N   1      35.761  15.587   5.876  0.00  0.00    -0.292 OA
BRANCH  24  26
HETATM   26  C   UNK N   1      35.096  14.517   7.852  0.00  0.00     0.245 C 
BRANCH  26  27
HETATM   27  O   UNK N   1      35.084  15.601   8.731  0.00  0.00    -0.393 OA
HETATM   28  H   UNK N   1      34.584  16.178   9.330  0.00  0.00     0.209 HD
ENDBRANCH  26  27
ENDBRANCH  24  26
ENDBRANCH   7  24
BRANCH   7  29
HETATM   29  O   UNK N   1      33.103  13.437   6.153  0.00  0.00    -0.381 OA
HETATM   30  H   UNK N   1      32.954  12.486   6.039  0.00  0.00     0.211 HD
ENDBRANCH   7  29
BRANCH   8  31
HETATM   31  O   UNK N   1      30.575  17.704   8.205  0.00  0.00    -0.392 OA
HETATM   32  H   UNK N   1      30.852  17.558   9.124  0.00  0.00     0.210 HD
ENDBRANCH   8  31
TORSDOF 5
ENDMDL
