MODEL 1
REMARK VINA RESULT:      -6.8      0.000      0.000
REMARK  21 active torsions:
REMARK  status: ('A' for Active; 'I' for Inactive)
REMARK    1  A    between atoms: C_1  and  O_9 
REMARK    2  A    between atoms: C_2  and  C_8 
REMARK    3  A    between atoms: C_5  and  C_11 
REMARK    4  A    between atoms: C_6  and  O_10 
REMARK    5  A    between atoms: C_7  and  C_8 
REMARK    6  A    between atoms: C_11  and  C_12 
REMARK    7  A    between atoms: C_13  and  C_14 
REMARK    8  A    between atoms: C_14  and  O_15 
REMARK    9  A    between atoms: O_15  and  C_16 
REMARK   10  A    between atoms: C_16  and  C_17 
REMARK   11  A    between atoms: C_17  and  C_18 
REMARK   12  A    between atoms: C_18  and  C_19 
REMARK   13  A    between atoms: C_19  and  C_20 
REMARK   14  A    between atoms: C_20  and  C_21 
REMARK   15  A    between atoms: C_21  and  C_22 
REMARK   16  A    between atoms: C_22  and  C_23 
REMARK   17  A    between atoms: C_23  and  C_24 
REMARK   18  A    between atoms: C_24  and  O_25 
REMARK   19  A    between atoms: C_29  and  C_30 
REMARK   20  A    between atoms: C_30  and  C_31 
REMARK   21  A    between atoms: C_31  and  O_34 
ROOT
HETATM    1  C   UNK N   1      20.120  16.700   7.882  0.00  0.00     0.155 C 
HETATM    2  C   UNK N   1      20.158  15.169   8.103  0.00  0.00     0.043 C 
HETATM    3  C   UNK N   1      20.811  14.483   6.906  0.00  0.00     0.175 C 
HETATM    4  O   UNK N   1      22.157  14.896   6.806  0.00  0.00    -0.382 OA
HETATM    5  C   UNK N   1      22.260  16.273   6.453  0.00  0.00     0.156 C 
HETATM    6  C   UNK N   1      21.010  17.147   6.715  0.00  0.00     0.176 C 
ENDROOT
BRANCH   5   7
HETATM    7  C   UNK N   1      22.723  16.412   4.998  0.00  0.00     0.068 C 
BRANCH   7   8
HETATM    8  C   UNK N   1      24.195  16.148   4.842  0.00  0.00    -0.075 C 
HETATM    9  C   UNK N   1      24.949  16.008   5.948  0.00  0.00     0.084 C 
HETATM   10  C   UNK N   1      24.774  16.199   3.466  0.00  0.00     0.043 C 
BRANCH   9  11
HETATM   11  C   UNK N   1      26.407  15.768   6.067  0.00  0.00     0.283 C 
HETATM   12  O   UNK N   1      26.807  14.625   5.913  0.00  0.00    -0.260 OA
BRANCH  11  13
HETATM   13  O   UNK N   1      27.325  16.747   6.253  0.00  0.00    -0.318 OA
BRANCH  13  14
HETATM   14  C   UNK N   1      28.643  16.687   5.868  0.00  0.00     0.179 C 
BRANCH  14  15
HETATM   15  C   UNK N   1      28.991  17.867   4.971  0.00  0.00     0.027 C 
BRANCH  15  16
HETATM   16  C   UNK N   1      27.796  18.358   4.156  0.00  0.00     0.002 C 
BRANCH  16  17
HETATM   17  C   UNK N   1      27.793  19.884   4.082  0.00  0.00     0.000 C 
BRANCH  17  18
HETATM   18  C   UNK N   1      26.395  20.493   4.138  0.00  0.00     0.000 C 
BRANCH  18  19
HETATM   19  C   UNK N   1      25.392  19.782   3.235  0.00  0.00     0.001 C 
BRANCH  19  20
HETATM   20  C   UNK N   1      24.115  20.607   3.120  0.00  0.00     0.010 C 
BRANCH  20  21
HETATM   21  C   UNK N   1      22.856  19.759   3.279  0.00  0.00     0.110 C 
BRANCH  21  22
HETATM   22  C   UNK N   1      21.643  20.411   2.694  0.00  0.00     0.139 C 
HETATM   23  O   UNK N   1      20.701  20.719   3.407  0.00  0.00    -0.650 OA
BRANCH  22  24
HETATM   24  O   UNK N   1      21.594  20.663   1.373  0.00  0.00    -0.776 OA
HETATM   25  H   UNK N   1      21.601  21.309   0.694  0.00  0.00     0.167 HD
ENDBRANCH  22  24
ENDBRANCH  21  22
ENDBRANCH  20  21
ENDBRANCH  19  20
ENDBRANCH  18  19
ENDBRANCH  17  18
ENDBRANCH  16  17
ENDBRANCH  15  16
ENDBRANCH  14  15
ENDBRANCH  13  14
ENDBRANCH  11  13
ENDBRANCH   9  11
ENDBRANCH   7   8
ENDBRANCH   5   7
BRANCH   6  26
HETATM   26  O   UNK N   1      21.317  18.508   6.757  0.00  0.00    -0.390 OA
HETATM   27  H   UNK N   1      20.644  19.162   7.004  0.00  0.00     0.210 HD
ENDBRANCH   6  26
BRANCH   1  28
HETATM   28  O   UNK N   1      20.338  17.435   9.050  0.00  0.00    -0.392 OA
HETATM   29  H   UNK N   1      20.376  18.404   9.023  0.00  0.00     0.210 HD
ENDBRANCH   1  28
BRANCH   2  30
HETATM   30  C   UNK N   1      20.806  14.703   9.416  0.00  0.00     0.044 C 
BRANCH  30  31
HETATM   31  C   UNK N   1      21.172  13.224   9.437  0.00  0.00     0.152 A 
HETATM   32  O   UNK N   1      20.844  12.677  10.691  0.00  0.00    -0.375 OA
HETATM   33  C   UNK N   1      22.184  13.052  10.503  0.00  0.00     0.157 A 
BRANCH  33  34
HETATM   34  C   UNK N   1      23.036  11.802  10.327  0.00  0.00     0.041 C 
HETATM   35  C   UNK N   1      23.940  11.979   9.113  0.00  0.00     0.015 C 
BRANCH  34  36
HETATM   36  C   UNK N   1      23.885  11.613  11.586  0.00  0.00     0.120 C 
HETATM   37  C   UNK N   1      23.112  11.961  12.845  0.00  0.00     0.040 C 
BRANCH  36  38
HETATM   38  O   UNK N   1      25.027  12.415  11.523  0.00  0.00    -0.396 OA
HETATM   39  H   UNK N   1      25.591  12.560  12.298  0.00  0.00     0.210 HD
ENDBRANCH  36  38
ENDBRANCH  34  36
ENDBRANCH  33  34
ENDBRANCH  30  31
ENDBRANCH   2  30
TORSDOF 21
ENDMDL
MODEL 2
REMARK VINA RESULT:      -6.6      3.228      6.839
REMARK  21 active torsions:
REMARK  status: ('A' for Active; 'I' for Inactive)
REMARK    1  A    between atoms: C_1  and  O_9 
REMARK    2  A    between atoms: C_2  and  C_8 
REMARK    3  A    between atoms: C_5  and  C_11 
REMARK    4  A    between atoms: C_6  and  O_10 
REMARK    5  A    between atoms: C_7  and  C_8 
REMARK    6  A    between atoms: C_11  and  C_12 
REMARK    7  A    between atoms: C_13  and  C_14 
REMARK    8  A    between atoms: C_14  and  O_15 
REMARK    9  A    between atoms: O_15  and  C_16 
REMARK   10  A    between atoms: C_16  and  C_17 
REMARK   11  A    between atoms: C_17  and  C_18 
REMARK   12  A    between atoms: C_18  and  C_19 
REMARK   13  A    between atoms: C_19  and  C_20 
REMARK   14  A    between atoms: C_20  and  C_21 
REMARK   15  A    between atoms: C_21  and  C_22 
REMARK   16  A    between atoms: C_22  and  C_23 
REMARK   17  A    between atoms: C_23  and  C_24 
REMARK   18  A    between atoms: C_24  and  O_25 
REMARK   19  A    between atoms: C_29  and  C_30 
REMARK   20  A    between atoms: C_30  and  C_31 
REMARK   21  A    between atoms: C_31  and  O_34 
ROOT
HETATM    1  C   UNK N   1      21.424  19.123   3.639  0.00  0.00     0.155 C 
HETATM    2  C   UNK N   1      21.379  17.755   4.360  0.00  0.00     0.043 C 
HETATM    3  C   UNK N   1      22.723  17.045   4.218  0.00  0.00     0.175 C 
HETATM    4  O   UNK N   1      23.722  17.798   4.871  0.00  0.00    -0.382 OA
HETATM    5  C   UNK N   1      23.968  19.034   4.208  0.00  0.00     0.156 C 
HETATM    6  C   UNK N   1      22.850  19.544   3.265  0.00  0.00     0.176 C 
ENDROOT
BRANCH   5   7
HETATM    7  C   UNK N   1      25.313  18.982   3.474  0.00  0.00     0.068 C 
BRANCH   7   8
HETATM    8  C   UNK N   1      26.454  19.431   4.345  0.00  0.00    -0.075 C 
HETATM    9  C   UNK N   1      26.183  20.166   5.440  0.00  0.00     0.084 C 
HETATM   10  C   UNK N   1      27.844  19.162   3.872  0.00  0.00     0.043 C 
BRANCH   9  11
HETATM   11  C   UNK N   1      27.114  20.743   6.438  0.00  0.00     0.283 C 
HETATM   12  O   UNK N   1      27.019  21.937   6.676  0.00  0.00    -0.260 OA
BRANCH  11  13
HETATM   13  O   UNK N   1      28.005  20.017   7.155  0.00  0.00    -0.318 OA
BRANCH  13  14
HETATM   14  C   UNK N   1      27.711  18.886   7.879  0.00  0.00     0.179 C 
BRANCH  14  15
HETATM   15  C   UNK N   1      28.304  17.654   7.209  0.00  0.00     0.027 C 
BRANCH  15  16
HETATM   16  C   UNK N   1      29.804  17.790   6.952  0.00  0.00     0.002 C 
BRANCH  16  17
HETATM   17  C   UNK N   1      30.246  16.823   5.856  0.00  0.00     0.000 C 
BRANCH  17  18
HETATM   18  C   UNK N   1      31.619  17.150   5.274  0.00  0.00     0.000 C 
BRANCH  18  19
HETATM   19  C   UNK N   1      32.767  16.506   6.044  0.00  0.00     0.001 C 
BRANCH  19  20
HETATM   20  C   UNK N   1      33.640  17.583   6.678  0.00  0.00     0.010 C 
BRANCH  20  21
HETATM   21  C   UNK N   1      33.282  17.841   8.139  0.00  0.00     0.110 C 
BRANCH  21  22
HETATM   22  C   UNK N   1      34.266  17.236   9.091  0.00  0.00     0.139 C 
HETATM   23  O   UNK N   1      34.126  16.087   9.478  0.00  0.00    -0.650 OA
BRANCH  22  24
HETATM   24  O   UNK N   1      35.313  17.965   9.517  0.00  0.00    -0.776 OA
HETATM   25  H   UNK N   1      35.609  18.701  10.015  0.00  0.00     0.167 HD
ENDBRANCH  22  24
ENDBRANCH  21  22
ENDBRANCH  20  21
ENDBRANCH  19  20
ENDBRANCH  18  19
ENDBRANCH  17  18
ENDBRANCH  16  17
ENDBRANCH  15  16
ENDBRANCH  14  15
ENDBRANCH  13  14
ENDBRANCH  11  13
ENDBRANCH   9  11
ENDBRANCH   7   8
ENDBRANCH   5   7
BRANCH   6  26
HETATM   26  O   UNK N   1      22.963  20.911   3.005  0.00  0.00    -0.390 OA
HETATM   27  H   UNK N   1      23.629  21.451   3.461  0.00  0.00     0.210 HD
ENDBRANCH   6  26
BRANCH   1  28
HETATM   28  O   UNK N   1      20.713  20.125   4.306  0.00  0.00    -0.392 OA
HETATM   29  H   UNK N   1      19.748  20.183   4.222  0.00  0.00     0.210 HD
ENDBRANCH   1  28
BRANCH   2  30
HETATM   30  C   UNK N   1      20.938  17.792   5.831  0.00  0.00     0.044 C 
BRANCH  30  31
HETATM   31  C   UNK N   1      20.387  16.470   6.348  0.00  0.00     0.152 A 
HETATM   32  O   UNK N   1      19.824  16.663   7.624  0.00  0.00    -0.375 OA
HETATM   33  C   UNK N   1      21.133  16.155   7.587  0.00  0.00     0.157 A 
BRANCH  33  34
HETATM   34  C   UNK N   1      21.107  14.674   7.943  0.00  0.00     0.041 C 
HETATM   35  C   UNK N   1      22.484  14.073   7.688  0.00  0.00     0.015 C 
BRANCH  34  36
HETATM   36  C   UNK N   1      20.745  14.538   9.423  0.00  0.00     0.120 C 
HETATM   37  C   UNK N   1      21.498  13.398  10.087  0.00  0.00     0.040 C 
BRANCH  36  38
HETATM   38  O   UNK N   1      19.374  14.315   9.567  0.00  0.00    -0.396 OA
HETATM   39  H   UNK N   1      18.831  13.989   8.832  0.00  0.00     0.210 HD
ENDBRANCH  36  38
ENDBRANCH  34  36
ENDBRANCH  33  34
ENDBRANCH  30  31
ENDBRANCH   2  30
TORSDOF 21
ENDMDL
MODEL 3
REMARK VINA RESULT:      -6.6      1.893      9.315
REMARK  21 active torsions:
REMARK  status: ('A' for Active; 'I' for Inactive)
REMARK    1  A    between atoms: C_1  and  O_9 
REMARK    2  A    between atoms: C_2  and  C_8 
REMARK    3  A    between atoms: C_5  and  C_11 
REMARK    4  A    between atoms: C_6  and  O_10 
REMARK    5  A    between atoms: C_7  and  C_8 
REMARK    6  A    between atoms: C_11  and  C_12 
REMARK    7  A    between atoms: C_13  and  C_14 
REMARK    8  A    between atoms: C_14  and  O_15 
REMARK    9  A    between atoms: O_15  and  C_16 
REMARK   10  A    between atoms: C_16  and  C_17 
REMARK   11  A    between atoms: C_17  and  C_18 
REMARK   12  A    between atoms: C_18  and  C_19 
REMARK   13  A    between atoms: C_19  and  C_20 
REMARK   14  A    between atoms: C_20  and  C_21 
REMARK   15  A    between atoms: C_21  and  C_22 
REMARK   16  A    between atoms: C_22  and  C_23 
REMARK   17  A    between atoms: C_23  and  C_24 
REMARK   18  A    between atoms: C_24  and  O_25 
REMARK   19  A    between atoms: C_29  and  C_30 
REMARK   20  A    between atoms: C_30  and  C_31 
REMARK   21  A    between atoms: C_31  and  O_34 
ROOT
HETATM    1  C   UNK N   1      27.928  19.429   5.648  0.00  0.00     0.155 C 
HETATM    2  C   UNK N   1      27.583  19.555   4.145  0.00  0.00     0.043 C 
HETATM    3  C   UNK N   1      27.301  18.174   3.556  0.00  0.00     0.175 C 
HETATM    4  O   UNK N   1      26.159  17.625   4.175  0.00  0.00    -0.382 OA
HETATM    5  C   UNK N   1      26.397  17.320   5.545  0.00  0.00     0.156 C 
HETATM    6  C   UNK N   1      27.591  18.044   6.214  0.00  0.00     0.176 C 
ENDROOT
BRANCH   5   7
HETATM    7  C   UNK N   1      26.509  15.802   5.737  0.00  0.00     0.068 C 
BRANCH   7   8
HETATM    8  C   UNK N   1      25.284  15.220   6.387  0.00  0.00    -0.075 C 
HETATM    9  C   UNK N   1      24.075  15.526   5.881  0.00  0.00     0.084 C 
HETATM   10  C   UNK N   1      25.463  14.447   7.652  0.00  0.00     0.043 C 
BRANCH   9  11
HETATM   11  C   UNK N   1      22.730  15.107   6.343  0.00  0.00     0.283 C 
HETATM   12  O   UNK N   1      22.143  15.845   7.118  0.00  0.00    -0.260 OA
BRANCH  11  13
HETATM   13  O   UNK N   1      22.084  14.002   5.898  0.00  0.00    -0.318 OA
BRANCH  13  14
HETATM   14  C   UNK N   1      22.650  12.996   5.151  0.00  0.00     0.179 C 
BRANCH  14  15
HETATM   15  C   UNK N   1      22.595  11.675   5.908  0.00  0.00     0.027 C 
BRANCH  15  16
HETATM   16  C   UNK N   1      23.920  11.332   6.586  0.00  0.00     0.002 C 
BRANCH  16  17
HETATM   17  C   UNK N   1      23.740  11.262   8.101  0.00  0.00     0.000 C 
BRANCH  17  18
HETATM   18  C   UNK N   1      22.412  11.839   8.584  0.00  0.00     0.000 C 
BRANCH  18  19
HETATM   19  C   UNK N   1      22.572  13.105   9.418  0.00  0.00     0.001 C 
BRANCH  19  20
HETATM   20  C   UNK N   1      21.903  12.925  10.776  0.00  0.00     0.010 C 
BRANCH  20  21
HETATM   21  C   UNK N   1      22.439  11.716  11.537  0.00  0.00     0.110 C 
BRANCH  21  22
HETATM   22  C   UNK N   1      23.709  12.012  12.272  0.00  0.00     0.139 C 
HETATM   23  O   UNK N   1      24.785  11.953  11.698  0.00  0.00    -0.650 OA
BRANCH  22  24
HETATM   24  O   UNK N   1      23.661  12.352  13.573  0.00  0.00    -0.776 OA
HETATM   25  H   UNK N   1      23.755  12.074  14.463  0.00  0.00     0.167 HD
ENDBRANCH  22  24
ENDBRANCH  21  22
ENDBRANCH  20  21
ENDBRANCH  19  20
ENDBRANCH  18  19
ENDBRANCH  17  18
ENDBRANCH  16  17
ENDBRANCH  15  16
ENDBRANCH  14  15
ENDBRANCH  13  14
ENDBRANCH  11  13
ENDBRANCH   9  11
ENDBRANCH   7   8
ENDBRANCH   5   7
BRANCH   6  26
HETATM   26  O   UNK N   1      27.499  18.035   7.608  0.00  0.00    -0.390 OA
HETATM   27  H   UNK N   1      28.183  17.608   8.148  0.00  0.00     0.210 HD
ENDBRANCH   6  26
BRANCH   1  28
HETATM   28  O   UNK N   1      27.425  20.477   6.422  0.00  0.00    -0.392 OA
HETATM   29  H   UNK N   1      27.244  21.342   6.023  0.00  0.00     0.210 HD
ENDBRANCH   1  28
BRANCH   2  30
HETATM   30  C   UNK N   1      26.448  20.532   3.803  0.00  0.00     0.044 C 
BRANCH  30  31
HETATM   31  C   UNK N   1      25.369  19.941   2.904  0.00  0.00     0.152 A 
HETATM   32  O   UNK N   1      24.671  20.982   2.263  0.00  0.00    -0.375 OA
HETATM   33  C   UNK N   1      24.072  20.441   3.413  0.00  0.00     0.157 A 
BRANCH  33  34
HETATM   34  C   UNK N   1      22.891  19.571   3.002  0.00  0.00     0.041 C 
HETATM   35  C   UNK N   1      22.667  18.497   4.060  0.00  0.00     0.015 C 
BRANCH  34  36
HETATM   36  C   UNK N   1      21.651  20.460   2.892  0.00  0.00     0.120 C 
HETATM   37  C   UNK N   1      20.713  19.987   1.795  0.00  0.00     0.040 C 
BRANCH  36  38
HETATM   38  O   UNK N   1      22.024  21.780   2.626  0.00  0.00    -0.396 OA
HETATM   39  H   UNK N   1      21.388  22.433   2.298  0.00  0.00     0.210 HD
ENDBRANCH  36  38
ENDBRANCH  34  36
ENDBRANCH  33  34
ENDBRANCH  30  31
ENDBRANCH   2  30
TORSDOF 21
ENDMDL
MODEL 4
REMARK VINA RESULT:      -6.5      8.581     11.970
REMARK  21 active torsions:
REMARK  status: ('A' for Active; 'I' for Inactive)
REMARK    1  A    between atoms: C_1  and  O_9 
REMARK    2  A    between atoms: C_2  and  C_8 
REMARK    3  A    between atoms: C_5  and  C_11 
REMARK    4  A    between atoms: C_6  and  O_10 
REMARK    5  A    between atoms: C_7  and  C_8 
REMARK    6  A    between atoms: C_11  and  C_12 
REMARK    7  A    between atoms: C_13  and  C_14 
REMARK    8  A    between atoms: C_14  and  O_15 
REMARK    9  A    between atoms: O_15  and  C_16 
REMARK   10  A    between atoms: C_16  and  C_17 
REMARK   11  A    between atoms: C_17  and  C_18 
REMARK   12  A    between atoms: C_18  and  C_19 
REMARK   13  A    between atoms: C_19  and  C_20 
REMARK   14  A    between atoms: C_20  and  C_21 
REMARK   15  A    between atoms: C_21  and  C_22 
REMARK   16  A    between atoms: C_22  and  C_23 
REMARK   17  A    between atoms: C_23  and  C_24 
REMARK   18  A    between atoms: C_24  and  O_25 
REMARK   19  A    between atoms: C_29  and  C_30 
REMARK   20  A    between atoms: C_30  and  C_31 
REMARK   21  A    between atoms: C_31  and  O_34 
ROOT
HETATM    1  C   UNK N   1      35.313  11.886  11.916  0.00  0.00     0.155 C 
HETATM    2  C   UNK N   1      36.261  12.966  12.488  0.00  0.00     0.043 C 
HETATM    3  C   UNK N   1      36.618  13.978  11.401  0.00  0.00     0.175 C 
HETATM    4  O   UNK N   1      35.451  14.658  10.994  0.00  0.00    -0.382 OA
HETATM    5  C   UNK N   1      34.549  13.794  10.311  0.00  0.00     0.156 C 
HETATM    6  C   UNK N   1      34.734  12.276  10.551  0.00  0.00     0.176 C 
ENDROOT
BRANCH   5   7
HETATM    7  C   UNK N   1      34.549  14.109   8.810  0.00  0.00     0.068 C 
BRANCH   7   8
HETATM    8  C   UNK N   1      33.929  15.445   8.509  0.00  0.00    -0.075 C 
HETATM    9  C   UNK N   1      34.689  16.399   7.941  0.00  0.00     0.084 C 
HETATM   10  C   UNK N   1      32.537  15.695   8.988  0.00  0.00     0.043 C 
BRANCH   9  11
HETATM   11  C   UNK N   1      34.330  17.789   7.568  0.00  0.00     0.283 C 
HETATM   12  O   UNK N   1      34.744  18.690   8.280  0.00  0.00    -0.260 OA
BRANCH  11  13
HETATM   13  O   UNK N   1      33.643  18.121   6.449  0.00  0.00    -0.318 OA
BRANCH  13  14
HETATM   14  C   UNK N   1      33.393  17.281   5.389  0.00  0.00     0.179 C 
BRANCH  14  15
HETATM   15  C   UNK N   1      31.925  17.349   4.990  0.00  0.00     0.027 C 
BRANCH  15  16
HETATM   16  C   UNK N   1      31.059  16.358   5.766  0.00  0.00     0.002 C 
BRANCH  16  17
HETATM   17  C   UNK N   1      29.614  16.413   5.273  0.00  0.00     0.000 C 
BRANCH  17  18
HETATM   18  C   UNK N   1      29.043  17.827   5.220  0.00  0.00     0.000 C 
BRANCH  18  19
HETATM   19  C   UNK N   1      27.846  18.028   6.143  0.00  0.00     0.001 C 
BRANCH  19  20
HETATM   20  C   UNK N   1      28.183  19.047   7.225  0.00  0.00     0.010 C 
BRANCH  20  21
HETATM   21  C   UNK N   1      28.221  18.429   8.619  0.00  0.00     0.110 C 
BRANCH  21  22
HETATM   22  C   UNK N   1      29.553  18.585   9.284  0.00  0.00     0.139 C 
HETATM   23  O   UNK N   1      29.624  18.807  10.483  0.00  0.00    -0.650 OA
BRANCH  22  24
HETATM   24  O   UNK N   1      30.678  18.474   8.555  0.00  0.00    -0.776 OA
HETATM   25  H   UNK N   1      31.180  17.958   7.955  0.00  0.00     0.167 HD
ENDBRANCH  22  24
ENDBRANCH  21  22
ENDBRANCH  20  21
ENDBRANCH  19  20
ENDBRANCH  18  19
ENDBRANCH  17  18
ENDBRANCH  16  17
ENDBRANCH  15  16
ENDBRANCH  14  15
ENDBRANCH  13  14
ENDBRANCH  11  13
ENDBRANCH   9  11
ENDBRANCH   7   8
ENDBRANCH   5   7
BRANCH   6  26
HETATM   26  O   UNK N   1      33.591  11.546  10.216  0.00  0.00    -0.390 OA
HETATM   27  H   UNK N   1      33.608  10.902   9.490  0.00  0.00     0.210 HD
ENDBRANCH   6  26
BRANCH   1  28
HETATM   28  O   UNK N   1      34.339  11.465  12.825  0.00  0.00    -0.392 OA
HETATM   29  H   UNK N   1      34.555  10.818  13.515  0.00  0.00     0.210 HD
ENDBRANCH   1  28
BRANCH   2  30
HETATM   30  C   UNK N   1      35.767  13.683  13.754  0.00  0.00     0.044 C 
BRANCH  30  31
HETATM   31  C   UNK N   1      36.379  13.156  15.046  0.00  0.00     0.152 A 
HETATM   32  O   UNK N   1      35.811  11.907  15.359  0.00  0.00    -0.375 OA
HETATM   33  C   UNK N   1      35.270  13.023  16.018  0.00  0.00     0.157 A 
BRANCH  33  34
HETATM   34  C   UNK N   1      35.739  13.028  17.467  0.00  0.00     0.041 C 
HETATM   35  C   UNK N   1      35.151  14.239  18.181  0.00  0.00     0.015 C 
BRANCH  34  36
HETATM   36  C   UNK N   1      35.253  11.741  18.137  0.00  0.00     0.120 C 
HETATM   37  C   UNK N   1      35.242  11.861  19.650  0.00  0.00     0.040 C 
BRANCH  36  38
HETATM   38  O   UNK N   1      36.074  10.670  17.777  0.00  0.00    -0.396 OA
HETATM   39  H   UNK N   1      37.039  10.717  17.859  0.00  0.00     0.210 HD
ENDBRANCH  36  38
ENDBRANCH  34  36
ENDBRANCH  33  34
ENDBRANCH  30  31
ENDBRANCH   2  30
TORSDOF 21
ENDMDL
MODEL 5
REMARK VINA RESULT:      -6.4      2.098      4.802
REMARK  21 active torsions:
REMARK  status: ('A' for Active; 'I' for Inactive)
REMARK    1  A    between atoms: C_1  and  O_9 
REMARK    2  A    between atoms: C_2  and  C_8 
REMARK    3  A    between atoms: C_5  and  C_11 
REMARK    4  A    between atoms: C_6  and  O_10 
REMARK    5  A    between atoms: C_7  and  C_8 
REMARK    6  A    between atoms: C_11  and  C_12 
REMARK    7  A    between atoms: C_13  and  C_14 
REMARK    8  A    between atoms: C_14  and  O_15 
REMARK    9  A    between atoms: O_15  and  C_16 
REMARK   10  A    between atoms: C_16  and  C_17 
REMARK   11  A    between atoms: C_17  and  C_18 
REMARK   12  A    between atoms: C_18  and  C_19 
REMARK   13  A    between atoms: C_19  and  C_20 
REMARK   14  A    between atoms: C_20  and  C_21 
REMARK   15  A    between atoms: C_21  and  C_22 
REMARK   16  A    between atoms: C_22  and  C_23 
REMARK   17  A    between atoms: C_23  and  C_24 
REMARK   18  A    between atoms: C_24  and  O_25 
REMARK   19  A    between atoms: C_29  and  C_30 
REMARK   20  A    between atoms: C_30  and  C_31 
REMARK   21  A    between atoms: C_31  and  O_34 
ROOT
HETATM    1  C   UNK N   1      20.425  15.845   7.525  0.00  0.00     0.155 C 
HETATM    2  C   UNK N   1      20.493  14.413   6.943  0.00  0.00     0.043 C 
HETATM    3  C   UNK N   1      19.980  14.408   5.505  0.00  0.00     0.175 C 
HETATM    4  O   UNK N   1      20.830  15.196   4.701  0.00  0.00    -0.382 OA
HETATM    5  C   UNK N   1      20.745  16.577   5.042  0.00  0.00     0.156 C 
HETATM    6  C   UNK N   1      20.180  16.907   6.445  0.00  0.00     0.176 C 
ENDROOT
BRANCH   5   7
HETATM    7  C   UNK N   1      19.978  17.343   3.956  0.00  0.00     0.068 C 
BRANCH   7   8
HETATM    8  C   UNK N   1      20.871  18.265   3.174  0.00  0.00    -0.075 C 
HETATM    9  C   UNK N   1      21.893  18.870   3.808  0.00  0.00     0.084 C 
HETATM   10  C   UNK N   1      20.491  18.579   1.764  0.00  0.00     0.043 C 
BRANCH   9  11
HETATM   11  C   UNK N   1      22.892  19.828   3.277  0.00  0.00     0.283 C 
HETATM   12  O   UNK N   1      22.487  20.917   2.900  0.00  0.00    -0.260 OA
BRANCH  11  13
HETATM   13  O   UNK N   1      24.228  19.602   3.261  0.00  0.00    -0.318 OA
BRANCH  13  14
HETATM   14  C   UNK N   1      25.161  20.385   2.625  0.00  0.00     0.179 C 
BRANCH  14  15
HETATM   15  C   UNK N   1      26.417  20.516   3.476  0.00  0.00     0.027 C 
BRANCH  15  16
HETATM   16  C   UNK N   1      26.104  20.747   4.953  0.00  0.00     0.002 C 
BRANCH  16  17
HETATM   17  C   UNK N   1      27.390  21.008   5.735  0.00  0.00     0.000 C 
BRANCH  17  18
HETATM   18  C   UNK N   1      27.741  19.894   6.718  0.00  0.00     0.000 C 
BRANCH  18  19
HETATM   19  C   UNK N   1      28.367  18.676   6.047  0.00  0.00     0.001 C 
BRANCH  19  20
HETATM   20  C   UNK N   1      28.083  17.423   6.869  0.00  0.00     0.010 C 
BRANCH  20  21
HETATM   21  C   UNK N   1      29.140  17.175   7.941  0.00  0.00     0.110 C 
BRANCH  21  22
HETATM   22  C   UNK N   1      28.638  17.456   9.323  0.00  0.00     0.139 C 
HETATM   23  O   UNK N   1      29.336  17.217  10.296  0.00  0.00    -0.650 OA
BRANCH  22  24
HETATM   24  O   UNK N   1      27.410  17.981   9.491  0.00  0.00    -0.776 OA
HETATM   25  H   UNK N   1      26.899  18.742   9.683  0.00  0.00     0.167 HD
ENDBRANCH  22  24
ENDBRANCH  21  22
ENDBRANCH  20  21
ENDBRANCH  19  20
ENDBRANCH  18  19
ENDBRANCH  17  18
ENDBRANCH  16  17
ENDBRANCH  15  16
ENDBRANCH  14  15
ENDBRANCH  13  14
ENDBRANCH  11  13
ENDBRANCH   9  11
ENDBRANCH   7   8
ENDBRANCH   5   7
BRANCH   6  26
HETATM   26  O   UNK N   1      20.523  18.195   6.862  0.00  0.00    -0.390 OA
HETATM   27  H   UNK N   1      21.304  18.346   7.417  0.00  0.00     0.210 HD
ENDBRANCH   6  26
BRANCH   1  28
HETATM   28  O   UNK N   1      21.497  16.154   8.365  0.00  0.00    -0.392 OA
HETATM   29  H   UNK N   1      21.497  15.866   9.292  0.00  0.00     0.210 HD
ENDBRANCH   1  28
BRANCH   2  30
HETATM   30  C   UNK N   1      21.863  13.724   7.032  0.00  0.00     0.044 C 
BRANCH  30  31
HETATM   31  C   UNK N   1      21.904  12.544   7.996  0.00  0.00     0.152 A 
HETATM   32  O   UNK N   1      20.964  12.746   9.024  0.00  0.00    -0.375 OA
HETATM   33  C   UNK N   1      22.295  13.088   9.316  0.00  0.00     0.157 A 
BRANCH  33  34
HETATM   34  C   UNK N   1      22.892  12.039  10.244  0.00  0.00     0.041 C 
HETATM   35  C   UNK N   1      24.411  12.161  10.229  0.00  0.00     0.015 C 
BRANCH  34  36
HETATM   36  C   UNK N   1      22.363  12.286  11.658  0.00  0.00     0.120 C 
HETATM   37  C   UNK N   1      23.327  11.785  12.718  0.00  0.00     0.040 C 
BRANCH  36  38
HETATM   38  O   UNK N   1      21.132  11.648  11.832  0.00  0.00    -0.396 OA
HETATM   39  H   UNK N   1      20.947  10.783  11.437  0.00  0.00     0.210 HD
ENDBRANCH  36  38
ENDBRANCH  34  36
ENDBRANCH  33  34
ENDBRANCH  30  31
ENDBRANCH   2  30
TORSDOF 21
ENDMDL
MODEL 6
REMARK VINA RESULT:      -6.4      6.890      9.993
REMARK  21 active torsions:
REMARK  status: ('A' for Active; 'I' for Inactive)
REMARK    1  A    between atoms: C_1  and  O_9 
REMARK    2  A    between atoms: C_2  and  C_8 
REMARK    3  A    between atoms: C_5  and  C_11 
REMARK    4  A    between atoms: C_6  and  O_10 
REMARK    5  A    between atoms: C_7  and  C_8 
REMARK    6  A    between atoms: C_11  and  C_12 
REMARK    7  A    between atoms: C_13  and  C_14 
REMARK    8  A    between atoms: C_14  and  O_15 
REMARK    9  A    between atoms: O_15  and  C_16 
REMARK   10  A    between atoms: C_16  and  C_17 
REMARK   11  A    between atoms: C_17  and  C_18 
REMARK   12  A    between atoms: C_18  and  C_19 
REMARK   13  A    between atoms: C_19  and  C_20 
REMARK   14  A    between atoms: C_20  and  C_21 
REMARK   15  A    between atoms: C_21  and  C_22 
REMARK   16  A    between atoms: C_22  and  C_23 
REMARK   17  A    between atoms: C_23  and  C_24 
REMARK   18  A    between atoms: C_24  and  O_25 
REMARK   19  A    between atoms: C_29  and  C_30 
REMARK   20  A    between atoms: C_30  and  C_31 
REMARK   21  A    between atoms: C_31  and  O_34 
ROOT
HETATM    1  C   UNK N   1      34.346  13.514   9.281  0.00  0.00     0.155 C 
HETATM    2  C   UNK N   1      35.335  14.422  10.049  0.00  0.00     0.043 C 
HETATM    3  C   UNK N   1      35.416  15.792   9.377  0.00  0.00     0.175 C 
HETATM    4  O   UNK N   1      34.159  16.427   9.457  0.00  0.00    -0.382 OA
HETATM    5  C   UNK N   1      33.181  15.764   8.662  0.00  0.00     0.156 C 
HETATM    6  C   UNK N   1      33.486  14.295   8.280  0.00  0.00     0.176 C 
ENDROOT
BRANCH   5   7
HETATM    7  C   UNK N   1      32.865  16.594   7.412  0.00  0.00     0.068 C 
BRANCH   7   8
HETATM    8  C   UNK N   1      31.446  17.092   7.404  0.00  0.00    -0.075 C 
HETATM    9  C   UNK N   1      30.867  17.415   8.575  0.00  0.00     0.084 C 
HETATM   10  C   UNK N   1      30.702  17.065   6.110  0.00  0.00     0.043 C 
BRANCH   9  11
HETATM   11  C   UNK N   1      29.492  17.902   8.840  0.00  0.00     0.283 C 
HETATM   12  O   UNK N   1      28.779  17.222   9.561  0.00  0.00    -0.260 OA
BRANCH  11  13
HETATM   13  O   UNK N   1      29.009  19.089   8.399  0.00  0.00    -0.318 OA
BRANCH  13  14
HETATM   14  C   UNK N   1      27.889  19.253   7.618  0.00  0.00     0.179 C 
BRANCH  14  15
HETATM   15  C   UNK N   1      28.168  20.230   6.484  0.00  0.00     0.027 C 
BRANCH  15  16
HETATM   16  C   UNK N   1      27.061  21.268   6.318  0.00  0.00     0.002 C 
BRANCH  16  17
HETATM   17  C   UNK N   1      25.982  20.749   5.369  0.00  0.00     0.000 C 
BRANCH  17  18
HETATM   18  C   UNK N   1      26.536  20.212   4.053  0.00  0.00     0.000 C 
BRANCH  18  19
HETATM   19  C   UNK N   1      25.622  19.189   3.388  0.00  0.00     0.001 C 
BRANCH  19  20
HETATM   20  C   UNK N   1      24.164  19.503   3.708  0.00  0.00     0.010 C 
BRANCH  20  21
HETATM   21  C   UNK N   1      23.553  20.502   2.730  0.00  0.00     0.110 C 
BRANCH  21  22
HETATM   22  C   UNK N   1      22.057  20.475   2.736  0.00  0.00     0.139 C 
HETATM   23  O   UNK N   1      21.449  20.012   3.688  0.00  0.00    -0.650 OA
BRANCH  22  24
HETATM   24  O   UNK N   1      21.379  20.970   1.684  0.00  0.00    -0.776 OA
HETATM   25  H   UNK N   1      21.311  21.036   0.752  0.00  0.00     0.167 HD
ENDBRANCH  22  24
ENDBRANCH  21  22
ENDBRANCH  20  21
ENDBRANCH  19  20
ENDBRANCH  18  19
ENDBRANCH  17  18
ENDBRANCH  16  17
ENDBRANCH  15  16
ENDBRANCH  14  15
ENDBRANCH  13  14
ENDBRANCH  11  13
ENDBRANCH   9  11
ENDBRANCH   7   8
ENDBRANCH   5   7
BRANCH   6  26
HETATM   26  O   UNK N   1      32.337  13.601   7.893  0.00  0.00    -0.390 OA
HETATM   27  H   UNK N   1      31.750  13.204   8.556  0.00  0.00     0.210 HD
ENDBRANCH   6  26
BRANCH   1  28
HETATM   28  O   UNK N   1      33.596  12.681  10.115  0.00  0.00    -0.392 OA
HETATM   29  H   UNK N   1      34.002  11.903  10.529  0.00  0.00     0.210 HD
ENDBRANCH   1  28
BRANCH   2  30
HETATM   30  C   UNK N   1      35.070  14.571  11.555  0.00  0.00     0.044 C 
BRANCH  30  31
HETATM   31  C   UNK N   1      35.873  13.613  12.425  0.00  0.00     0.152 A 
HETATM   32  O   UNK N   1      35.007  12.666  13.002  0.00  0.00    -0.375 OA
HETATM   33  C   UNK N   1      35.360  13.763  13.805  0.00  0.00     0.157 A 
BRANCH  33  34
HETATM   34  C   UNK N   1      36.353  13.310  14.868  0.00  0.00     0.041 C 
HETATM   35  C   UNK N   1      37.110  14.522  15.396  0.00  0.00     0.015 C 
BRANCH  34  36
HETATM   36  C   UNK N   1      35.576  12.644  16.005  0.00  0.00     0.120 C 
HETATM   37  C   UNK N   1      35.836  11.149  16.067  0.00  0.00     0.040 C 
BRANCH  36  38
HETATM   38  O   UNK N   1      34.205  12.855  15.840  0.00  0.00    -0.396 OA
HETATM   39  H   UNK N   1      33.557  12.155  16.015  0.00  0.00     0.210 HD
ENDBRANCH  36  38
ENDBRANCH  34  36
ENDBRANCH  33  34
ENDBRANCH  30  31
ENDBRANCH   2  30
TORSDOF 21
ENDMDL
MODEL 7
REMARK VINA RESULT:      -6.3      6.829     10.611
REMARK  21 active torsions:
REMARK  status: ('A' for Active; 'I' for Inactive)
REMARK    1  A    between atoms: C_1  and  O_9 
REMARK    2  A    between atoms: C_2  and  C_8 
REMARK    3  A    between atoms: C_5  and  C_11 
REMARK    4  A    between atoms: C_6  and  O_10 
REMARK    5  A    between atoms: C_7  and  C_8 
REMARK    6  A    between atoms: C_11  and  C_12 
REMARK    7  A    between atoms: C_13  and  C_14 
REMARK    8  A    between atoms: C_14  and  O_15 
REMARK    9  A    between atoms: O_15  and  C_16 
REMARK   10  A    between atoms: C_16  and  C_17 
REMARK   11  A    between atoms: C_17  and  C_18 
REMARK   12  A    between atoms: C_18  and  C_19 
REMARK   13  A    between atoms: C_19  and  C_20 
REMARK   14  A    between atoms: C_20  and  C_21 
REMARK   15  A    between atoms: C_21  and  C_22 
REMARK   16  A    between atoms: C_22  and  C_23 
REMARK   17  A    between atoms: C_23  and  C_24 
REMARK   18  A    between atoms: C_24  and  O_25 
REMARK   19  A    between atoms: C_29  and  C_30 
REMARK   20  A    between atoms: C_30  and  C_31 
REMARK   21  A    between atoms: C_31  and  O_34 
ROOT
HETATM    1  C   UNK N   1      34.405  17.168   9.493  0.00  0.00     0.155 C 
HETATM    2  C   UNK N   1      33.869  15.717   9.524  0.00  0.00     0.043 C 
HETATM    3  C   UNK N   1      33.025  15.444   8.280  0.00  0.00     0.175 C 
HETATM    4  O   UNK N   1      33.840  15.535   7.132  0.00  0.00    -0.382 OA
HETATM    5  C   UNK N   1      34.283  16.870   6.904  0.00  0.00     0.156 C 
HETATM    6  C   UNK N   1      34.234  17.828   8.119  0.00  0.00     0.176 C 
ENDROOT
BRANCH   5   7
HETATM    7  C   UNK N   1      33.541  17.475   5.707  0.00  0.00     0.068 C 
BRANCH   7   8
HETATM    8  C   UNK N   1      32.833  16.431   4.889  0.00  0.00    -0.075 C 
HETATM    9  C   UNK N   1      31.548  16.146   5.173  0.00  0.00     0.084 C 
HETATM   10  C   UNK N   1      33.635  15.656   3.896  0.00  0.00     0.043 C 
BRANCH   9  11
HETATM   11  C   UNK N   1      30.643  15.156   4.541  0.00  0.00     0.283 C 
HETATM   12  O   UNK N   1      30.340  14.170   5.193  0.00  0.00    -0.260 OA
BRANCH  11  13
HETATM   13  O   UNK N   1      30.073  15.319   3.323  0.00  0.00    -0.318 OA
BRANCH  13  14
HETATM   14  C   UNK N   1      29.217  16.337   2.974  0.00  0.00     0.179 C 
BRANCH  14  15
HETATM   15  C   UNK N   1      27.998  16.346   3.887  0.00  0.00     0.027 C 
BRANCH  15  16
HETATM   16  C   UNK N   1      26.995  17.436   3.516  0.00  0.00     0.002 C 
BRANCH  16  17
HETATM   17  C   UNK N   1      27.278  18.713   4.305  0.00  0.00     0.000 C 
BRANCH  17  18
HETATM   18  C   UNK N   1      27.958  18.460   5.648  0.00  0.00     0.000 C 
BRANCH  18  19
HETATM   19  C   UNK N   1      27.862  19.644   6.603  0.00  0.00     0.001 C 
BRANCH  19  20
HETATM   20  C   UNK N   1      27.875  19.154   8.047  0.00  0.00     0.010 C 
BRANCH  20  21
HETATM   21  C   UNK N   1      28.854  18.004   8.265  0.00  0.00     0.110 C 
BRANCH  21  22
HETATM   22  C   UNK N   1      29.972  18.364   9.193  0.00  0.00     0.139 C 
HETATM   23  O   UNK N   1      31.125  18.386   8.794  0.00  0.00    -0.650 OA
BRANCH  22  24
HETATM   24  O   UNK N   1      29.700  18.670  10.475  0.00  0.00    -0.776 OA
HETATM   25  H   UNK N   1      29.219  18.456  11.250  0.00  0.00     0.167 HD
ENDBRANCH  22  24
ENDBRANCH  21  22
ENDBRANCH  20  21
ENDBRANCH  19  20
ENDBRANCH  18  19
ENDBRANCH  17  18
ENDBRANCH  16  17
ENDBRANCH  15  16
ENDBRANCH  14  15
ENDBRANCH  13  14
ENDBRANCH  11  13
ENDBRANCH   9  11
ENDBRANCH   7   8
ENDBRANCH   5   7
BRANCH   6  26
HETATM   26  O   UNK N   1      35.058  18.942   7.945  0.00  0.00    -0.390 OA
HETATM   27  H   UNK N   1      34.930  19.542   7.194  0.00  0.00     0.210 HD
ENDBRANCH   6  26
BRANCH   1  28
HETATM   28  O   UNK N   1      35.700  17.292  10.004  0.00  0.00    -0.392 OA
HETATM   29  H   UNK N   1      36.191  16.508  10.297  0.00  0.00     0.210 HD
ENDBRANCH   1  28
BRANCH   2  30
HETATM   30  C   UNK N   1      34.929  14.620   9.711  0.00  0.00     0.044 C 
BRANCH  30  31
HETATM   31  C   UNK N   1      34.670  13.703  10.900  0.00  0.00     0.152 A 
HETATM   32  O   UNK N   1      34.541  14.476  12.069  0.00  0.00    -0.375 OA
HETATM   33  C   UNK N   1      35.799  13.895  11.838  0.00  0.00     0.157 A 
BRANCH  33  34
HETATM   34  C   UNK N   1      35.995  12.723  12.790  0.00  0.00     0.041 C 
HETATM   35  C   UNK N   1      37.391  12.144  12.593  0.00  0.00     0.015 C 
BRANCH  34  36
HETATM   36  C   UNK N   1      35.839  13.233  14.224  0.00  0.00     0.120 C 
HETATM   37  C   UNK N   1      36.746  12.490  15.189  0.00  0.00     0.040 C 
BRANCH  36  38
HETATM   38  O   UNK N   1      34.516  13.086  14.647  0.00  0.00    -0.396 OA
HETATM   39  H   UNK N   1      34.088  12.218  14.692  0.00  0.00     0.210 HD
ENDBRANCH  36  38
ENDBRANCH  34  36
ENDBRANCH  33  34
ENDBRANCH  30  31
ENDBRANCH   2  30
TORSDOF 21
ENDMDL
MODEL 8
REMARK VINA RESULT:      -6.2      2.097      4.952
REMARK  21 active torsions:
REMARK  status: ('A' for Active; 'I' for Inactive)
REMARK    1  A    between atoms: C_1  and  O_9 
REMARK    2  A    between atoms: C_2  and  C_8 
REMARK    3  A    between atoms: C_5  and  C_11 
REMARK    4  A    between atoms: C_6  and  O_10 
REMARK    5  A    between atoms: C_7  and  C_8 
REMARK    6  A    between atoms: C_11  and  C_12 
REMARK    7  A    between atoms: C_13  and  C_14 
REMARK    8  A    between atoms: C_14  and  O_15 
REMARK    9  A    between atoms: O_15  and  C_16 
REMARK   10  A    between atoms: C_16  and  C_17 
REMARK   11  A    between atoms: C_17  and  C_18 
REMARK   12  A    between atoms: C_18  and  C_19 
REMARK   13  A    between atoms: C_19  and  C_20 
REMARK   14  A    between atoms: C_20  and  C_21 
REMARK   15  A    between atoms: C_21  and  C_22 
REMARK   16  A    between atoms: C_22  and  C_23 
REMARK   17  A    between atoms: C_23  and  C_24 
REMARK   18  A    between atoms: C_24  and  O_25 
REMARK   19  A    between atoms: C_29  and  C_30 
REMARK   20  A    between atoms: C_30  and  C_31 
REMARK   21  A    between atoms: C_31  and  O_34 
ROOT
HETATM    1  C   UNK N   1      23.336  14.475   4.129  0.00  0.00     0.155 C 
HETATM    2  C   UNK N   1      23.452  14.747   5.647  0.00  0.00     0.043 C 
HETATM    3  C   UNK N   1      22.325  15.673   6.100  0.00  0.00     0.175 C 
HETATM    4  O   UNK N   1      21.084  15.027   5.912  0.00  0.00    -0.382 OA
HETATM    5  C   UNK N   1      20.787  14.851   4.530  0.00  0.00     0.156 C 
HETATM    6  C   UNK N   1      21.986  14.919   3.553  0.00  0.00     0.176 C 
ENDROOT
BRANCH   5   7
HETATM    7  C   UNK N   1      19.682  15.822   4.099  0.00  0.00     0.068 C 
BRANCH   7   8
HETATM    8  C   UNK N   1      20.236  17.072   3.473  0.00  0.00    -0.075 C 
HETATM    9  C   UNK N   1      20.721  18.038   4.275  0.00  0.00     0.084 C 
HETATM   10  C   UNK N   1      20.088  17.241   1.997  0.00  0.00     0.043 C 
BRANCH   9  11
HETATM   11  C   UNK N   1      21.294  19.357   3.915  0.00  0.00     0.283 C 
HETATM   12  O   UNK N   1      20.565  20.333   3.998  0.00  0.00    -0.260 OA
BRANCH  11  13
HETATM   13  O   UNK N   1      22.592  19.555   3.581  0.00  0.00    -0.318 OA
BRANCH  13  14
HETATM   14  C   UNK N   1      23.060  20.554   2.761  0.00  0.00     0.179 C 
BRANCH  14  15
HETATM   15  C   UNK N   1      24.582  20.539   2.717  0.00  0.00     0.027 C 
BRANCH  15  16
HETATM   16  C   UNK N   1      25.200  19.931   3.975  0.00  0.00     0.002 C 
BRANCH  16  17
HETATM   17  C   UNK N   1      26.533  20.605   4.292  0.00  0.00     0.000 C 
BRANCH  17  18
HETATM   18  C   UNK N   1      26.762  20.828   5.785  0.00  0.00     0.000 C 
BRANCH  18  19
HETATM   19  C   UNK N   1      28.086  20.259   6.282  0.00  0.00     0.001 C 
BRANCH  19  20
HETATM   20  C   UNK N   1      27.831  19.149   7.297  0.00  0.00     0.010 C 
BRANCH  20  21
HETATM   21  C   UNK N   1      28.319  17.789   6.809  0.00  0.00     0.110 C 
BRANCH  21  22
HETATM   22  C   UNK N   1      27.198  16.889   6.392  0.00  0.00     0.139 C 
HETATM   23  O   UNK N   1      26.891  16.787   5.214  0.00  0.00    -0.650 OA
BRANCH  22  24
HETATM   24  O   UNK N   1      26.529  16.184   7.322  0.00  0.00    -0.776 OA
HETATM   25  H   UNK N   1      25.964  16.204   8.069  0.00  0.00     0.167 HD
ENDBRANCH  22  24
ENDBRANCH  21  22
ENDBRANCH  20  21
ENDBRANCH  19  20
ENDBRANCH  18  19
ENDBRANCH  17  18
ENDBRANCH  16  17
ENDBRANCH  15  16
ENDBRANCH  14  15
ENDBRANCH  13  14
ENDBRANCH  11  13
ENDBRANCH   9  11
ENDBRANCH   7   8
ENDBRANCH   5   7
BRANCH   6  26
HETATM   26  O   UNK N   1      21.698  14.324   2.323  0.00  0.00    -0.390 OA
HETATM   27  H   UNK N   1      22.412  14.041   1.729  0.00  0.00     0.210 HD
ENDBRANCH   6  26
BRANCH   1  28
HETATM   28  O   UNK N   1      23.683  13.170   3.771  0.00  0.00    -0.392 OA
HETATM   29  H   UNK N   1      24.442  13.003   3.189  0.00  0.00     0.210 HD
ENDBRANCH   1  28
BRANCH   2  30
HETATM   30  C   UNK N   1      23.522  13.500   6.543  0.00  0.00     0.044 C 
BRANCH  30  31
HETATM   31  C   UNK N   1      23.778  13.806   8.014  0.00  0.00     0.152 A 
HETATM   32  O   UNK N   1      24.652  12.840   8.547  0.00  0.00    -0.375 OA
HETATM   33  C   UNK N   1      23.281  12.641   8.781  0.00  0.00     0.157 A 
BRANCH  33  34
HETATM   34  C   UNK N   1      22.965  12.971  10.234  0.00  0.00     0.041 C 
HETATM   35  C   UNK N   1      21.487  12.708  10.498  0.00  0.00     0.015 C 
BRANCH  34  36
HETATM   36  C   UNK N   1      23.823  12.076  11.131  0.00  0.00     0.120 C 
HETATM   37  C   UNK N   1      23.180  11.854  12.488  0.00  0.00     0.040 C 
BRANCH  36  38
HETATM   38  O   UNK N   1      25.084  12.648  11.319  0.00  0.00    -0.396 OA
HETATM   39  H   UNK N   1      25.857  12.112  11.550  0.00  0.00     0.210 HD
ENDBRANCH  36  38
ENDBRANCH  34  36
ENDBRANCH  33  34
ENDBRANCH  30  31
ENDBRANCH   2  30
TORSDOF 21
ENDMDL
MODEL 9
REMARK VINA RESULT:      -6.2     14.004     16.576
REMARK  21 active torsions:
REMARK  status: ('A' for Active; 'I' for Inactive)
REMARK    1  A    between atoms: C_1  and  O_9 
REMARK    2  A    between atoms: C_2  and  C_8 
REMARK    3  A    between atoms: C_5  and  C_11 
REMARK    4  A    between atoms: C_6  and  O_10 
REMARK    5  A    between atoms: C_7  and  C_8 
REMARK    6  A    between atoms: C_11  and  C_12 
REMARK    7  A    between atoms: C_13  and  C_14 
REMARK    8  A    between atoms: C_14  and  O_15 
REMARK    9  A    between atoms: O_15  and  C_16 
REMARK   10  A    between atoms: C_16  and  C_17 
REMARK   11  A    between atoms: C_17  and  C_18 
REMARK   12  A    between atoms: C_18  and  C_19 
REMARK   13  A    between atoms: C_19  and  C_20 
REMARK   14  A    between atoms: C_20  and  C_21 
REMARK   15  A    between atoms: C_21  and  C_22 
REMARK   16  A    between atoms: C_22  and  C_23 
REMARK   17  A    between atoms: C_23  and  C_24 
REMARK   18  A    between atoms: C_24  and  O_25 
REMARK   19  A    between atoms: C_29  and  C_30 
REMARK   20  A    between atoms: C_30  and  C_31 
REMARK   21  A    between atoms: C_31  and  O_34 
ROOT
HETATM    1  C   UNK N   1      30.979  23.270  -2.805  0.00  0.00     0.155 C 
HETATM    2  C   UNK N   1      29.996  23.812  -3.869  0.00  0.00     0.043 C 
HETATM    3  C   UNK N   1      30.247  23.127  -5.211  0.00  0.00     0.175 C 
HETATM    4  O   UNK N   1      29.971  21.748  -5.091  0.00  0.00    -0.382 OA
HETATM    5  C   UNK N   1      30.911  21.095  -4.243  0.00  0.00     0.156 C 
HETATM    6  C   UNK N   1      31.703  21.999  -3.267  0.00  0.00     0.176 C 
ENDROOT
BRANCH   5   7
HETATM    7  C   UNK N   1      31.866  20.233  -5.077  0.00  0.00     0.068 C 
BRANCH   7   8
HETATM    8  C   UNK N   1      31.468  20.183  -6.526  0.00  0.00    -0.075 C 
HETATM    9  C   UNK N   1      30.375  19.480  -6.874  0.00  0.00     0.084 C 
HETATM   10  C   UNK N   1      32.390  20.798  -7.527  0.00  0.00     0.043 C 
BRANCH   9  11
HETATM   11  C   UNK N   1      29.789  19.257  -8.218  0.00  0.00     0.283 C 
HETATM   12  O   UNK N   1      30.110  18.240  -8.813  0.00  0.00    -0.260 OA
BRANCH  11  13
HETATM   13  O   UNK N   1      28.865  20.067  -8.787  0.00  0.00    -0.318 OA
BRANCH  13  14
HETATM   14  C   UNK N   1      29.131  21.258  -9.419  0.00  0.00     0.179 C 
BRANCH  14  15
HETATM   15  C   UNK N   1      28.415  22.405  -8.719  0.00  0.00     0.027 C 
BRANCH  15  16
HETATM   16  C   UNK N   1      27.194  21.940  -7.927  0.00  0.00     0.002 C 
BRANCH  16  17
HETATM   17  C   UNK N   1      26.917  22.895  -6.767  0.00  0.00     0.000 C 
BRANCH  17  18
HETATM   18  C   UNK N   1      25.969  24.034  -7.130  0.00  0.00     0.000 C 
BRANCH  18  19
HETATM   19  C   UNK N   1      26.692  25.291  -7.602  0.00  0.00     0.001 C 
BRANCH  19  20
HETATM   20  C   UNK N   1      25.902  25.959  -8.723  0.00  0.00     0.010 C 
BRANCH  20  21
HETATM   21  C   UNK N   1      25.835  25.100  -9.982  0.00  0.00     0.110 C 
BRANCH  21  22
HETATM   22  C   UNK N   1      25.094  25.768 -11.098  0.00  0.00     0.139 C 
HETATM   23  O   UNK N   1      23.957  25.424 -11.379  0.00  0.00    -0.650 OA
BRANCH  22  24
HETATM   24  O   UNK N   1      25.686  26.757 -11.792  0.00  0.00    -0.776 OA
HETATM   25  H   UNK N   1      26.488  27.130 -12.101  0.00  0.00     0.167 HD
ENDBRANCH  22  24
ENDBRANCH  21  22
ENDBRANCH  20  21
ENDBRANCH  19  20
ENDBRANCH  18  19
ENDBRANCH  17  18
ENDBRANCH  16  17
ENDBRANCH  15  16
ENDBRANCH  14  15
ENDBRANCH  13  14
ENDBRANCH  11  13
ENDBRANCH   9  11
ENDBRANCH   7   8
ENDBRANCH   5   7
BRANCH   6  26
HETATM   26  O   UNK N   1      32.257  21.275  -2.209  0.00  0.00    -0.390 OA
HETATM   27  H   UNK N   1      32.191  21.599  -1.296  0.00  0.00     0.210 HD
ENDBRANCH   6  26
BRANCH   1  28
HETATM   28  O   UNK N   1      30.409  23.147  -1.535  0.00  0.00    -0.392 OA
HETATM   29  H   UNK N   1      29.833  22.395  -1.324  0.00  0.00     0.210 HD
ENDBRANCH   1  28
BRANCH   2  30
HETATM   30  C   UNK N   1      28.507  23.745  -3.496  0.00  0.00     0.044 C 
BRANCH  30  31
HETATM   31  C   UNK N   1      27.933  25.061  -2.988  0.00  0.00     0.152 A 
HETATM   32  O   UNK N   1      26.533  25.047  -3.129  0.00  0.00    -0.375 OA
HETATM   33  C   UNK N   1      27.258  25.701  -4.139  0.00  0.00     0.157 A 
BRANCH  33  34
HETATM   34  C   UNK N   1      27.097  27.208  -3.978  0.00  0.00     0.041 C 
HETATM   35  C   UNK N   1      27.743  27.910  -5.167  0.00  0.00     0.015 C 
BRANCH  34  36
HETATM   36  C   UNK N   1      25.603  27.532  -3.929  0.00  0.00     0.120 C 
HETATM   37  C   UNK N   1      24.959  27.440  -5.302  0.00  0.00     0.040 C 
BRANCH  36  38
HETATM   38  O   UNK N   1      25.405  28.820  -3.425  0.00  0.00    -0.396 OA
HETATM   39  H   UNK N   1      26.009  29.548  -3.636  0.00  0.00     0.210 HD
ENDBRANCH  36  38
ENDBRANCH  34  36
ENDBRANCH  33  34
ENDBRANCH  30  31
ENDBRANCH   2  30
TORSDOF 21
ENDMDL
