MODEL 1
REMARK VINA RESULT:      -7.0      0.000      0.000
REMARK  5 active torsions:
REMARK  status: ('A' for Active; 'I' for Inactive)
REMARK    1  A    between atoms: C_3  and  O_7 
REMARK    2  A    between atoms: C_6  and  C_8 
REMARK    3  A    between atoms: C_8  and  C_9 
REMARK    4  A    between atoms: C_9  and  C_10 
REMARK    5  A    between atoms: C_17  and  O_20 
ROOT
HETATM    1  C   UNK N   1      35.430  11.571  14.968  0.00  0.00    -0.019 C 
HETATM    2  C   UNK N   1      34.298  10.898  14.608  0.00  0.00    -0.018 C 
HETATM    3  C   UNK N   1      33.667  10.279  13.413  0.00  0.00     0.037 C 
ENDROOT
BRANCH   1   4
HETATM    4  C   UNK N   1      35.375  11.927  16.457  0.00  0.00    -0.025 A 
HETATM    5  C   UNK N   1      35.210  13.285  16.845  0.00  0.00     0.015 A 
HETATM    6  C   UNK N   1      35.159  13.666  18.187  0.00  0.00     0.037 A 
HETATM    7  C   UNK N   1      35.270  12.702  19.184  0.00  0.00     0.065 A 
HETATM    8  C   UNK N   1      35.426  11.364  18.834  0.00  0.00     0.037 A 
HETATM    9  C   UNK N   1      35.472  10.996  17.487  0.00  0.00     0.015 A 
BRANCH   7  10
HETATM   10  O   UNK N   1      35.228  13.059  20.477  0.00  0.00    -0.361 OA
HETATM   11  H   UNK N   1      35.433  12.432  21.143  0.00  0.00     0.217 HD
ENDBRANCH   7  10
ENDBRANCH   1   4
BRANCH   1  12
HETATM   12  C   UNK N   1      36.613  11.935  13.980  0.00  0.00    -0.019 C 
HETATM   13  C   UNK N   1      37.830  11.315  13.965  0.00  0.00    -0.018 C 
HETATM   14  C   UNK N   1      38.571  10.236  14.668  0.00  0.00     0.037 C 
BRANCH  12  15
HETATM   15  C   UNK N   1      36.576  13.039  12.918  0.00  0.00    -0.025 A 
HETATM   16  C   UNK N   1      37.170  12.935  11.663  0.00  0.00     0.015 A 
HETATM   17  C   UNK N   1      37.107  13.963  10.719  0.00  0.00     0.037 A 
HETATM   18  C   UNK N   1      36.438  15.145  11.023  0.00  0.00     0.065 A 
HETATM   19  C   UNK N   1      35.837  15.296  12.269  0.00  0.00     0.037 A 
HETATM   20  C   UNK N   1      35.906  14.258  13.201  0.00  0.00     0.015 A 
BRANCH  18  21
HETATM   21  O   UNK N   1      36.373  16.135  10.118  0.00  0.00    -0.361 OA
HETATM   22  H   UNK N   1      35.629  16.704  10.099  0.00  0.00     0.217 HD
ENDBRANCH  18  21
ENDBRANCH  12  15
ENDBRANCH   1  12
TORSDOF 5
ENDMDL
MODEL 2
REMARK VINA RESULT:      -6.9     20.823     24.539
REMARK  5 active torsions:
REMARK  status: ('A' for Active; 'I' for Inactive)
REMARK    1  A    between atoms: C_3  and  O_7 
REMARK    2  A    between atoms: C_6  and  C_8 
REMARK    3  A    between atoms: C_8  and  C_9 
REMARK    4  A    between atoms: C_9  and  C_10 
REMARK    5  A    between atoms: C_17  and  O_20 
ROOT
HETATM    1  C   UNK N   1      26.819  23.702  -5.866  0.00  0.00    -0.019 C 
HETATM    2  C   UNK N   1      25.685  23.047  -6.252  0.00  0.00    -0.018 C 
HETATM    3  C   UNK N   1      25.263  21.808  -6.957  0.00  0.00     0.037 C 
ENDROOT
BRANCH   1   4
HETATM    4  C   UNK N   1      26.453  25.008  -5.155  0.00  0.00    -0.025 A 
HETATM    5  C   UNK N   1      25.729  26.008  -5.860  0.00  0.00     0.015 A 
HETATM    6  C   UNK N   1      25.373  27.219  -5.262  0.00  0.00     0.037 A 
HETATM    7  C   UNK N   1      25.731  27.469  -3.941  0.00  0.00     0.065 A 
HETATM    8  C   UNK N   1      26.434  26.506  -3.224  0.00  0.00     0.037 A 
HETATM    9  C   UNK N   1      26.780  25.296  -3.833  0.00  0.00     0.015 A 
BRANCH   7  10
HETATM   10  O   UNK N   1      25.398  28.631  -3.359  0.00  0.00    -0.361 OA
HETATM   11  H   UNK N   1      25.288  28.676  -2.429  0.00  0.00     0.217 HD
ENDBRANCH   7  10
ENDBRANCH   1   4
BRANCH   1  12
HETATM   12  C   UNK N   1      28.292  23.183  -6.130  0.00  0.00    -0.019 C 
HETATM   13  C   UNK N   1      28.852  23.034  -7.367  0.00  0.00    -0.018 C 
HETATM   14  C   UNK N   1      28.515  23.213  -8.804  0.00  0.00     0.037 C 
BRANCH  12  15
HETATM   15  C   UNK N   1      29.292  22.757  -5.050  0.00  0.00    -0.025 A 
HETATM   16  C   UNK N   1      29.633  23.538  -3.949  0.00  0.00     0.015 A 
HETATM   17  C   UNK N   1      30.544  23.109  -2.981  0.00  0.00     0.037 A 
HETATM   18  C   UNK N   1      31.151  21.862  -3.104  0.00  0.00     0.065 A 
HETATM   19  C   UNK N   1      30.848  21.052  -4.193  0.00  0.00     0.037 A 
HETATM   20  C   UNK N   1      29.932  21.493  -5.151  0.00  0.00     0.015 A 
BRANCH  18  21
HETATM   21  O   UNK N   1      32.026  21.445  -2.175  0.00  0.00    -0.361 OA
HETATM   22  H   UNK N   1      32.378  20.578  -2.219  0.00  0.00     0.217 HD
ENDBRANCH  18  21
ENDBRANCH  12  15
ENDBRANCH   1  12
TORSDOF 5
ENDMDL
MODEL 3
REMARK VINA RESULT:      -6.9     20.855     24.501
REMARK  5 active torsions:
REMARK  status: ('A' for Active; 'I' for Inactive)
REMARK    1  A    between atoms: C_3  and  O_7 
REMARK    2  A    between atoms: C_6  and  C_8 
REMARK    3  A    between atoms: C_8  and  C_9 
REMARK    4  A    between atoms: C_9  and  C_10 
REMARK    5  A    between atoms: C_17  and  O_20 
ROOT
HETATM    1  C   UNK N   1      28.260  23.167  -6.157  0.00  0.00    -0.019 C 
HETATM    2  C   UNK N   1      28.819  22.988  -7.390  0.00  0.00    -0.018 C 
HETATM    3  C   UNK N   1      28.482  23.135  -8.830  0.00  0.00     0.037 C 
ENDROOT
BRANCH   1   4
HETATM    4  C   UNK N   1      29.260  22.767  -5.067  0.00  0.00    -0.025 A 
HETATM    5  C   UNK N   1      29.950  21.529  -5.172  0.00  0.00     0.015 A 
HETATM    6  C   UNK N   1      30.868  21.113  -4.205  0.00  0.00     0.037 A 
HETATM    7  C   UNK N   1      31.124  21.922  -3.102  0.00  0.00     0.065 A 
HETATM    8  C   UNK N   1      30.467  23.142  -2.976  0.00  0.00     0.037 A 
HETATM    9  C   UNK N   1      29.555  23.548  -3.953  0.00  0.00     0.015 A 
BRANCH   7  10
HETATM   10  O   UNK N   1      32.000  21.529  -2.165  0.00  0.00    -0.361 OA
HETATM   11  H   UNK N   1      31.795  20.803  -1.608  0.00  0.00     0.217 HD
ENDBRANCH   7  10
ENDBRANCH   1   4
BRANCH   1  12
HETATM   12  C   UNK N   1      26.790  23.700  -5.904  0.00  0.00    -0.019 C 
HETATM   13  C   UNK N   1      25.654  23.065  -6.315  0.00  0.00    -0.018 C 
HETATM   14  C   UNK N   1      25.227  21.843  -7.046  0.00  0.00     0.037 C 
BRANCH  12  15
HETATM   15  C   UNK N   1      26.429  25.002  -5.182  0.00  0.00    -0.025 A 
HETATM   16  C   UNK N   1      26.764  25.282  -3.860  0.00  0.00     0.015 A 
HETATM   17  C   UNK N   1      26.422  26.487  -3.241  0.00  0.00     0.037 A 
HETATM   18  C   UNK N   1      25.715  27.455  -3.949  0.00  0.00     0.065 A 
HETATM   19  C   UNK N   1      25.351  27.214  -5.270  0.00  0.00     0.037 A 
HETATM   20  C   UNK N   1      25.703  26.006  -5.877  0.00  0.00     0.015 A 
BRANCH  18  21
HETATM   21  O   UNK N   1      25.385  28.615  -3.359  0.00  0.00    -0.361 OA
HETATM   22  H   UNK N   1      24.939  28.611  -2.535  0.00  0.00     0.217 HD
ENDBRANCH  18  21
ENDBRANCH  12  15
ENDBRANCH   1  12
TORSDOF 5
ENDMDL
MODEL 4
REMARK VINA RESULT:      -6.9     21.328     25.681
REMARK  5 active torsions:
REMARK  status: ('A' for Active; 'I' for Inactive)
REMARK    1  A    between atoms: C_3  and  O_7 
REMARK    2  A    between atoms: C_6  and  C_8 
REMARK    3  A    between atoms: C_8  and  C_9 
REMARK    4  A    between atoms: C_9  and  C_10 
REMARK    5  A    between atoms: C_17  and  O_20 
ROOT
HETATM    1  C   UNK N   1      26.934  25.971  -6.021  0.00  0.00    -0.019 C 
HETATM    2  C   UNK N   1      27.160  27.046  -6.832  0.00  0.00    -0.018 C 
HETATM    3  C   UNK N   1      27.684  28.435  -6.769  0.00  0.00     0.037 C 
ENDROOT
BRANCH   1   4
HETATM    4  C   UNK N   1      26.323  24.824  -6.831  0.00  0.00    -0.025 A 
HETATM    5  C   UNK N   1      26.160  23.549  -6.225  0.00  0.00     0.015 A 
HETATM    6  C   UNK N   1      25.613  22.467  -6.918  0.00  0.00     0.037 A 
HETATM    7  C   UNK N   1      25.213  22.626  -8.241  0.00  0.00     0.065 A 
HETATM    8  C   UNK N   1      25.355  23.865  -8.860  0.00  0.00     0.037 A 
HETATM    9  C   UNK N   1      25.899  24.940  -8.152  0.00  0.00     0.015 A 
BRANCH   7  10
HETATM   10  O   UNK N   1      24.692  21.591  -8.918  0.00  0.00    -0.361 OA
HETATM   11  H   UNK N   1      23.904  21.704  -9.413  0.00  0.00     0.217 HD
ENDBRANCH   7  10
ENDBRANCH   1   4
BRANCH   1  12
HETATM   12  C   UNK N   1      27.249  25.932  -4.469  0.00  0.00    -0.019 C 
HETATM   13  C   UNK N   1      26.667  26.743  -3.538  0.00  0.00    -0.018 C 
HETATM   14  C   UNK N   1      25.672  27.843  -3.442  0.00  0.00     0.037 C 
BRANCH  12  15
HETATM   15  C   UNK N   1      28.259  25.000  -3.791  0.00  0.00    -0.025 A 
HETATM   16  C   UNK N   1      27.908  23.924  -2.981  0.00  0.00     0.015 A 
HETATM   17  C   UNK N   1      28.861  23.093  -2.387  0.00  0.00     0.037 A 
HETATM   18  C   UNK N   1      30.216  23.333  -2.592  0.00  0.00     0.065 A 
HETATM   19  C   UNK N   1      30.614  24.404  -3.387  0.00  0.00     0.037 A 
HETATM   20  C   UNK N   1      29.649  25.224  -3.977  0.00  0.00     0.015 A 
BRANCH  18  21
HETATM   21  O   UNK N   1      31.136  22.536  -2.025  0.00  0.00    -0.361 OA
HETATM   22  H   UNK N   1      31.321  21.696  -2.396  0.00  0.00     0.217 HD
ENDBRANCH  18  21
ENDBRANCH  12  15
ENDBRANCH   1  12
TORSDOF 5
ENDMDL
MODEL 5
REMARK VINA RESULT:      -6.8      7.840     11.487
REMARK  5 active torsions:
REMARK  status: ('A' for Active; 'I' for Inactive)
REMARK    1  A    between atoms: C_3  and  O_7 
REMARK    2  A    between atoms: C_6  and  C_8 
REMARK    3  A    between atoms: C_8  and  C_9 
REMARK    4  A    between atoms: C_9  and  C_10 
REMARK    5  A    between atoms: C_17  and  O_20 
ROOT
HETATM    1  C   UNK N   1      30.510  16.608   5.771  0.00  0.00    -0.019 C 
HETATM    2  C   UNK N   1      29.884  15.444   5.427  0.00  0.00    -0.018 C 
HETATM    3  C   UNK N   1      30.204  14.070   4.959  0.00  0.00     0.037 C 
ENDROOT
BRANCH   1   4
HETATM    4  C   UNK N   1      29.470  17.665   6.158  0.00  0.00    -0.025 A 
HETATM    5  C   UNK N   1      29.225  17.933   7.532  0.00  0.00     0.015 A 
HETATM    6  C   UNK N   1      28.286  18.882   7.942  0.00  0.00     0.037 A 
HETATM    7  C   UNK N   1      27.562  19.593   6.989  0.00  0.00     0.065 A 
HETATM    8  C   UNK N   1      27.785  19.356   5.636  0.00  0.00     0.037 A 
HETATM    9  C   UNK N   1      28.731  18.407   5.241  0.00  0.00     0.015 A 
BRANCH   7  10
HETATM   10  O   UNK N   1      26.653  20.503   7.373  0.00  0.00    -0.361 OA
HETATM   11  H   UNK N   1      25.945  20.250   7.933  0.00  0.00     0.217 HD
ENDBRANCH   7  10
ENDBRANCH   1   4
BRANCH   1  12
HETATM   12  C   UNK N   1      32.078  16.827   5.756  0.00  0.00    -0.019 C 
HETATM   13  C   UNK N   1      32.836  16.937   4.625  0.00  0.00    -0.018 C 
HETATM   14  C   UNK N   1      32.691  16.921   3.146  0.00  0.00     0.037 C 
BRANCH  12  15
HETATM   15  C   UNK N   1      32.973  16.926   6.996  0.00  0.00    -0.025 A 
HETATM   16  C   UNK N   1      33.053  15.947   7.982  0.00  0.00     0.015 A 
HETATM   17  C   UNK N   1      33.889  16.073   9.095  0.00  0.00     0.037 A 
HETATM   18  C   UNK N   1      34.673  17.213   9.248  0.00  0.00     0.065 A 
HETATM   19  C   UNK N   1      34.618  18.222   8.291  0.00  0.00     0.037 A 
HETATM   20  C   UNK N   1      33.780  18.079   7.183  0.00  0.00     0.015 A 
BRANCH  18  21
HETATM   21  O   UNK N   1      35.479  17.338  10.314  0.00  0.00    -0.361 OA
HETATM   22  H   UNK N   1      36.396  17.165  10.232  0.00  0.00     0.217 HD
ENDBRANCH  18  21
ENDBRANCH  12  15
ENDBRANCH   1  12
TORSDOF 5
ENDMDL
MODEL 6
REMARK VINA RESULT:      -6.8     10.562     13.798
REMARK  5 active torsions:
REMARK  status: ('A' for Active; 'I' for Inactive)
REMARK    1  A    between atoms: C_3  and  O_7 
REMARK    2  A    between atoms: C_6  and  C_8 
REMARK    3  A    between atoms: C_8  and  C_9 
REMARK    4  A    between atoms: C_9  and  C_10 
REMARK    5  A    between atoms: C_17  and  O_20 
ROOT
HETATM    1  C   UNK N   1      28.968  17.137   5.598  0.00  0.00    -0.019 C 
HETATM    2  C   UNK N   1      28.608  15.898   5.153  0.00  0.00    -0.018 C 
HETATM    3  C   UNK N   1      27.392  15.114   4.814  0.00  0.00     0.037 C 
ENDROOT
BRANCH   1   4
HETATM    4  C   UNK N   1      30.492  17.221   5.734  0.00  0.00    -0.025 A 
HETATM    5  C   UNK N   1      31.087  17.098   7.018  0.00  0.00     0.015 A 
HETATM    6  C   UNK N   1      32.470  17.172   7.200  0.00  0.00     0.037 A 
HETATM    7  C   UNK N   1      33.301  17.372   6.102  0.00  0.00     0.065 A 
HETATM    8  C   UNK N   1      32.747  17.491   4.831  0.00  0.00     0.037 A 
HETATM    9  C   UNK N   1      31.362  17.410   4.663  0.00  0.00     0.015 A 
BRANCH   7  10
HETATM   10  O   UNK N   1      34.630  17.450   6.266  0.00  0.00    -0.361 OA
HETATM   11  H   UNK N   1      35.123  16.680   6.472  0.00  0.00     0.217 HD
ENDBRANCH   7  10
ENDBRANCH   1   4
BRANCH   1  12
HETATM   12  C   UNK N   1      27.951  18.304   5.934  0.00  0.00    -0.019 C 
HETATM   13  C   UNK N   1      27.755  18.827   7.180  0.00  0.00    -0.018 C 
HETATM   14  C   UNK N   1      28.234  18.664   8.577  0.00  0.00     0.037 C 
BRANCH  12  15
HETATM   15  C   UNK N   1      27.033  19.000   4.924  0.00  0.00    -0.025 A 
HETATM   16  C   UNK N   1      27.437  20.030   4.080  0.00  0.00     0.015 A 
HETATM   17  C   UNK N   1      26.569  20.633   3.167  0.00  0.00     0.037 A 
HETATM   18  C   UNK N   1      25.245  20.211   3.085  0.00  0.00     0.065 A 
HETATM   19  C   UNK N   1      24.794  19.190   3.916  0.00  0.00     0.037 A 
HETATM   20  C   UNK N   1      25.675  18.595   4.822  0.00  0.00     0.015 A 
BRANCH  18  21
HETATM   21  O   UNK N   1      24.407  20.786   2.208  0.00  0.00    -0.361 OA
HETATM   22  H   UNK N   1      23.517  20.951   2.449  0.00  0.00     0.217 HD
ENDBRANCH  18  21
ENDBRANCH  12  15
ENDBRANCH   1  12
TORSDOF 5
ENDMDL
MODEL 7
REMARK VINA RESULT:      -6.8      8.011     11.390
REMARK  5 active torsions:
REMARK  status: ('A' for Active; 'I' for Inactive)
REMARK    1  A    between atoms: C_3  and  O_7 
REMARK    2  A    between atoms: C_6  and  C_8 
REMARK    3  A    between atoms: C_8  and  C_9 
REMARK    4  A    between atoms: C_9  and  C_10 
REMARK    5  A    between atoms: C_17  and  O_20 
ROOT
HETATM    1  C   UNK N   1      31.938  16.877   5.692  0.00  0.00    -0.019 C 
HETATM    2  C   UNK N   1      32.736  16.973   4.588  0.00  0.00    -0.018 C 
HETATM    3  C   UNK N   1      32.643  16.952   3.105  0.00  0.00     0.037 C 
ENDROOT
BRANCH   1   4
HETATM    4  C   UNK N   1      32.789  16.974   6.962  0.00  0.00    -0.025 A 
HETATM    5  C   UNK N   1      32.626  16.005   7.988  0.00  0.00     0.015 A 
HETATM    6  C   UNK N   1      33.371  16.049   9.168  0.00  0.00     0.037 A 
HETATM    7  C   UNK N   1      34.303  17.064   9.359  0.00  0.00     0.065 A 
HETATM    8  C   UNK N   1      34.489  18.024   8.369  0.00  0.00     0.037 A 
HETATM    9  C   UNK N   1      33.739  17.965   7.191  0.00  0.00     0.015 A 
BRANCH   7  10
HETATM   10  O   UNK N   1      35.020  17.119  10.492  0.00  0.00    -0.361 OA
HETATM   11  H   UNK N   1      34.679  16.744  11.281  0.00  0.00     0.217 HD
ENDBRANCH   7  10
ENDBRANCH   1   4
BRANCH   1  12
HETATM   12  C   UNK N   1      30.367  16.681   5.653  0.00  0.00    -0.019 C 
HETATM   13  C   UNK N   1      29.737  15.530   5.275  0.00  0.00    -0.018 C 
HETATM   14  C   UNK N   1      30.053  14.156   4.803  0.00  0.00     0.037 C 
BRANCH  12  15
HETATM   15  C   UNK N   1      29.329  17.750   6.011  0.00  0.00    -0.025 A 
HETATM   16  C   UNK N   1      28.609  18.485   5.073  0.00  0.00     0.015 A 
HETATM   17  C   UNK N   1      27.665  19.447   5.442  0.00  0.00     0.037 A 
HETATM   18  C   UNK N   1      27.424  19.703   6.789  0.00  0.00     0.065 A 
HETATM   19  C   UNK N   1      28.129  18.999   7.761  0.00  0.00     0.037 A 
HETATM   20  C   UNK N   1      29.067  18.038   7.376  0.00  0.00     0.015 A 
BRANCH  18  21
HETATM   21  O   UNK N   1      26.517  20.625   7.148  0.00  0.00    -0.361 OA
HETATM   22  H   UNK N   1      25.990  21.042   6.496  0.00  0.00     0.217 HD
ENDBRANCH  18  21
ENDBRANCH  12  15
ENDBRANCH   1  12
TORSDOF 5
ENDMDL
MODEL 8
REMARK VINA RESULT:      -6.7     13.507     16.151
REMARK  5 active torsions:
REMARK  status: ('A' for Active; 'I' for Inactive)
REMARK    1  A    between atoms: C_3  and  O_7 
REMARK    2  A    between atoms: C_6  and  C_8 
REMARK    3  A    between atoms: C_8  and  C_9 
REMARK    4  A    between atoms: C_9  and  C_10 
REMARK    5  A    between atoms: C_17  and  O_20 
ROOT
HETATM    1  C   UNK N   1      21.590  13.072   7.153  0.00  0.00    -0.019 C 
HETATM    2  C   UNK N   1      20.703  12.504   6.284  0.00  0.00    -0.018 C 
HETATM    3  C   UNK N   1      20.385  11.186   5.674  0.00  0.00     0.037 C 
ENDROOT
BRANCH   1   4
HETATM    4  C   UNK N   1      21.298  14.569   7.294  0.00  0.00    -0.025 A 
HETATM    5  C   UNK N   1      21.852  15.481   6.356  0.00  0.00     0.015 A 
HETATM    6  C   UNK N   1      21.622  16.856   6.439  0.00  0.00     0.037 A 
HETATM    7  C   UNK N   1      20.830  17.362   7.466  0.00  0.00     0.065 A 
HETATM    8  C   UNK N   1      20.269  16.493   8.396  0.00  0.00     0.037 A 
HETATM    9  C   UNK N   1      20.504  15.119   8.297  0.00  0.00     0.015 A 
BRANCH   7  10
HETATM   10  O   UNK N   1      20.607  18.682   7.558  0.00  0.00    -0.361 OA
HETATM   11  H   UNK N   1      20.644  19.106   8.393  0.00  0.00     0.217 HD
ENDBRANCH   7  10
ENDBRANCH   1   4
BRANCH   1  12
HETATM   12  C   UNK N   1      22.753  12.291   7.892  0.00  0.00    -0.019 C 
HETATM   13  C   UNK N   1      23.728  11.572   7.261  0.00  0.00    -0.018 C 
HETATM   14  C   UNK N   1      24.162  11.191   5.891  0.00  0.00     0.037 C 
BRANCH  12  15
HETATM   15  C   UNK N   1      22.946  12.211   9.410  0.00  0.00    -0.025 A 
HETATM   16  C   UNK N   1      21.903  12.222  10.331  0.00  0.00     0.015 A 
HETATM   17  C   UNK N   1      22.121  12.139  11.709  0.00  0.00     0.037 A 
HETATM   18  C   UNK N   1      23.419  12.050  12.202  0.00  0.00     0.065 A 
HETATM   19  C   UNK N   1      24.494  12.046  11.317  0.00  0.00     0.037 A 
HETATM   20  C   UNK N   1      24.259  12.125   9.943  0.00  0.00     0.015 A 
BRANCH  18  21
HETATM   21  O   UNK N   1      23.634  11.969  13.524  0.00  0.00    -0.361 OA
HETATM   22  H   UNK N   1      24.499  12.077  13.866  0.00  0.00     0.217 HD
ENDBRANCH  18  21
ENDBRANCH  12  15
ENDBRANCH   1  12
TORSDOF 5
ENDMDL
MODEL 9
REMARK VINA RESULT:      -6.6      9.706     13.317
REMARK  5 active torsions:
REMARK  status: ('A' for Active; 'I' for Inactive)
REMARK    1  A    between atoms: C_3  and  O_7 
REMARK    2  A    between atoms: C_6  and  C_8 
REMARK    3  A    between atoms: C_8  and  C_9 
REMARK    4  A    between atoms: C_9  and  C_10 
REMARK    5  A    between atoms: C_17  and  O_20 
ROOT
HETATM    1  C   UNK N   1      28.373  17.693   6.439  0.00  0.00    -0.019 C 
HETATM    2  C   UNK N   1      27.805  17.914   7.661  0.00  0.00    -0.018 C 
HETATM    3  C   UNK N   1      27.988  17.548   9.090  0.00  0.00     0.037 C 
ENDROOT
BRANCH   1   4
HETATM    4  C   UNK N   1      27.583  18.430   5.354  0.00  0.00    -0.025 A 
HETATM    5  C   UNK N   1      27.829  19.812   5.127  0.00  0.00     0.015 A 
HETATM    6  C   UNK N   1      27.134  20.534   4.155  0.00  0.00     0.037 A 
HETATM    7  C   UNK N   1      26.171  19.898   3.378  0.00  0.00     0.065 A 
HETATM    8  C   UNK N   1      25.913  18.544   3.573  0.00  0.00     0.037 A 
HETATM    9  C   UNK N   1      26.619  17.833   4.546  0.00  0.00     0.015 A 
BRANCH   7  10
HETATM   10  O   UNK N   1      25.494  20.584   2.445  0.00  0.00    -0.361 OA
HETATM   11  H   UNK N   1      25.804  20.603   1.560  0.00  0.00     0.217 HD
ENDBRANCH   7  10
ENDBRANCH   1   4
BRANCH   1  12
HETATM   12  C   UNK N   1      29.653  16.794   6.191  0.00  0.00    -0.019 C 
HETATM   13  C   UNK N   1      29.628  15.542   5.647  0.00  0.00    -0.018 C 
HETATM   14  C   UNK N   1      28.662  14.545   5.114  0.00  0.00     0.037 C 
BRANCH  12  15
HETATM   15  C   UNK N   1      31.094  17.184   6.538  0.00  0.00    -0.025 A 
HETATM   16  C   UNK N   1      32.145  17.183   5.625  0.00  0.00     0.015 A 
HETATM   17  C   UNK N   1      33.444  17.553   5.981  0.00  0.00     0.037 A 
HETATM   18  C   UNK N   1      33.724  17.934   7.290  0.00  0.00     0.065 A 
HETATM   19  C   UNK N   1      32.706  17.940   8.239  0.00  0.00     0.037 A 
HETATM   20  C   UNK N   1      31.411  17.570   7.867  0.00  0.00     0.015 A 
BRANCH  18  21
HETATM   21  O   UNK N   1      34.970  18.292   7.637  0.00  0.00    -0.361 OA
HETATM   22  H   UNK N   1      35.169  19.191   7.808  0.00  0.00     0.217 HD
ENDBRANCH  18  21
ENDBRANCH  12  15
ENDBRANCH   1  12
TORSDOF 5
ENDMDL
