MODEL 1
REMARK VINA RESULT:      -8.0      0.000      0.000
REMARK  3 active torsions:
REMARK  status: ('A' for Active; 'I' for Inactive)
REMARK    1  A    between atoms: C_16  and  C_4 
REMARK    2  A    between atoms: C_9  and  O_22 
REMARK    3  A    between atoms: C_26  and  C_16 
ROOT
HETATM    1  C   UNK N   1      27.470  26.607  -4.603  0.00  0.00    -0.023 C 
HETATM    2  C   UNK N   1      27.577  25.645  -5.815  0.00  0.00    -0.000 C 
HETATM    3  C   UNK N   1      30.440  23.460  -5.336  0.00  0.00     0.004 A 
HETATM    4  C   UNK N   1      26.934  27.891  -5.278  0.00  0.00     0.028 C 
HETATM    5  C   UNK N   1      27.901  24.227  -5.311  0.00  0.00    -0.002 C 
HETATM    6  C   UNK N   1      29.290  24.186  -4.552  0.00  0.00     0.035 C 
HETATM    7  C   UNK N   1      29.861  22.231  -6.010  0.00  0.00    -0.064 A 
HETATM    8  C   UNK N   1      28.787  26.729  -3.830  0.00  0.00     0.042 C 
HETATM    9  C   UNK N   1      29.792  25.617  -4.146  0.00  0.00     0.124 C 
HETATM   10  C   UNK N   1      25.812  27.313  -6.207  0.00  0.00    -0.002 C 
HETATM   11  C   UNK N   1      31.576  23.136  -4.372  0.00  0.00    -0.009 A 
HETATM   12  C   UNK N   1      26.254  25.868  -6.545  0.00  0.00     0.011 C 
HETATM   13  C   UNK N   1      30.256  20.981  -5.726  0.00  0.00     0.058 A 
HETATM   14  C   UNK N   1      27.595  23.072  -6.289  0.00  0.00     0.010 C 
HETATM   15  C   UNK N   1      31.966  21.887  -4.086  0.00  0.00     0.052 A 
HETATM   16  C   UNK N   1      31.307  20.743  -4.729  0.00  0.00     0.171 A 
HETATM   17  C   UNK N   1      28.782  22.460  -7.008  0.00  0.00     0.036 C 
HETATM   18  O   UNK N   1      31.632  19.604  -4.438  0.00  0.00    -0.289 OA
HETATM   19  C   UNK N   1      26.442  26.134  -3.556  0.00  0.00     0.017 C 
HETATM   20  C   UNK N   1      31.015  24.344  -6.441  0.00  0.00     0.025 C 
HETATM   21  C   UNK N   1      27.998  28.497  -6.200  0.00  0.00     0.025 C 
HETATM   22  C   UNK N   1      24.438  27.166  -5.563  0.00  0.00     0.011 C 
ENDROOT
BRANCH   4  23
HETATM   23  C   UNK N   1      26.566  28.995  -4.284  0.00  0.00     0.136 C 
HETATM   24  O   UNK N   1      25.877  28.714  -3.312  0.00  0.00    -0.297 OA
BRANCH  23  25
HETATM   25  C   UNK N   1      27.021  30.413  -4.446  0.00  0.00     0.074 C 
HETATM   26  C   UNK N   1      27.246  31.060  -3.093  0.00  0.00     0.013 C 
ENDBRANCH  23  25
ENDBRANCH   4  23
BRANCH   9  27
HETATM   27  O   UNK N   1      30.811  25.589  -3.193  0.00  0.00    -0.395 OA
HETATM   28  H   UNK N   1      31.497  26.274  -3.196  0.00  0.00     0.210 HD
ENDBRANCH   9  27
TORSDOF 3
ENDMDL
MODEL 2
REMARK VINA RESULT:      -7.7     15.176     18.564
REMARK  3 active torsions:
REMARK  status: ('A' for Active; 'I' for Inactive)
REMARK    1  A    between atoms: C_16  and  C_4 
REMARK    2  A    between atoms: C_9  and  O_22 
REMARK    3  A    between atoms: C_26  and  C_16 
ROOT
HETATM    1  C   UNK N   1      33.334  15.275   7.370  0.00  0.00    -0.023 C 
HETATM    2  C   UNK N   1      34.882  15.267   7.474  0.00  0.00    -0.000 C 
HETATM    3  C   UNK N   1      35.828  14.474  10.891  0.00  0.00     0.004 A 
HETATM    4  C   UNK N   1      33.103  16.394   6.328  0.00  0.00     0.028 C 
HETATM    5  C   UNK N   1      35.327  14.060   8.319  0.00  0.00    -0.002 C 
HETATM    6  C   UNK N   1      34.756  14.143   9.793  0.00  0.00     0.035 C 
HETATM    7  C   UNK N   1      37.098  13.711  10.568  0.00  0.00    -0.064 A 
HETATM    8  C   UNK N   1      32.653  15.444   8.731  0.00  0.00     0.042 C 
HETATM    9  C   UNK N   1      33.580  15.175   9.921  0.00  0.00     0.124 C 
HETATM   10  C   UNK N   1      34.183  16.046   5.248  0.00  0.00    -0.002 C 
HETATM   11  C   UNK N   1      35.259  14.138  12.265  0.00  0.00    -0.009 A 
HETATM   12  C   UNK N   1      35.322  15.327   6.012  0.00  0.00     0.011 C 
HETATM   13  C   UNK N   1      37.621  12.777  11.377  0.00  0.00     0.058 A 
HETATM   14  C   UNK N   1      36.799  13.622   8.155  0.00  0.00     0.010 C 
HETATM   15  C   UNK N   1      35.780  13.203  13.069  0.00  0.00     0.052 A 
HETATM   16  C   UNK N   1      36.973  12.453  12.654  0.00  0.00     0.171 A 
HETATM   17  C   UNK N   1      37.752  14.017   9.268  0.00  0.00     0.036 C 
HETATM   18  O   UNK N   1      37.423  11.572  13.367  0.00  0.00    -0.289 OA
HETATM   19  C   UNK N   1      32.768  13.954   6.809  0.00  0.00     0.017 C 
HETATM   20  C   UNK N   1      36.191  15.958  10.896  0.00  0.00     0.025 C 
HETATM   21  C   UNK N   1      33.490  17.758   6.912  0.00  0.00     0.025 C 
HETATM   22  C   UNK N   1      33.742  15.058   4.174  0.00  0.00     0.011 C 
ENDROOT
BRANCH   4  23
HETATM   23  C   UNK N   1      31.643  16.528   5.889  0.00  0.00     0.136 C 
HETATM   24  O   UNK N   1      31.331  16.194   4.754  0.00  0.00    -0.297 OA
BRANCH  23  25
HETATM   25  C   UNK N   1      30.570  17.047   6.797  0.00  0.00     0.074 C 
HETATM   26  C   UNK N   1      29.204  16.588   6.326  0.00  0.00     0.013 C 
ENDBRANCH  23  25
ENDBRANCH   4  23
BRANCH   9  27
HETATM   27  O   UNK N   1      32.842  15.021  11.095  0.00  0.00    -0.395 OA
HETATM   28  H   UNK N   1      33.283  15.073  11.957  0.00  0.00     0.210 HD
ENDBRANCH   9  27
TORSDOF 3
ENDMDL
MODEL 3
REMARK VINA RESULT:      -7.7      1.621      2.155
REMARK  3 active torsions:
REMARK  status: ('A' for Active; 'I' for Inactive)
REMARK    1  A    between atoms: C_16  and  C_4 
REMARK    2  A    between atoms: C_9  and  O_22 
REMARK    3  A    between atoms: C_26  and  C_16 
ROOT
HETATM    1  C   UNK N   1      27.149  25.566  -4.969  0.00  0.00    -0.023 C 
HETATM    2  C   UNK N   1      27.118  25.179  -6.471  0.00  0.00    -0.000 C 
HETATM    3  C   UNK N   1      29.270  22.299  -6.991  0.00  0.00     0.004 A 
HETATM    4  C   UNK N   1      27.023  27.105  -5.047  0.00  0.00     0.028 C 
HETATM    5  C   UNK N   1      27.021  23.649  -6.598  0.00  0.00    -0.002 C 
HETATM    6  C   UNK N   1      28.277  22.933  -5.954  0.00  0.00     0.035 C 
HETATM    7  C   UNK N   1      28.461  21.650  -8.097  0.00  0.00    -0.064 A 
HETATM    8  C   UNK N   1      28.376  25.007  -4.243  0.00  0.00     0.042 C 
HETATM    9  C   UNK N   1      29.089  23.888  -5.008  0.00  0.00     0.124 C 
HETATM   10  C   UNK N   1      25.881  27.273  -6.106  0.00  0.00    -0.002 C 
HETATM   11  C   UNK N   1      30.192  21.322  -6.270  0.00  0.00    -0.009 A 
HETATM   12  C   UNK N   1      25.968  26.024  -7.016  0.00  0.00     0.011 C 
HETATM   13  C   UNK N   1      28.496  20.334  -8.359  0.00  0.00     0.058 A 
HETATM   14  C   UNK N   1      26.521  23.111  -7.957  0.00  0.00     0.010 C 
HETATM   15  C   UNK N   1      30.223  20.009  -6.530  0.00  0.00     0.052 A 
HETATM   16  C   UNK N   1      29.355  19.443  -7.570  0.00  0.00     0.171 A 
HETATM   17  C   UNK N   1      27.574  22.541  -8.890  0.00  0.00     0.036 C 
HETATM   18  O   UNK N   1      29.351  18.241  -7.778  0.00  0.00    -0.289 OA
HETATM   19  C   UNK N   1      25.943  25.010  -4.185  0.00  0.00     0.017 C 
HETATM   20  C   UNK N   1      30.152  23.360  -7.649  0.00  0.00     0.025 C 
HETATM   21  C   UNK N   1      28.287  27.717  -5.662  0.00  0.00     0.025 C 
HETATM   22  C   UNK N   1      24.462  27.259  -5.548  0.00  0.00     0.011 C 
ENDROOT
BRANCH   4  23
HETATM   23  C   UNK N   1      26.860  27.774  -3.679  0.00  0.00     0.136 C 
HETATM   24  O   UNK N   1      26.220  27.198  -2.809  0.00  0.00    -0.297 OA
BRANCH  23  25
HETATM   25  C   UNK N   1      27.458  29.108  -3.356  0.00  0.00     0.074 C 
HETATM   26  C   UNK N   1      26.485  30.224  -3.684  0.00  0.00     0.013 C 
ENDBRANCH  23  25
ENDBRANCH   4  23
BRANCH   9  27
HETATM   27  O   UNK N   1      29.975  23.206  -4.173  0.00  0.00    -0.395 OA
HETATM   28  H   UNK N   1      30.357  22.361  -4.456  0.00  0.00     0.210 HD
ENDBRANCH   9  27
TORSDOF 3
ENDMDL
MODEL 4
REMARK VINA RESULT:      -7.6     12.718     16.356
REMARK  3 active torsions:
REMARK  status: ('A' for Active; 'I' for Inactive)
REMARK    1  A    between atoms: C_16  and  C_4 
REMARK    2  A    between atoms: C_9  and  O_22 
REMARK    3  A    between atoms: C_26  and  C_16 
ROOT
HETATM    1  C   UNK N   1      33.037  16.271   7.625  0.00  0.00    -0.023 C 
HETATM    2  C   UNK N   1      32.135  15.941   6.406  0.00  0.00    -0.000 C 
HETATM    3  C   UNK N   1      29.068  17.872   6.651  0.00  0.00     0.004 A 
HETATM    4  C   UNK N   1      33.718  14.907   7.879  0.00  0.00     0.028 C 
HETATM    5  C   UNK N   1      31.521  17.243   5.862  0.00  0.00    -0.002 C 
HETATM    6  C   UNK N   1      30.608  17.950   6.945  0.00  0.00     0.035 C 
HETATM    7  C   UNK N   1      28.851  18.081   5.165  0.00  0.00    -0.064 A 
HETATM    8  C   UNK N   1      32.251  16.882   8.789  0.00  0.00     0.042 C 
HETATM    9  C   UNK N   1      30.865  17.400   8.394  0.00  0.00     0.124 C 
HETATM   10  C   UNK N   1      34.110  14.475   6.425  0.00  0.00    -0.002 C 
HETATM   11  C   UNK N   1      28.341  18.899   7.513  0.00  0.00    -0.009 A 
HETATM   12  C   UNK N   1      33.071  15.148   5.495  0.00  0.00     0.011 C 
HETATM   13  C   UNK N   1      28.156  19.112   4.660  0.00  0.00     0.058 A 
HETATM   14  C   UNK N   1      30.986  17.188   4.414  0.00  0.00     0.010 C 
HETATM   15  C   UNK N   1      27.651  19.929   7.008  0.00  0.00     0.052 A 
HETATM   16  C   UNK N   1      27.546  20.105   5.554  0.00  0.00     0.171 A 
HETATM   17  C   UNK N   1      29.481  17.092   4.250  0.00  0.00     0.036 C 
HETATM   18  O   UNK N   1      26.954  21.066   5.093  0.00  0.00    -0.289 OA
HETATM   19  C   UNK N   1      34.124  17.314   7.296  0.00  0.00     0.017 C 
HETATM   20  C   UNK N   1      28.495  16.498   6.995  0.00  0.00     0.025 C 
HETATM   21  C   UNK N   1      32.696  13.881   8.382  0.00  0.00     0.025 C 
HETATM   22  C   UNK N   1      35.464  14.977   5.934  0.00  0.00     0.011 C 
ENDROOT
BRANCH   4  23
HETATM   23  C   UNK N   1      34.813  14.962   8.948  0.00  0.00     0.136 C 
HETATM   24  O   UNK N   1      35.975  14.768   8.618  0.00  0.00    -0.297 OA
BRANCH  23  25
HETATM   25  C   UNK N   1      34.522  15.251  10.389  0.00  0.00     0.074 C 
HETATM   26  C   UNK N   1      35.369  16.407  10.884  0.00  0.00     0.013 C 
ENDBRANCH  23  25
ENDBRANCH   4  23
BRANCH   9  27
HETATM   27  O   UNK N   1      30.344  18.224   9.391  0.00  0.00    -0.395 OA
HETATM   28  H   UNK N   1      29.388  18.376   9.446  0.00  0.00     0.210 HD
ENDBRANCH   9  27
TORSDOF 3
ENDMDL
MODEL 5
REMARK VINA RESULT:      -7.6     12.321     14.613
REMARK  3 active torsions:
REMARK  status: ('A' for Active; 'I' for Inactive)
REMARK    1  A    between atoms: C_16  and  C_4 
REMARK    2  A    between atoms: C_9  and  O_22 
REMARK    3  A    between atoms: C_26  and  C_16 
ROOT
HETATM    1  C   UNK N   1      28.117  16.425   4.487  0.00  0.00    -0.023 C 
HETATM    2  C   UNK N   1      28.349  16.291   6.015  0.00  0.00    -0.000 C 
HETATM    3  C   UNK N   1      31.907  16.554   6.695  0.00  0.00     0.004 A 
HETATM    4  C   UNK N   1      26.918  15.473   4.275  0.00  0.00     0.028 C 
HETATM    5  C   UNK N   1      29.384  17.337   6.466  0.00  0.00    -0.002 C 
HETATM    6  C   UNK N   1      30.781  17.112   5.756  0.00  0.00     0.035 C 
HETATM    7  C   UNK N   1      31.797  17.244   8.041  0.00  0.00    -0.064 A 
HETATM    8  C   UNK N   1      29.382  16.139   3.673  0.00  0.00     0.042 C 
HETATM    9  C   UNK N   1      30.670  16.173   4.502  0.00  0.00     0.124 C 
HETATM   10  C   UNK N   1      25.987  15.867   5.473  0.00  0.00    -0.002 C 
HETATM   11  C   UNK N   1      33.263  16.756   6.027  0.00  0.00    -0.009 A 
HETATM   12  C   UNK N   1      26.934  16.383   6.584  0.00  0.00     0.011 C 
HETATM   13  C   UNK N   1      32.766  18.019   8.552  0.00  0.00     0.058 A 
HETATM   14  C   UNK N   1      29.403  17.668   7.974  0.00  0.00     0.010 C 
HETATM   15  C   UNK N   1      34.227  17.533   6.537  0.00  0.00     0.052 A 
HETATM   16  C   UNK N   1      34.018  18.227   7.813  0.00  0.00     0.171 A 
HETATM   17  C   UNK N   1      30.526  17.055   8.789  0.00  0.00     0.036 C 
HETATM   18  O   UNK N   1      34.878  18.968   8.257  0.00  0.00    -0.289 OA
HETATM   19  C   UNK N   1      27.696  17.850   4.072  0.00  0.00     0.017 C 
HETATM   20  C   UNK N   1      31.741  15.056   6.949  0.00  0.00     0.025 C 
HETATM   21  C   UNK N   1      27.340  14.018   4.507  0.00  0.00     0.025 C 
HETATM   22  C   UNK N   1      25.025  17.019   5.205  0.00  0.00     0.011 C 
ENDROOT
BRANCH   4  23
HETATM   23  C   UNK N   1      26.345  15.520   2.856  0.00  0.00     0.136 C 
HETATM   24  O   UNK N   1      25.932  16.585   2.417  0.00  0.00    -0.297 OA
BRANCH  23  25
HETATM   25  C   UNK N   1      26.274  14.312   1.973  0.00  0.00     0.074 C 
HETATM   26  C   UNK N   1      24.838  14.014   1.589  0.00  0.00     0.013 C 
ENDBRANCH  23  25
ENDBRANCH   4  23
BRANCH   9  27
HETATM   27  O   UNK N   1      31.789  16.236   3.671  0.00  0.00    -0.395 OA
HETATM   28  H   UNK N   1      32.356  15.457   3.561  0.00  0.00     0.210 HD
ENDBRANCH   9  27
TORSDOF 3
ENDMDL
MODEL 6
REMARK VINA RESULT:      -7.5     17.121     21.086
REMARK  3 active torsions:
REMARK  status: ('A' for Active; 'I' for Inactive)
REMARK    1  A    between atoms: C_16  and  C_4 
REMARK    2  A    between atoms: C_9  and  O_22 
REMARK    3  A    between atoms: C_26  and  C_16 
ROOT
HETATM    1  C   UNK N   1      36.152  13.210  11.642  0.00  0.00    -0.023 C 
HETATM    2  C   UNK N   1      35.244  12.735  10.478  0.00  0.00    -0.000 C 
HETATM    3  C   UNK N   1      33.814  15.643   8.835  0.00  0.00     0.004 A 
HETATM    4  C   UNK N   1      35.934  12.085  12.679  0.00  0.00     0.028 C 
HETATM    5  C   UNK N   1      35.488  13.626   9.247  0.00  0.00    -0.002 C 
HETATM    6  C   UNK N   1      35.120  15.137   9.545  0.00  0.00     0.035 C 
HETATM    7  C   UNK N   1      33.780  15.074   7.430  0.00  0.00    -0.064 A 
HETATM    8  C   UNK N   1      35.833  14.639  12.091  0.00  0.00     0.042 C 
HETATM    9  C   UNK N   1      34.995  15.430  11.083  0.00  0.00     0.124 C 
HETATM   10  C   UNK N   1      36.035  10.805  11.782  0.00  0.00    -0.002 C 
HETATM   11  C   UNK N   1      33.785  17.167   8.867  0.00  0.00    -0.009 A 
HETATM   12  C   UNK N   1      35.578  11.248  10.370  0.00  0.00     0.011 C 
HETATM   13  C   UNK N   1      33.802  15.837   6.327  0.00  0.00     0.058 A 
HETATM   14  C   UNK N   1      35.041  13.045   7.888  0.00  0.00     0.010 C 
HETATM   15  C   UNK N   1      33.811  17.927   7.765  0.00  0.00     0.052 A 
HETATM   16  C   UNK N   1      33.850  17.301   6.437  0.00  0.00     0.171 A 
HETATM   17  C   UNK N   1      33.751  13.592   7.307  0.00  0.00     0.036 C 
HETATM   18  O   UNK N   1      33.917  17.992   5.435  0.00  0.00    -0.289 OA
HETATM   19  C   UNK N   1      37.645  13.244  11.257  0.00  0.00     0.017 C 
HETATM   20  C   UNK N   1      32.556  15.146   9.547  0.00  0.00     0.025 C 
HETATM   21  C   UNK N   1      34.501  12.127  13.224  0.00  0.00     0.025 C 
HETATM   22  C   UNK N   1      37.442  10.251  11.587  0.00  0.00     0.011 C 
ENDROOT
BRANCH   4  23
HETATM   23  C   UNK N   1      36.847  12.197  13.903  0.00  0.00     0.136 C 
HETATM   24  O   UNK N   1      37.994  11.776  13.828  0.00  0.00    -0.297 OA
BRANCH  23  25
HETATM   25  C   UNK N   1      36.397  12.809  15.194  0.00  0.00     0.074 C 
HETATM   26  C   UNK N   1      37.065  14.153  15.410  0.00  0.00     0.013 C 
ENDBRANCH  23  25
ENDBRANCH   4  23
BRANCH   9  27
HETATM   27  O   UNK N   1      35.017  16.792  11.384  0.00  0.00    -0.395 OA
HETATM   28  H   UNK N   1      34.406  17.398  10.937  0.00  0.00     0.210 HD
ENDBRANCH   9  27
TORSDOF 3
ENDMDL
MODEL 7
REMARK VINA RESULT:      -7.4      2.846      6.752
REMARK  3 active torsions:
REMARK  status: ('A' for Active; 'I' for Inactive)
REMARK    1  A    between atoms: C_16  and  C_4 
REMARK    2  A    between atoms: C_9  and  O_22 
REMARK    3  A    between atoms: C_26  and  C_16 
ROOT
HETATM    1  C   UNK N   1      26.633  24.747  -6.432  0.00  0.00    -0.023 C 
HETATM    2  C   UNK N   1      28.010  25.454  -6.325  0.00  0.00    -0.000 C 
HETATM    3  C   UNK N   1      27.562  28.667  -4.691  0.00  0.00     0.004 A 
HETATM    4  C   UNK N   1      26.776  24.001  -7.778  0.00  0.00     0.028 C 
HETATM    5  C   UNK N   1      28.147  26.091  -4.932  0.00  0.00    -0.002 C 
HETATM    6  C   UNK N   1      27.033  27.190  -4.685  0.00  0.00     0.035 C 
HETATM    7  C   UNK N   1      28.894  28.705  -3.969  0.00  0.00    -0.064 A 
HETATM    8  C   UNK N   1      25.459  25.722  -6.301  0.00  0.00     0.042 C 
HETATM    9  C   UNK N   1      25.849  27.081  -5.711  0.00  0.00     0.124 C 
HETATM   10  C   UNK N   1      28.213  23.391  -7.649  0.00  0.00    -0.002 C 
HETATM   11  C   UNK N   1      26.512  29.577  -4.062  0.00  0.00    -0.009 A 
HETATM   12  C   UNK N   1      28.991  24.350  -6.715  0.00  0.00     0.011 C 
HETATM   13  C   UNK N   1      29.102  29.406  -2.844  0.00  0.00     0.058 A 
HETATM   14  C   UNK N   1      29.584  26.428  -4.476  0.00  0.00     0.010 C 
HETATM   15  C   UNK N   1      26.720  30.274  -2.937  0.00  0.00     0.052 A 
HETATM   16  C   UNK N   1      28.018  30.202  -2.254  0.00  0.00     0.171 A 
HETATM   17  C   UNK N   1      29.993  27.887  -4.547  0.00  0.00     0.036 C 
HETATM   18  O   UNK N   1      28.194  30.802  -1.207  0.00  0.00    -0.289 OA
HETATM   19  C   UNK N   1      26.408  23.710  -5.313  0.00  0.00     0.017 C 
HETATM   20  C   UNK N   1      27.812  29.172  -6.112  0.00  0.00     0.025 C 
HETATM   21  C   UNK N   1      26.824  24.997  -8.942  0.00  0.00     0.025 C 
HETATM   22  C   UNK N   1      28.289  22.028  -6.970  0.00  0.00     0.011 C 
ENDROOT
BRANCH   4  23
HETATM   23  C   UNK N   1      25.605  23.062  -8.083  0.00  0.00     0.136 C 
HETATM   24  O   UNK N   1      24.583  23.526  -8.570  0.00  0.00    -0.297 OA
BRANCH  23  25
HETATM   25  C   UNK N   1      25.659  21.590  -7.813  0.00  0.00     0.074 C 
HETATM   26  C   UNK N   1      24.438  21.145  -7.031  0.00  0.00     0.013 C 
ENDBRANCH  23  25
ENDBRANCH   4  23
BRANCH   9  27
HETATM   27  O   UNK N   1      24.715  27.790  -5.314  0.00  0.00    -0.395 OA
HETATM   28  H   UNK N   1      23.853  27.587  -5.709  0.00  0.00     0.210 HD
ENDBRANCH   9  27
TORSDOF 3
ENDMDL
MODEL 8
REMARK VINA RESULT:      -7.3     15.384     18.679
REMARK  3 active torsions:
REMARK  status: ('A' for Active; 'I' for Inactive)
REMARK    1  A    between atoms: C_16  and  C_4 
REMARK    2  A    between atoms: C_9  and  O_22 
REMARK    3  A    between atoms: C_26  and  C_16 
ROOT
HETATM    1  C   UNK N   1      33.173  15.552   7.692  0.00  0.00    -0.023 C 
HETATM    2  C   UNK N   1      33.868  14.178   7.877  0.00  0.00    -0.000 C 
HETATM    3  C   UNK N   1      35.728  14.206  10.997  0.00  0.00     0.004 A 
HETATM    4  C   UNK N   1      33.239  15.725   6.158  0.00  0.00     0.028 C 
HETATM    5  C   UNK N   1      33.715  13.723   9.339  0.00  0.00    -0.002 C 
HETATM    6  C   UNK N   1      34.408  14.739  10.337  0.00  0.00     0.035 C 
HETATM    7  C   UNK N   1      35.533  12.745  11.353  0.00  0.00    -0.064 A 
HETATM    8  C   UNK N   1      33.813  16.654   8.542  0.00  0.00     0.042 C 
HETATM    9  C   UNK N   1      34.713  16.124   9.663  0.00  0.00     0.124 C 
HETATM   10  C   UNK N   1      32.806  14.303   5.662  0.00  0.00    -0.002 C 
HETATM   11  C   UNK N   1      36.071  15.076  12.202  0.00  0.00    -0.009 A 
HETATM   12  C   UNK N   1      33.230  13.324   6.783  0.00  0.00     0.011 C 
HETATM   13  C   UNK N   1      35.579  12.281  12.611  0.00  0.00     0.058 A 
HETATM   14  C   UNK N   1      33.923  12.216   9.607  0.00  0.00     0.010 C 
HETATM   15  C   UNK N   1      36.113  14.612  13.458  0.00  0.00     0.052 A 
HETATM   16  C   UNK N   1      35.841  13.195  13.730  0.00  0.00     0.171 A 
HETATM   17  C   UNK N   1      35.247  11.815  10.228  0.00  0.00     0.036 C 
HETATM   18  O   UNK N   1      35.837  12.781  14.877  0.00  0.00    -0.289 OA
HETATM   19  C   UNK N   1      31.693  15.533   8.124  0.00  0.00     0.017 C 
HETATM   20  C   UNK N   1      36.910  14.275  10.032  0.00  0.00     0.025 C 
HETATM   21  C   UNK N   1      34.689  15.927   5.701  0.00  0.00     0.025 C 
HETATM   22  C   UNK N   1      31.304  14.095   5.500  0.00  0.00     0.011 C 
ENDROOT
BRANCH   4  23
HETATM   23  C   UNK N   1      32.469  16.946   5.647  0.00  0.00     0.136 C 
HETATM   24  O   UNK N   1      31.486  17.330   6.268  0.00  0.00    -0.297 OA
BRANCH  23  25
HETATM   25  C   UNK N   1      32.871  17.699   4.417  0.00  0.00     0.074 C 
HETATM   26  C   UNK N   1      32.246  17.079   3.182  0.00  0.00     0.013 C 
ENDBRANCH  23  25
ENDBRANCH   4  23
BRANCH   9  27
HETATM   27  O   UNK N   1      34.993  17.131  10.587  0.00  0.00    -0.395 OA
HETATM   28  H   UNK N   1      35.894  17.483  10.663  0.00  0.00     0.210 HD
ENDBRANCH   9  27
TORSDOF 3
ENDMDL
MODEL 9
REMARK VINA RESULT:      -7.2      1.577      2.383
REMARK  3 active torsions:
REMARK  status: ('A' for Active; 'I' for Inactive)
REMARK    1  A    between atoms: C_16  and  C_4 
REMARK    2  A    between atoms: C_9  and  O_22 
REMARK    3  A    between atoms: C_26  and  C_16 
ROOT
HETATM    1  C   UNK N   1      28.137  24.553  -4.626  0.00  0.00    -0.023 C 
HETATM    2  C   UNK N   1      29.041  24.141  -5.817  0.00  0.00    -0.000 C 
HETATM    3  C   UNK N   1      31.938  22.359  -4.539  0.00  0.00     0.004 A 
HETATM    4  C   UNK N   1      27.578  25.907  -5.120  0.00  0.00     0.028 C 
HETATM    5  C   UNK N   1      29.533  22.698  -5.606  0.00  0.00    -0.002 C 
HETATM    6  C   UNK N   1      30.403  22.569  -4.290  0.00  0.00     0.035 C 
HETATM    7  C   UNK N   1      32.109  21.406  -5.706  0.00  0.00    -0.064 A 
HETATM    8  C   UNK N   1      28.889  24.558  -3.292  0.00  0.00     0.042 C 
HETATM    9  C   UNK N   1      30.219  23.799  -3.330  0.00  0.00     0.124 C 
HETATM   10  C   UNK N   1      27.198  25.568  -6.601  0.00  0.00    -0.002 C 
HETATM   11  C   UNK N   1      32.591  21.860  -3.255  0.00  0.00    -0.009 A 
HETATM   12  C   UNK N   1      28.160  24.434  -7.030  0.00  0.00     0.011 C 
HETATM   13  C   UNK N   1      32.706  20.209  -5.596  0.00  0.00     0.058 A 
HETATM   14  C   UNK N   1      30.045  21.963  -6.865  0.00  0.00     0.010 C 
HETATM   15  C   UNK N   1      33.182  20.663  -3.146  0.00  0.00     0.052 A 
HETATM   16  C   UNK N   1      33.245  19.763  -4.305  0.00  0.00     0.171 A 
HETATM   17  C   UNK N   1      31.549  21.839  -7.013  0.00  0.00     0.036 C 
HETATM   18  O   UNK N   1      33.745  18.656  -4.196  0.00  0.00    -0.289 OA
HETATM   19  C   UNK N   1      26.960  23.581  -4.409  0.00  0.00     0.017 C 
HETATM   20  C   UNK N   1      32.631  23.665  -4.927  0.00  0.00     0.025 C 
HETATM   21  C   UNK N   1      28.693  26.958  -5.181  0.00  0.00     0.025 C 
HETATM   22  C   UNK N   1      25.799  25.000  -6.806  0.00  0.00     0.011 C 
ENDROOT
BRANCH   4  23
HETATM   23  C   UNK N   1      26.503  26.494  -4.202  0.00  0.00     0.136 C 
HETATM   24  O   UNK N   1      26.324  25.993  -3.100  0.00  0.00    -0.297 OA
BRANCH  23  25
HETATM   25  C   UNK N   1      25.657  27.666  -4.595  0.00  0.00     0.074 C 
HETATM   26  C   UNK N   1      26.006  28.881  -3.756  0.00  0.00     0.013 C 
ENDBRANCH  23  25
ENDBRANCH   4  23
BRANCH   9  27
HETATM   27  O   UNK N   1      30.687  23.558  -2.038  0.00  0.00    -0.395 OA
HETATM   28  H   UNK N   1      30.638  24.256  -1.366  0.00  0.00     0.210 HD
ENDBRANCH   9  27
TORSDOF 3
ENDMDL
