REMARK  9 active torsions:
REMARK  status: ('A' for Active; 'I' for Inactive)
REMARK    1  A    between atoms: C_13  and  C_18 
REMARK    2  A    between atoms: C_16  and  C_21 
REMARK    3  A    between atoms: C_18  and  C_16 
REMARK    4  A    between atoms: C_23  and  O_61 
REMARK    5  A    between atoms: C_24  and  O_62 
REMARK    6  A    between atoms: C_28  and  O_64 
REMARK    7  A    between atoms: C_34  and  O_35 
REMARK    8  A    between atoms: C_46  and  O_49 
REMARK    9  A    between atoms: C_47  and  O_48 
ROOT
HETATM    1  C   UNK N   1      -2.983   6.078   0.956  0.00  0.00     0.035 C 
HETATM    2  C   UNK N   1      -3.123   5.140  -0.241  0.00  0.00     0.187 C 
HETATM    3  C   UNK N   1      -4.327   6.749   1.307  0.00  0.00     0.004 C 
HETATM    4  N   UNK N   1      -4.352   4.349  -0.083  0.00  0.00    -0.331 N 
HETATM    5  C   UNK N   1      -5.400   6.574   0.217  0.00  0.00     0.020 C 
HETATM    6  C   UNK N   1      -5.605   5.087  -0.127  0.00  0.00     0.127 C 
HETATM    7  C   UNK N   1      -1.872   4.381  -0.612  0.00  0.00     0.282 C 
HETATM    8  O   UNK N   1      -1.872   3.699  -1.631  0.00  0.00    -0.263 OA
HETATM    9  O   UNK N   1      -3.294   2.419   0.385  0.00  0.00    -0.264 OA
HETATM   10  C   UNK N   1      -4.341   2.985   0.129  0.00  0.00     0.296 C 
HETATM   11  C   UNK N   1      -5.572   2.135   0.002  0.00  0.00     0.278 C 
HETATM   12  O   UNK N   1      -6.654   2.633  -0.268  0.00  0.00    -0.281 OA
HETATM   13  C   UNK N   1       0.519   4.382  -0.459  0.00  0.00     0.142 C 
HETATM   14  C   UNK N   1       1.061   2.953  -0.353  0.00  0.00     0.112 C 
HETATM   15  O   UNK N   1      -0.736   4.516   0.115  0.00  0.00    -0.314 OA
HETATM   16  O   UNK N   1       0.691   2.767   1.979  0.00  0.00    -0.297 OA
HETATM   17  C   UNK N   1       0.623   2.228   0.886  0.00  0.00     0.136 C 
HETATM   18  O   UNK N   1      -4.330   0.322  -0.848  0.00  0.00    -0.343 OA
HETATM   19  C   UNK N   1      -5.411   0.619   0.040  0.00  0.00     0.238 C 
HETATM   20  C   UNK N   1      -4.059  -1.060  -1.036  0.00  0.00     0.128 C 
HETATM   21  C   UNK N   1      -5.300  -1.808  -1.523  0.00  0.00     0.033 C 
HETATM   22  C   UNK N   1      -6.702  -0.108  -0.420  0.00  0.00     0.053 C 
HETATM   23  C   UNK N   1      -6.451  -1.599  -0.557  0.00  0.00     0.013 C 
HETATM   24  C   UNK N   1      -3.423  -1.700   0.202  0.00  0.00     0.068 C 
HETATM   25  C   UNK N   1      -3.009  -3.168   0.004  0.00  0.00     0.151 C 
HETATM   26  C   UNK N   1      -0.824  -2.192  -1.068  0.00  0.00     0.046 C 
HETATM   27  C   UNK N   1      -1.593  -3.352  -0.544  0.00  0.00    -0.055 C 
HETATM   28  C   UNK N   1      -0.973  -4.544  -0.579  0.00  0.00     0.005 C 
HETATM   29  C   UNK N   1      -7.884   0.118   0.511  0.00  0.00     0.016 C 
HETATM   30  C   UNK N   1       0.152   0.819   0.798  0.00  0.00     0.074 C 
HETATM   31  C   UNK N   1      -0.981   0.652  -0.201  0.00  0.00     0.022 C 
HETATM   32  C   UNK N   1       1.332  -0.090   0.604  0.00  0.00    -0.010 C 
HETATM   33  C   UNK N   1       1.982  -0.358  -0.543  0.00  0.00    -0.056 C 
HETATM   34  C   UNK N   1       1.556   0.217  -1.856  0.00  0.00     0.046 C 
HETATM   35  C   UNK N   1       3.259  -1.145  -0.494  0.00  0.00     0.183 C 
HETATM   36  C   UNK N   1       3.225  -2.321   0.496  0.00  0.00     0.223 C 
HETATM   37  C   UNK N   1       4.512  -3.115   0.436  0.00  0.00     0.162 C 
HETATM   38  C   UNK N   1      -1.584  -5.798  -0.114  0.00  0.00     0.000 C 
HETATM   39  C   UNK N   1      -0.900  -6.914   0.190  0.00  0.00    -0.000 C 
HETATM   40  C   UNK N   1       4.526  -4.536  -0.077  0.00  0.00     0.055 C 
HETATM   41  C   UNK N   1       3.665  -5.452   0.777  0.00  0.00     0.020 C 
HETATM   42  O   UNK N   1       5.557  -2.577   0.776  0.00  0.00    -0.295 OA
HETATM   43  C   UNK N   1       0.571  -7.118   0.178  0.00  0.00    -0.004 C 
HETATM   44  C   UNK N   1       1.478  -6.188  -0.146  0.00  0.00    -0.022 C 
HETATM   45  C   UNK N   1       2.966  -6.459  -0.117  0.00  0.00     0.005 C 
HETATM   46  C   UNK N   1       5.932  -5.113  -0.175  0.00  0.00     0.018 C 
HETATM   47  C   UNK N   1       3.333  -7.868   0.325  0.00  0.00     0.014 C 
ENDROOT
BRANCH  13  48
HETATM   48  C   UNK N   1       1.484   5.440   0.096  0.00  0.00     0.012 C 
HETATM   49  C   UNK N   1       0.882   6.817   0.310  0.00  0.00     0.012 C 
BRANCH  48  50
HETATM   50  C   UNK N   1       2.507   5.028   1.153  0.00  0.00     0.011 C 
BRANCH  50  51
HETATM   51  C   UNK N   1       3.797   4.662   0.421  0.00  0.00    -0.012 C 
HETATM   52  C   UNK N   1       4.845   4.068   1.362  0.00  0.00     0.039 C 
HETATM   53  C   UNK N   1       6.105   3.679   0.567  0.00  0.00     0.150 C 
HETATM   54  C   UNK N   1       6.671   4.878  -0.212  0.00  0.00     0.147 C 
HETATM   55  C   UNK N   1       5.601   5.529  -1.089  0.00  0.00     0.035 C 
HETATM   56  C   UNK N   1       4.377   5.905  -0.259  0.00  0.00     0.007 C 
BRANCH  53  57
HETATM   57  O   UNK N   1       5.818   2.628  -0.310  0.00  0.00    -0.388 OA
HETATM   58  C   UNK N   1       6.803   1.672  -0.061  0.00  0.00     0.202 C 
ENDBRANCH  53  57
BRANCH  54  59
HETATM   59  O   UNK N   1       7.204   5.821   0.668  0.00  0.00    -0.393 OA
HETATM   60  H   UNK N   1       7.957   5.828   1.279  0.00  0.00     0.210 HD
ENDBRANCH  54  59
ENDBRANCH  50  51
ENDBRANCH  48  50
ENDBRANCH  13  48
BRANCH  35  61
HETATM   61  O   UNK N   1       4.302  -0.276  -0.165  0.00  0.00    -0.388 OA
HETATM   62  H   UNK N   1       5.186  -0.602   0.063  0.00  0.00     0.210 HD
ENDBRANCH  35  61
BRANCH  19  63
HETATM   63  O   UNK N   1      -5.081   0.250   1.350  0.00  0.00    -0.359 OA
HETATM   64  H   UNK N   1      -5.188  -0.075   2.258  0.00  0.00     0.213 HD
ENDBRANCH  19  63
BRANCH  36  65
HETATM   65  O   UNK N   1       2.104  -3.123   0.259  0.00  0.00    -0.380 OA
HETATM   66  C   UNK N   1       1.444  -3.181   1.491  0.00  0.00     0.202 C 
ENDBRANCH  36  65
BRANCH  25  67
HETATM   67  O   UNK N   1      -3.172  -3.828   1.223  0.00  0.00    -0.386 OA
HETATM   68  C   UNK N   1      -4.324  -4.601   1.047  0.00  0.00     0.202 C 
ENDBRANCH  25  67
TORSDOF 9
