MODEL 1
REMARK VINA RESULT:      -4.4      0.000      0.000
REMARK  5 active torsions:
REMARK  status: ('A' for Active; 'I' for Inactive)
REMARK    1  A    between atoms: O_1  and  C_4 
REMARK    2  A    between atoms: C_3  and  C_6 
REMARK    3  A    between atoms: C_8  and  C_3 
REMARK    4  A    between atoms: C_6  and  C_4 
REMARK    5  A    between atoms: C_6  and  N_7 
ROOT
HETATM    1  C   UNK N   1      22.665  11.895  11.170  0.00  0.00     0.173 C 
ENDROOT
BRANCH   1   2
HETATM    2  C   UNK N   1      23.799  12.074  12.139  0.00  0.00     0.163 C 
HETATM    3  O   UNK N   1      23.590  12.003  13.339  0.00  0.00    -0.648 OA
BRANCH   2   4
HETATM    4  O   UNK N   1      25.043  12.350  11.696  0.00  0.00    -0.775 OA
HETATM    5  H   UNK N   1      25.327  12.203  10.816  0.00  0.00     0.167 HD
ENDBRANCH   2   4
ENDBRANCH   1   2
BRANCH   1   6
HETATM    6  C   UNK N   1      22.598  13.057  10.181  0.00  0.00     0.039 C 
BRANCH   6   7
HETATM    7  C   UNK N   1      21.274  13.067   9.427  0.00  0.00    -0.020 C 
HETATM    8  C   UNK N   1      21.508  12.677   7.983  0.00  0.00     0.009 C 
HETATM    9  C   UNK N   1      20.636  14.443   9.467  0.00  0.00     0.009 C 
ENDBRANCH   6   7
ENDBRANCH   1   6
BRANCH   1  10
HETATM   10  N   UNK N   1      21.403  11.766  11.882  0.00  0.00    -0.418 N 
HETATM   11  H   UNK N   1      21.301  12.093  12.842  0.00  0.00     0.150 HD
HETATM   12  H   UNK N   1      20.604  11.341  11.411  0.00  0.00     0.150 HD
ENDBRANCH   1  10
TORSDOF 5
ENDMDL
MODEL 2
REMARK VINA RESULT:      -4.2      1.807      2.037
REMARK  5 active torsions:
REMARK  status: ('A' for Active; 'I' for Inactive)
REMARK    1  A    between atoms: O_1  and  C_4 
REMARK    2  A    between atoms: C_3  and  C_6 
REMARK    3  A    between atoms: C_8  and  C_3 
REMARK    4  A    between atoms: C_6  and  C_4 
REMARK    5  A    between atoms: C_6  and  N_7 
ROOT
HETATM    1  C   UNK N   1      23.590  12.345  11.480  0.00  0.00     0.173 C 
ENDROOT
BRANCH   1   2
HETATM    2  C   UNK N   1      23.260  11.920  12.883  0.00  0.00     0.163 C 
HETATM    3  O   UNK N   1      23.953  12.300  13.813  0.00  0.00    -0.648 OA
BRANCH   2   4
HETATM    4  O   UNK N   1      22.224  11.090  13.123  0.00  0.00    -0.775 OA
HETATM    5  H   UNK N   1      21.345  11.263  12.851  0.00  0.00     0.167 HD
ENDBRANCH   2   4
ENDBRANCH   1   2
BRANCH   1   6
HETATM    6  C   UNK N   1      22.847  11.488  10.457  0.00  0.00     0.039 C 
BRANCH   6   7
HETATM    7  C   UNK N   1      21.925  12.336   9.589  0.00  0.00    -0.020 C 
HETATM    8  C   UNK N   1      22.729  13.418   8.900  0.00  0.00     0.009 C 
HETATM    9  C   UNK N   1      20.840  12.989  10.425  0.00  0.00     0.009 C 
ENDBRANCH   6   7
ENDBRANCH   1   6
BRANCH   1  10
HETATM   10  N   UNK N   1      25.025  12.272  11.251  0.00  0.00    -0.418 N 
HETATM   11  H   UNK N   1      25.403  12.011  10.340  0.00  0.00     0.150 HD
HETATM   12  H   UNK N   1      25.666  12.487  12.015  0.00  0.00     0.150 HD
ENDBRANCH   1  10
TORSDOF 5
ENDMDL
MODEL 3
REMARK VINA RESULT:      -4.2     11.239     11.837
REMARK  5 active torsions:
REMARK  status: ('A' for Active; 'I' for Inactive)
REMARK    1  A    between atoms: O_1  and  C_4 
REMARK    2  A    between atoms: C_3  and  C_6 
REMARK    3  A    between atoms: C_8  and  C_3 
REMARK    4  A    between atoms: C_6  and  C_4 
REMARK    5  A    between atoms: C_6  and  N_7 
ROOT
HETATM    1  C   UNK N   1      33.070  17.439   8.315  0.00  0.00     0.173 C 
ENDROOT
BRANCH   1   2
HETATM    2  C   UNK N   1      34.228  18.143   7.665  0.00  0.00     0.163 C 
HETATM    3  O   UNK N   1      34.532  17.878   6.513  0.00  0.00    -0.648 OA
BRANCH   2   4
HETATM    4  O   UNK N   1      34.961  19.041   8.356  0.00  0.00    -0.775 OA
HETATM    5  H   UNK N   1      35.721  19.468   8.011  0.00  0.00     0.167 HD
ENDBRANCH   2   4
ENDBRANCH   1   2
BRANCH   1   6
HETATM    6  C   UNK N   1      31.902  18.397   8.542  0.00  0.00     0.039 C 
BRANCH   6   7
HETATM    7  C   UNK N   1      30.608  17.638   8.809  0.00  0.00    -0.020 C 
HETATM    8  C   UNK N   1      29.948  17.278   7.495  0.00  0.00     0.009 C 
HETATM    9  C   UNK N   1      29.645  18.477   9.629  0.00  0.00     0.009 C 
ENDBRANCH   6   7
ENDBRANCH   1   6
BRANCH   1  10
HETATM   10  N   UNK N   1      33.482  16.839   9.576  0.00  0.00    -0.418 N 
HETATM   11  H   UNK N   1      32.817  16.341  10.166  0.00  0.00     0.150 HD
HETATM   12  H   UNK N   1      34.454  16.918   9.873  0.00  0.00     0.150 HD
ENDBRANCH   1  10
TORSDOF 5
ENDMDL
MODEL 4
REMARK VINA RESULT:      -4.1     12.865     13.465
REMARK  5 active torsions:
REMARK  status: ('A' for Active; 'I' for Inactive)
REMARK    1  A    between atoms: O_1  and  C_4 
REMARK    2  A    between atoms: C_3  and  C_6 
REMARK    3  A    between atoms: C_8  and  C_3 
REMARK    4  A    between atoms: C_6  and  C_4 
REMARK    5  A    between atoms: C_6  and  N_7 
ROOT
HETATM    1  C   UNK N   1      34.109  17.234   9.062  0.00  0.00     0.173 C 
ENDROOT
BRANCH   1   2
HETATM    2  C   UNK N   1      34.638  18.264   8.104  0.00  0.00     0.163 C 
HETATM    3  O   UNK N   1      35.269  19.219   8.526  0.00  0.00    -0.648 OA
BRANCH   2   4
HETATM    4  O   UNK N   1      34.389  18.163   6.782  0.00  0.00    -0.775 OA
HETATM    5  H   UNK N   1      34.088  17.379   6.367  0.00  0.00     0.167 HD
ENDBRANCH   2   4
ENDBRANCH   1   2
BRANCH   1   6
HETATM    6  C   UNK N   1      34.705  15.858   8.775  0.00  0.00     0.039 C 
BRANCH   6   7
HETATM    7  C   UNK N   1      35.464  15.320   9.982  0.00  0.00    -0.020 C 
HETATM    8  C   UNK N   1      34.802  14.051  10.474  0.00  0.00     0.009 C 
HETATM    9  C   UNK N   1      35.480  16.335  11.110  0.00  0.00     0.009 C 
ENDBRANCH   6   7
ENDBRANCH   1   6
BRANCH   1  10
HETATM   10  N   UNK N   1      32.656  17.177   8.997  0.00  0.00    -0.418 N 
HETATM   11  H   UNK N   1      32.180  16.624   8.286  0.00  0.00     0.150 HD
HETATM   12  H   UNK N   1      32.104  17.700   9.678  0.00  0.00     0.150 HD
ENDBRANCH   1  10
TORSDOF 5
ENDMDL
MODEL 5
REMARK VINA RESULT:      -4.0     11.716     12.431
REMARK  5 active torsions:
REMARK  status: ('A' for Active; 'I' for Inactive)
REMARK    1  A    between atoms: O_1  and  C_4 
REMARK    2  A    between atoms: C_3  and  C_6 
REMARK    3  A    between atoms: C_8  and  C_3 
REMARK    4  A    between atoms: C_6  and  C_4 
REMARK    5  A    between atoms: C_6  and  N_7 
ROOT
HETATM    1  C   UNK N   1      34.044  17.003   8.774  0.00  0.00     0.173 C 
ENDROOT
BRANCH   1   2
HETATM    2  C   UNK N   1      34.529  18.138   7.917  0.00  0.00     0.163 C 
HETATM    3  O   UNK N   1      35.056  19.109   8.436  0.00  0.00    -0.648 OA
BRANCH   2   4
HETATM    4  O   UNK N   1      34.354  18.112   6.580  0.00  0.00    -0.775 OA
HETATM    5  H   UNK N   1      34.019  17.372   6.113  0.00  0.00     0.167 HD
ENDBRANCH   2   4
ENDBRANCH   1   2
BRANCH   1   6
HETATM    6  C   UNK N   1      32.518  16.955   8.809  0.00  0.00     0.039 C 
BRANCH   6   7
HETATM    7  C   UNK N   1      31.987  15.714   8.100  0.00  0.00    -0.020 C 
HETATM    8  C   UNK N   1      33.130  14.765   7.811  0.00  0.00     0.009 C 
HETATM    9  C   UNK N   1      31.314  16.084   6.791  0.00  0.00     0.009 C 
ENDBRANCH   6   7
ENDBRANCH   1   6
BRANCH   1  10
HETATM   10  N   UNK N   1      34.575  17.122  10.124  0.00  0.00    -0.418 N 
HETATM   11  H   UNK N   1      35.580  17.120  10.299  0.00  0.00     0.150 HD
HETATM   12  H   UNK N   1      33.930  17.209  10.910  0.00  0.00     0.150 HD
ENDBRANCH   1  10
TORSDOF 5
ENDMDL
MODEL 6
REMARK VINA RESULT:      -4.0     12.538     12.954
REMARK  5 active torsions:
REMARK  status: ('A' for Active; 'I' for Inactive)
REMARK    1  A    between atoms: O_1  and  C_4 
REMARK    2  A    between atoms: C_3  and  C_6 
REMARK    3  A    between atoms: C_8  and  C_3 
REMARK    4  A    between atoms: C_6  and  C_4 
REMARK    5  A    between atoms: C_6  and  N_7 
ROOT
HETATM    1  C   UNK N   1      33.725  17.038   8.241  0.00  0.00     0.173 C 
ENDROOT
BRANCH   1   2
HETATM    2  C   UNK N   1      34.773  17.915   8.866  0.00  0.00     0.163 C 
HETATM    3  O   UNK N   1      35.361  17.541   9.868  0.00  0.00    -0.648 OA
BRANCH   2   4
HETATM    4  O   UNK N   1      35.046  19.131   8.351  0.00  0.00    -0.775 OA
HETATM    5  H   UNK N   1      34.389  19.745   8.089  0.00  0.00     0.167 HD
ENDBRANCH   2   4
ENDBRANCH   1   2
BRANCH   1   6
HETATM    6  C   UNK N   1      33.103  17.710   7.020  0.00  0.00     0.039 C 
BRANCH   6   7
HETATM    7  C   UNK N   1      33.777  17.252   5.732  0.00  0.00    -0.020 C 
HETATM    8  C   UNK N   1      32.848  17.489   4.560  0.00  0.00     0.009 C 
HETATM    9  C   UNK N   1      34.120  15.775   5.794  0.00  0.00     0.009 C 
ENDBRANCH   6   7
ENDBRANCH   1   6
BRANCH   1  10
HETATM   10  N   UNK N   1      32.694  16.705   9.213  0.00  0.00    -0.418 N 
HETATM   11  H   UNK N   1      31.985  16.000   9.012  0.00  0.00     0.150 HD
HETATM   12  H   UNK N   1      32.682  17.185  10.113  0.00  0.00     0.150 HD
ENDBRANCH   1  10
TORSDOF 5
ENDMDL
MODEL 7
REMARK VINA RESULT:      -3.9     10.031     11.263
REMARK  5 active torsions:
REMARK  status: ('A' for Active; 'I' for Inactive)
REMARK    1  A    between atoms: O_1  and  C_4 
REMARK    2  A    between atoms: C_3  and  C_6 
REMARK    3  A    between atoms: C_8  and  C_3 
REMARK    4  A    between atoms: C_6  and  C_4 
REMARK    5  A    between atoms: C_6  and  N_7 
ROOT
HETATM    1  C   UNK N   1      20.117  19.163   2.574  0.00  0.00     0.173 C 
ENDROOT
BRANCH   1   2
HETATM    2  C   UNK N   1      20.727  20.015   1.497  0.00  0.00     0.163 C 
HETATM    3  O   UNK N   1      21.343  21.025   1.797  0.00  0.00    -0.648 OA
BRANCH   2   4
HETATM    4  O   UNK N   1      20.570  19.694   0.196  0.00  0.00    -0.775 OA
HETATM    5  H   UNK N   1      20.289  18.851  -0.102  0.00  0.00     0.167 HD
ENDBRANCH   2   4
ENDBRANCH   1   2
BRANCH   1   6
HETATM    6  C   UNK N   1      20.910  17.873   2.771  0.00  0.00     0.039 C 
BRANCH   6   7
HETATM    7  C   UNK N   1      20.087  16.651   2.380  0.00  0.00    -0.020 C 
HETATM    8  C   UNK N   1      20.047  15.675   3.537  0.00  0.00     0.009 C 
HETATM    9  C   UNK N   1      20.686  15.956   1.172  0.00  0.00     0.009 C 
ENDBRANCH   6   7
ENDBRANCH   1   6
BRANCH   1  10
HETATM   10  N   UNK N   1      18.730  18.857   2.256  0.00  0.00    -0.418 N 
HETATM   11  H   UNK N   1      18.489  18.139   1.574  0.00  0.00     0.150 HD
HETATM   12  H   UNK N   1      17.984  19.371   2.727  0.00  0.00     0.150 HD
ENDBRANCH   1  10
TORSDOF 5
ENDMDL
MODEL 8
REMARK VINA RESULT:      -3.9     23.297     23.854
REMARK  5 active torsions:
REMARK  status: ('A' for Active; 'I' for Inactive)
REMARK    1  A    between atoms: O_1  and  C_4 
REMARK    2  A    between atoms: C_3  and  C_6 
REMARK    3  A    between atoms: C_8  and  C_3 
REMARK    4  A    between atoms: C_6  and  C_4 
REMARK    5  A    between atoms: C_6  and  N_7 
ROOT
HETATM    1  C   UNK N   1      43.499  22.097   3.939  0.00  0.00     0.173 C 
ENDROOT
BRANCH   1   2
HETATM    2  C   UNK N   1      44.928  21.635   3.916  0.00  0.00     0.163 C 
HETATM    3  O   UNK N   1      45.189  20.482   3.615  0.00  0.00    -0.648 OA
BRANCH   2   4
HETATM    4  O   UNK N   1      45.927  22.473   4.263  0.00  0.00    -0.775 OA
HETATM    5  H   UNK N   1      45.799  23.260   4.755  0.00  0.00     0.167 HD
ENDBRANCH   2   4
ENDBRANCH   1   2
BRANCH   1   6
HETATM    6  C   UNK N   1      42.722  21.540   2.749  0.00  0.00     0.039 C 
BRANCH   6   7
HETATM    7  C   UNK N   1      41.681  20.519   3.195  0.00  0.00    -0.020 C 
HETATM    8  C   UNK N   1      42.092  19.138   2.732  0.00  0.00     0.009 C 
HETATM    9  C   UNK N   1      40.317  20.846   2.617  0.00  0.00     0.009 C 
ENDBRANCH   6   7
ENDBRANCH   1   6
BRANCH   1  10
HETATM   10  N   UNK N   1      43.434  23.551   3.947  0.00  0.00    -0.418 N 
HETATM   11  H   UNK N   1      42.826  24.057   3.303  0.00  0.00     0.150 HD
HETATM   12  H   UNK N   1      44.007  24.074   4.609  0.00  0.00     0.150 HD
ENDBRANCH   1  10
TORSDOF 5
ENDMDL
MODEL 9
REMARK VINA RESULT:      -3.9     13.897     14.681
REMARK  5 active torsions:
REMARK  status: ('A' for Active; 'I' for Inactive)
REMARK    1  A    between atoms: O_1  and  C_4 
REMARK    2  A    between atoms: C_3  and  C_6 
REMARK    3  A    between atoms: C_8  and  C_3 
REMARK    4  A    between atoms: C_6  and  C_4 
REMARK    5  A    between atoms: C_6  and  N_7 
ROOT
HETATM    1  C   UNK N   1      36.315  12.942  14.596  0.00  0.00     0.173 C 
ENDROOT
BRANCH   1   2
HETATM    2  C   UNK N   1      35.894  13.834  13.463  0.00  0.00     0.163 C 
HETATM    3  O   UNK N   1      34.794  13.692  12.953  0.00  0.00    -0.648 OA
BRANCH   2   4
HETATM    4  O   UNK N   1      36.735  14.770  12.978  0.00  0.00    -0.775 OA
HETATM    5  H   UNK N   1      37.348  14.612  12.287  0.00  0.00     0.167 HD
ENDBRANCH   2   4
ENDBRANCH   1   2
BRANCH   1   6
HETATM    6  C   UNK N   1      36.323  13.702  15.921  0.00  0.00     0.039 C 
BRANCH   6   7
HETATM    7  C   UNK N   1      35.204  13.226  16.840  0.00  0.00    -0.020 C 
HETATM    8  C   UNK N   1      35.238  14.012  18.133  0.00  0.00     0.009 C 
HETATM    9  C   UNK N   1      35.353  11.750  17.158  0.00  0.00     0.009 C 
ENDBRANCH   6   7
ENDBRANCH   1   6
BRANCH   1  10
HETATM   10  N   UNK N   1      37.628  12.372  14.334  0.00  0.00    -0.418 N 
HETATM   11  H   UNK N   1      38.415  12.548  14.958  0.00  0.00     0.150 HD
HETATM   12  H   UNK N   1      37.763  11.783  13.512  0.00  0.00     0.150 HD
ENDBRANCH   1  10
TORSDOF 5
ENDMDL
