MODEL 1
REMARK VINA RESULT:      -9.2      0.000      0.000
REMARK  21 active torsions:
REMARK  status: ('A' for Active; 'I' for Inactive)
REMARK    1  A    between atoms: C_3  and  O_2 
REMARK    2  A    between atoms: C_5  and  O_11 
REMARK    3  A    between atoms: C_9  and  O_10 
REMARK    4  A    between atoms: C_12  and  O_11 
REMARK    5  A    between atoms: C_16  and  O_21 
REMARK    6  A    between atoms: C_18  and  O_19 
REMARK    7  A    between atoms: C_22  and  O_21 
REMARK    8  A    between atoms: C_32  and  O_33 
REMARK    9  A    between atoms: C_54  and  C_56 
REMARK   10  A    between atoms: C_60  and  O_61 
REMARK   11  A    between atoms: C_63  and  C_64 
REMARK   12  A    between atoms: C_66  and  C_64 
REMARK   13  A    between atoms: C_81  and  O_82 
REMARK   14  A    between atoms: C_83  and  O_82 
REMARK   15  A    between atoms: C_85  and  O_86 
REMARK   16  A    between atoms: C_88  and  O_89 
REMARK   17  A    between atoms: C_90  and  O_89 
REMARK   18  A    between atoms: C_92  and  O_93 
REMARK   19  A    between atoms: C_95  and  O_96 
REMARK   20  A    between atoms: C_112  and  O_113 
REMARK   21  A    between atoms: C_121  and  O_122 
ROOT
HETATM    1  C   UNK N   1      28.852  16.950   4.446  0.00  0.00     0.160 C 
HETATM    2  C   UNK N   1      29.308  16.520   3.036  0.00  0.00     0.037 C 
HETATM    3  C   UNK N   1      30.748  16.030   2.974  0.00  0.00     0.017 C 
HETATM    4  C   UNK N   1      28.284  15.645   2.373  0.00  0.00    -0.020 C 
HETATM    5  C   UNK N   1      28.304  14.344   2.095  0.00  0.00    -0.003 C 
HETATM    6  C   UNK N   1      29.383  13.357   2.238  0.00  0.00     0.008 C 
HETATM    7  C   UNK N   1      29.108  12.034   2.306  0.00  0.00    -0.019 C 
HETATM    8  C   UNK N   1      30.108  11.032   1.884  0.00  0.00     0.206 C 
HETATM    9  O   UNK N   1      29.376  10.138   1.041  0.00  0.00    -0.375 OA
HETATM   10  C   UNK N   1      28.070  10.702   0.949  0.00  0.00     0.194 C 
HETATM   11  C   UNK N   1      26.944   9.742   0.536  0.00  0.00     0.179 C 
HETATM   12  C   UNK N   1      25.567  10.347   0.772  0.00  0.00    -0.056 C 
HETATM   13  C   UNK N   1      24.369   9.669   0.201  0.00  0.00     0.046 C 
HETATM   14  C   UNK N   1      25.377  11.467   1.499  0.00  0.00    -0.004 C 
HETATM   15  C   UNK N   1      26.501  12.221   2.168  0.00  0.00     0.150 C 
HETATM   16  C   UNK N   1      26.051  12.755   3.515  0.00  0.00     0.270 C 
HETATM   17  O   UNK N   1      26.582  12.365   4.548  0.00  0.00    -0.264 OA
HETATM   18  O   UNK N   1      25.077  13.675   3.613  0.00  0.00    -0.315 OA
HETATM   19  C   UNK N   1      24.631  14.461   2.571  0.00  0.00     0.139 C 
HETATM   20  C   UNK N   1      24.884  15.902   2.967  0.00  0.00     0.065 C 
HETATM   21  C   UNK N   1      24.199  16.181   4.328  0.00  0.00     0.131 C 
HETATM   22  C   UNK N   1      25.165  16.291   5.505  0.00  0.00     0.059 C 
HETATM   23  C   UNK N   1      26.635  16.194   5.212  0.00  0.00    -0.019 C 
HETATM   24  C   UNK N   1      27.355  17.136   4.577  0.00  0.00    -0.058 C 
HETATM   25  C   UNK N   1      26.728  18.395   4.069  0.00  0.00     0.046 C 
HETATM   26  O   UNK N   1      23.216  15.207   4.669  0.00  0.00    -0.349 OA
HETATM   27  C   UNK N   1      22.346  14.973   3.570  0.00  0.00     0.167 C 
HETATM   28  C   UNK N   1      21.245  13.961   3.994  0.00  0.00     0.069 C 
HETATM   29  C   UNK N   1      19.857  14.447   3.540  0.00  0.00     0.012 C 
HETATM   30  C   UNK N   1      19.584  15.876   4.041  0.00  0.00     0.011 C 
HETATM   31  C   UNK N   1      18.873  15.795   5.378  0.00  0.00     0.012 C 
HETATM   32  C   UNK N   1      20.929  16.605   4.181  0.00  0.00     0.132 C 
HETATM   33  O   UNK N   1      21.780  16.206   3.136  0.00  0.00    -0.349 OA
HETATM   34  C   UNK N   1      23.117  14.294   2.419  0.00  0.00     0.101 C 
HETATM   35  C   UNK N   1      27.787  11.379   2.249  0.00  0.00     0.128 C 
ENDROOT
BRANCH   1  36
HETATM   36  O   UNK N   1      29.375  16.135   5.473  0.00  0.00    -0.351 OA
BRANCH  36  37
HETATM   37  C   UNK N   1      30.033  16.949   6.436  0.00  0.00     0.263 C 
HETATM   38  O   UNK N   1      29.917  16.436   7.768  0.00  0.00    -0.354 OA
HETATM   39  C   UNK N   1      30.976  16.855   8.605  0.00  0.00     0.152 C 
HETATM   40  C   UNK N   1      32.353  16.371   8.124  0.00  0.00     0.182 C 
HETATM   41  C   UNK N   1      30.952  18.360   8.851  0.00  0.00     0.042 C 
HETATM   42  C   UNK N   1      32.498  16.438   6.606  0.00  0.00     0.157 C 
HETATM   43  C   UNK N   1      31.457  17.355   5.975  0.00  0.00     0.095 C 
BRANCH  40  44
HETATM   44  O   UNK N   1      32.623  15.052   8.534  0.00  0.00    -0.351 OA
BRANCH  44  45
HETATM   45  C   UNK N   1      33.978  14.921   8.926  0.00  0.00     0.263 C 
HETATM   46  C   UNK N   1      34.425  15.677  10.214  0.00  0.00     0.095 C 
HETATM   47  C   UNK N   1      35.542  14.900  10.918  0.00  0.00     0.156 C 
HETATM   48  C   UNK N   1      35.144  13.428  11.131  0.00  0.00     0.175 C 
HETATM   49  C   UNK N   1      34.173  12.958  10.043  0.00  0.00     0.151 C 
HETATM   50  O   UNK N   1      34.440  13.585   8.818  0.00  0.00    -0.354 OA
HETATM   51  C   UNK N   1      34.158  11.450   9.897  0.00  0.00     0.042 C 
BRANCH  47  52
HETATM   52  O   UNK N   1      36.711  14.969  10.157  0.00  0.00    -0.388 OA
HETATM   53  C   UNK N   1      37.467  13.870  10.571  0.00  0.00     0.202 C 
ENDBRANCH  47  52
BRANCH  48  54
HETATM   54  O   UNK N   1      34.530  13.277  12.374  0.00  0.00    -0.390 OA
HETATM   55  H   UNK N   1      34.169  12.651  13.021  0.00  0.00     0.210 HD
ENDBRANCH  48  54
ENDBRANCH  44  45
ENDBRANCH  40  44
BRANCH  42  56
HETATM   56  O   UNK N   1      33.796  16.815   6.248  0.00  0.00    -0.388 OA
HETATM   57  C   UNK N   1      34.204  15.895   5.277  0.00  0.00     0.202 C 
ENDBRANCH  42  56
ENDBRANCH  36  37
ENDBRANCH   1  36
BRANCH  35  58
HETATM   58  O   UNK N   1      27.685  10.409   3.260  0.00  0.00    -0.381 OA
HETATM   59  H   UNK N   1      27.537   9.890   4.066  0.00  0.00     0.211 HD
ENDBRANCH  35  58
BRANCH  11  60
HETATM   60  O   UNK N   1      27.038   8.527   1.214  0.00  0.00    -0.389 OA
HETATM   61  H   UNK N   1      26.835   7.581   1.298  0.00  0.00     0.210 HD
ENDBRANCH  11  60
BRANCH  32  62
HETATM   62  C   UNK N   1      20.914  18.106   4.438  0.00  0.00     0.007 C 
HETATM   63  C   UNK N   1      21.803  18.820   3.437  0.00  0.00     0.012 C 
HETATM   64  C   UNK N   1      21.502  18.359   5.808  0.00  0.00     0.012 C 
ENDBRANCH  32  62
TORSDOF 21
ENDMDL
MODEL 2
REMARK VINA RESULT:      -9.1      3.319      5.895
REMARK  21 active torsions:
REMARK  status: ('A' for Active; 'I' for Inactive)
REMARK    1  A    between atoms: C_3  and  O_2 
REMARK    2  A    between atoms: C_5  and  O_11 
REMARK    3  A    between atoms: C_9  and  O_10 
REMARK    4  A    between atoms: C_12  and  O_11 
REMARK    5  A    between atoms: C_16  and  O_21 
REMARK    6  A    between atoms: C_18  and  O_19 
REMARK    7  A    between atoms: C_22  and  O_21 
REMARK    8  A    between atoms: C_32  and  O_33 
REMARK    9  A    between atoms: C_54  and  C_56 
REMARK   10  A    between atoms: C_60  and  O_61 
REMARK   11  A    between atoms: C_63  and  C_64 
REMARK   12  A    between atoms: C_66  and  C_64 
REMARK   13  A    between atoms: C_81  and  O_82 
REMARK   14  A    between atoms: C_83  and  O_82 
REMARK   15  A    between atoms: C_85  and  O_86 
REMARK   16  A    between atoms: C_88  and  O_89 
REMARK   17  A    between atoms: C_90  and  O_89 
REMARK   18  A    between atoms: C_92  and  O_93 
REMARK   19  A    between atoms: C_95  and  O_96 
REMARK   20  A    between atoms: C_112  and  O_113 
REMARK   21  A    between atoms: C_121  and  O_122 
ROOT
HETATM    1  C   UNK N   1      34.409  15.681   7.201  0.00  0.00     0.160 C 
HETATM    2  C   UNK N   1      35.189  15.413   5.898  0.00  0.00     0.037 C 
HETATM    3  C   UNK N   1      36.325  14.410   6.051  0.00  0.00     0.017 C 
HETATM    4  C   UNK N   1      34.260  15.187   4.741  0.00  0.00    -0.020 C 
HETATM    5  C   UNK N   1      33.976  14.078   4.061  0.00  0.00    -0.003 C 
HETATM    6  C   UNK N   1      34.565  12.735   4.141  0.00  0.00     0.008 C 
HETATM    7  C   UNK N   1      33.888  11.654   3.691  0.00  0.00    -0.019 C 
HETATM    8  C   UNK N   1      34.608  10.448   3.234  0.00  0.00     0.206 C 
HETATM    9  O   UNK N   1      33.995  10.126   1.982  0.00  0.00    -0.375 OA
HETATM   10  C   UNK N   1      33.058  11.173   1.749  0.00  0.00     0.194 C 
HETATM   11  C   UNK N   1      31.922  10.859   0.763  0.00  0.00     0.179 C 
HETATM   12  C   UNK N   1      30.814  11.903   0.822  0.00  0.00    -0.056 C 
HETATM   13  C   UNK N   1      29.760  11.902  -0.231  0.00  0.00     0.046 C 
HETATM   14  C   UNK N   1      30.730  12.822   1.806  0.00  0.00    -0.004 C 
HETATM   15  C   UNK N   1      31.707  12.899   2.954  0.00  0.00     0.150 C 
HETATM   16  C   UNK N   1      30.986  13.270   4.236  0.00  0.00     0.270 C 
HETATM   17  O   UNK N   1      30.955  12.491   5.181  0.00  0.00    -0.264 OA
HETATM   18  O   UNK N   1      30.382  14.461   4.379  0.00  0.00    -0.315 OA
HETATM   19  C   UNK N   1      30.613  15.561   3.580  0.00  0.00     0.139 C 
HETATM   20  C   UNK N   1      31.138  16.659   4.484  0.00  0.00     0.065 C 
HETATM   21  C   UNK N   1      30.128  16.895   5.635  0.00  0.00     0.131 C 
HETATM   22  C   UNK N   1      30.581  16.354   6.989  0.00  0.00     0.059 C 
HETATM   23  C   UNK N   1      31.949  15.738   7.071  0.00  0.00    -0.019 C 
HETATM   24  C   UNK N   1      33.104  16.421   6.995  0.00  0.00    -0.058 C 
HETATM   25  C   UNK N   1      33.129  17.902   6.791  0.00  0.00     0.046 C 
HETATM   26  O   UNK N   1      28.838  16.351   5.365  0.00  0.00    -0.349 OA
HETATM   27  C   UNK N   1      28.402  16.725   4.066  0.00  0.00     0.167 C 
HETATM   28  C   UNK N   1      26.967  16.178   3.829  0.00  0.00     0.069 C 
HETATM   29  C   UNK N   1      26.064  17.266   3.220  0.00  0.00     0.012 C 
HETATM   30  C   UNK N   1      26.085  18.542   4.079  0.00  0.00     0.011 C 
HETATM   31  C   UNK N   1      24.949  18.473   5.081  0.00  0.00     0.012 C 
HETATM   32  C   UNK N   1      27.442  18.620   4.797  0.00  0.00     0.132 C 
HETATM   33  O   UNK N   1      28.446  18.143   3.936  0.00  0.00    -0.349 OA
HETATM   34  C   UNK N   1      29.288  16.055   2.995  0.00  0.00     0.101 C 
HETATM   35  C   UNK N   1      32.545  11.614   3.079  0.00  0.00     0.128 C 
ENDROOT
BRANCH   1  36
HETATM   36  O   UNK N   1      34.240  14.526   7.997  0.00  0.00    -0.351 OA
BRANCH  36  37
HETATM   37  C   UNK N   1      34.859  14.729   9.262  0.00  0.00     0.263 C 
HETATM   38  O   UNK N   1      34.141  14.106  10.335  0.00  0.00    -0.354 OA
HETATM   39  C   UNK N   1      34.973  13.799  11.436  0.00  0.00     0.152 C 
HETATM   40  C   UNK N   1      36.088  12.800  11.089  0.00  0.00     0.182 C 
HETATM   41  C   UNK N   1      35.516  15.051  12.113  0.00  0.00     0.042 C 
HETATM   42  C   UNK N   1      36.696  13.059   9.712  0.00  0.00     0.157 C 
HETATM   43  C   UNK N   1      36.386  14.463   9.209  0.00  0.00     0.095 C 
BRANCH  40  44
HETATM   44  O   UNK N   1      35.636  11.467  11.125  0.00  0.00    -0.351 OA
BRANCH  44  45
HETATM   45  C   UNK N   1      36.237  10.768  12.201  0.00  0.00     0.263 C 
HETATM   46  C   UNK N   1      37.424  11.467  12.932  0.00  0.00     0.095 C 
HETATM   47  C   UNK N   1      37.449  11.052  14.407  0.00  0.00     0.156 C 
HETATM   48  C   UNK N   1      36.071  11.252  15.062  0.00  0.00     0.175 C 
HETATM   49  C   UNK N   1      34.945  11.105  14.033  0.00  0.00     0.151 C 
HETATM   50  O   UNK N   1      35.277  10.163  13.050  0.00  0.00    -0.354 OA
HETATM   51  C   UNK N   1      33.613  10.781  14.678  0.00  0.00     0.042 C 
BRANCH  47  52
HETATM   52  O   UNK N   1      37.832   9.713  14.510  0.00  0.00    -0.388 OA
HETATM   53  C   UNK N   1      37.500   9.351  15.817  0.00  0.00     0.202 C 
ENDBRANCH  47  52
BRANCH  48  54
HETATM   54  O   UNK N   1      35.994  12.524  15.629  0.00  0.00    -0.390 OA
HETATM   55  H   UNK N   1      36.179  13.468  15.511  0.00  0.00     0.210 HD
ENDBRANCH  48  54
ENDBRANCH  44  45
ENDBRANCH  40  44
BRANCH  42  56
HETATM   56  O   UNK N   1      38.073  12.813   9.725  0.00  0.00    -0.388 OA
HETATM   57  C   UNK N   1      38.682  14.070   9.772  0.00  0.00     0.202 C 
ENDBRANCH  42  56
ENDBRANCH  36  37
ENDBRANCH   1  36
BRANCH  35  58
HETATM   58  O   UNK N   1      31.787  10.577   3.647  0.00  0.00    -0.381 OA
HETATM   59  H   UNK N   1      31.190  10.006   4.157  0.00  0.00     0.211 HD
ENDBRANCH  35  58
BRANCH  11  60
HETATM   60  O   UNK N   1      31.380   9.595   0.998  0.00  0.00    -0.389 OA
HETATM   61  H   UNK N   1      31.470   8.632   1.074  0.00  0.00     0.210 HD
ENDBRANCH  11  60
BRANCH  32  62
HETATM   62  C   UNK N   1      27.801  19.908   5.525  0.00  0.00     0.007 C 
HETATM   63  C   UNK N   1      27.782  19.688   7.025  0.00  0.00     0.012 C 
HETATM   64  C   UNK N   1      26.739  20.940   5.217  0.00  0.00     0.012 C 
ENDBRANCH  32  62
TORSDOF 21
ENDMDL
MODEL 3
REMARK VINA RESULT:      -9.0      5.518     13.288
REMARK  21 active torsions:
REMARK  status: ('A' for Active; 'I' for Inactive)
REMARK    1  A    between atoms: C_3  and  O_2 
REMARK    2  A    between atoms: C_5  and  O_11 
REMARK    3  A    between atoms: C_9  and  O_10 
REMARK    4  A    between atoms: C_12  and  O_11 
REMARK    5  A    between atoms: C_16  and  O_21 
REMARK    6  A    between atoms: C_18  and  O_19 
REMARK    7  A    between atoms: C_22  and  O_21 
REMARK    8  A    between atoms: C_32  and  O_33 
REMARK    9  A    between atoms: C_54  and  C_56 
REMARK   10  A    between atoms: C_60  and  O_61 
REMARK   11  A    between atoms: C_63  and  C_64 
REMARK   12  A    between atoms: C_66  and  C_64 
REMARK   13  A    between atoms: C_81  and  O_82 
REMARK   14  A    between atoms: C_83  and  O_82 
REMARK   15  A    between atoms: C_85  and  O_86 
REMARK   16  A    between atoms: C_88  and  O_89 
REMARK   17  A    between atoms: C_90  and  O_89 
REMARK   18  A    between atoms: C_92  and  O_93 
REMARK   19  A    between atoms: C_95  and  O_96 
REMARK   20  A    between atoms: C_112  and  O_113 
REMARK   21  A    between atoms: C_121  and  O_122 
ROOT
HETATM    1  C   UNK N   1      36.491  12.406   8.307  0.00  0.00     0.160 C 
HETATM    2  C   UNK N   1      37.619  12.646   9.332  0.00  0.00     0.037 C 
HETATM    3  C   UNK N   1      37.813  14.109   9.708  0.00  0.00     0.017 C 
HETATM    4  C   UNK N   1      37.536  11.676  10.474  0.00  0.00    -0.020 C 
HETATM    5  C   UNK N   1      37.193  11.862  11.747  0.00  0.00    -0.003 C 
HETATM    6  C   UNK N   1      36.896  13.100  12.481  0.00  0.00     0.008 C 
HETATM    7  C   UNK N   1      36.173  13.071  13.624  0.00  0.00    -0.019 C 
HETATM    8  C   UNK N   1      36.334  14.125  14.647  0.00  0.00     0.206 C 
HETATM    9  O   UNK N   1      36.470  13.405  15.875  0.00  0.00    -0.375 OA
HETATM   10  C   UNK N   1      36.475  12.030  15.500  0.00  0.00     0.194 C 
HETATM   11  C   UNK N   1      36.114  11.024  16.604  0.00  0.00     0.179 C 
HETATM   12  C   UNK N   1      35.839   9.637  16.040  0.00  0.00    -0.056 C 
HETATM   13  C   UNK N   1      35.722   8.483  16.977  0.00  0.00     0.046 C 
HETATM   14  C   UNK N   1      35.673   9.405  14.722  0.00  0.00    -0.004 C 
HETATM   15  C   UNK N   1      35.721  10.493  13.676  0.00  0.00     0.150 C 
HETATM   16  C   UNK N   1      34.695  10.229  12.591  0.00  0.00     0.270 C 
HETATM   17  O   UNK N   1      33.767  11.008  12.408  0.00  0.00    -0.264 OA
HETATM   18  O   UNK N   1      34.782   9.151  11.794  0.00  0.00    -0.315 OA
HETATM   19  C   UNK N   1      35.916   8.385  11.629  0.00  0.00     0.139 C 
HETATM   20  C   UNK N   1      36.290   8.462  10.162  0.00  0.00     0.065 C 
HETATM   21  C   UNK N   1      35.078   8.018   9.306  0.00  0.00     0.131 C 
HETATM   22  C   UNK N   1      34.361   9.160   8.591  0.00  0.00     0.059 C 
HETATM   23  C   UNK N   1      34.938  10.540   8.731  0.00  0.00    -0.019 C 
HETATM   24  C   UNK N   1      36.087  10.953   8.168  0.00  0.00    -0.058 C 
HETATM   25  C   UNK N   1      36.931  10.036   7.343  0.00  0.00     0.046 C 
HETATM   26  O   UNK N   1      34.100   7.298  10.053  0.00  0.00    -0.349 OA
HETATM   27  C   UNK N   1      34.718   6.285  10.834  0.00  0.00     0.167 C 
HETATM   28  C   UNK N   1      33.623   5.474  11.581  0.00  0.00     0.069 C 
HETATM   29  C   UNK N   1      33.881   3.962  11.453  0.00  0.00     0.012 C 
HETATM   30  C   UNK N   1      34.027   3.554   9.977  0.00  0.00     0.011 C 
HETATM   31  C   UNK N   1      32.668   3.140   9.449  0.00  0.00     0.012 C 
HETATM   32  C   UNK N   1      34.574   4.757   9.193  0.00  0.00     0.132 C 
HETATM   33  O   UNK N   1      35.503   5.444   9.994  0.00  0.00    -0.349 OA
HETATM   34  C   UNK N   1      35.592   6.921  11.935  0.00  0.00     0.101 C 
HETATM   35  C   UNK N   1      35.595  11.894  14.302  0.00  0.00     0.128 C 
ENDROOT
BRANCH   1  36
HETATM   36  O   UNK N   1      35.375  13.248   8.501  0.00  0.00    -0.351 OA
BRANCH  36  37
HETATM   37  C   UNK N   1      34.879  13.676   7.238  0.00  0.00     0.263 C 
HETATM   38  O   UNK N   1      33.495  13.356   7.048  0.00  0.00    -0.354 OA
HETATM   39  C   UNK N   1      32.859  14.223   6.131  0.00  0.00     0.152 C 
HETATM   40  C   UNK N   1      32.855  15.689   6.590  0.00  0.00     0.182 C 
HETATM   41  C   UNK N   1      33.408  14.066   4.717  0.00  0.00     0.042 C 
HETATM   42  C   UNK N   1      34.170  16.097   7.251  0.00  0.00     0.157 C 
HETATM   43  C   UNK N   1      35.300  15.133   6.913  0.00  0.00     0.095 C 
BRANCH  40  44
HETATM   44  O   UNK N   1      31.808  15.960   7.490  0.00  0.00    -0.351 OA
BRANCH  44  45
HETATM   45  C   UNK N   1      30.898  16.889   6.930  0.00  0.00     0.263 C 
HETATM   46  C   UNK N   1      29.603  16.316   6.278  0.00  0.00     0.095 C 
HETATM   47  C   UNK N   1      28.452  17.316   6.430  0.00  0.00     0.156 C 
HETATM   48  C   UNK N   1      28.300  17.768   7.894  0.00  0.00     0.175 C 
HETATM   49  C   UNK N   1      29.644  17.718   8.627  0.00  0.00     0.151 C 
HETATM   50  O   UNK N   1      30.706  18.020   7.762  0.00  0.00    -0.354 OA
HETATM   51  C   UNK N   1      29.665  18.608   9.854  0.00  0.00     0.042 C 
BRANCH  47  52
HETATM   52  O   UNK N   1      28.685  18.425   5.614  0.00  0.00    -0.388 OA
HETATM   53  C   UNK N   1      27.648  19.311   5.918  0.00  0.00     0.202 C 
ENDBRANCH  47  52
BRANCH  48  54
HETATM   54  O   UNK N   1      27.399  16.936   8.557  0.00  0.00    -0.390 OA
HETATM   55  H   UNK N   1      27.018  16.685   9.413  0.00  0.00     0.210 HD
ENDBRANCH  48  54
ENDBRANCH  44  45
ENDBRANCH  40  44
BRANCH  42  56
HETATM   56  O   UNK N   1      34.503  17.414   6.919  0.00  0.00    -0.388 OA
HETATM   57  C   UNK N   1      34.508  18.120   8.125  0.00  0.00     0.202 C 
ENDBRANCH  42  56
ENDBRANCH  36  37
ENDBRANCH   1  36
BRANCH  35  58
HETATM   58  O   UNK N   1      34.267  12.156  14.675  0.00  0.00    -0.381 OA
HETATM   59  H   UNK N   1      33.304  12.222  14.774  0.00  0.00     0.211 HD
ENDBRANCH  35  58
BRANCH  11  60
HETATM   60  O   UNK N   1      35.009  11.453  17.339  0.00  0.00    -0.389 OA
HETATM   61  H   UNK N   1      34.607  12.016  18.020  0.00  0.00     0.210 HD
ENDBRANCH  11  60
BRANCH  32  62
HETATM   62  C   UNK N   1      35.027   4.539   7.755  0.00  0.00     0.007 C 
HETATM   63  C   UNK N   1      36.456   5.015   7.575  0.00  0.00     0.012 C 
HETATM   64  C   UNK N   1      34.162   5.388   6.851  0.00  0.00     0.012 C 
ENDBRANCH  32  62
TORSDOF 21
ENDMDL
MODEL 4
REMARK VINA RESULT:      -9.0      2.226      3.733
REMARK  21 active torsions:
REMARK  status: ('A' for Active; 'I' for Inactive)
REMARK    1  A    between atoms: C_3  and  O_2 
REMARK    2  A    between atoms: C_5  and  O_11 
REMARK    3  A    between atoms: C_9  and  O_10 
REMARK    4  A    between atoms: C_12  and  O_11 
REMARK    5  A    between atoms: C_16  and  O_21 
REMARK    6  A    between atoms: C_18  and  O_19 
REMARK    7  A    between atoms: C_22  and  O_21 
REMARK    8  A    between atoms: C_32  and  O_33 
REMARK    9  A    between atoms: C_54  and  C_56 
REMARK   10  A    between atoms: C_60  and  O_61 
REMARK   11  A    between atoms: C_63  and  C_64 
REMARK   12  A    between atoms: C_66  and  C_64 
REMARK   13  A    between atoms: C_81  and  O_82 
REMARK   14  A    between atoms: C_83  and  O_82 
REMARK   15  A    between atoms: C_85  and  O_86 
REMARK   16  A    between atoms: C_88  and  O_89 
REMARK   17  A    between atoms: C_90  and  O_89 
REMARK   18  A    between atoms: C_92  and  O_93 
REMARK   19  A    between atoms: C_95  and  O_96 
REMARK   20  A    between atoms: C_112  and  O_113 
REMARK   21  A    between atoms: C_121  and  O_122 
ROOT
HETATM    1  C   UNK N   1      32.949  15.828   4.853  0.00  0.00     0.160 C 
HETATM    2  C   UNK N   1      33.271  15.206   3.478  0.00  0.00     0.037 C 
HETATM    3  C   UNK N   1      34.445  14.237   3.497  0.00  0.00     0.017 C 
HETATM    4  C   UNK N   1      32.026  14.723   2.791  0.00  0.00    -0.020 C 
HETATM    5  C   UNK N   1      31.594  13.488   2.549  0.00  0.00    -0.003 C 
HETATM    6  C   UNK N   1      32.247  12.190   2.769  0.00  0.00     0.008 C 
HETATM    7  C   UNK N   1      31.518  11.054   2.859  0.00  0.00    -0.019 C 
HETATM    8  C   UNK N   1      32.112   9.746   2.511  0.00  0.00     0.206 C 
HETATM    9  O   UNK N   1      31.140   9.135   1.658  0.00  0.00    -0.375 OA
HETATM   10  C   UNK N   1      30.123  10.119   1.491  0.00  0.00     0.194 C 
HETATM   11  C   UNK N   1      28.745   9.603   1.050  0.00  0.00     0.179 C 
HETATM   12  C   UNK N   1      27.664  10.664   1.205  0.00  0.00    -0.056 C 
HETATM   13  C   UNK N   1      26.324  10.430   0.597  0.00  0.00     0.046 C 
HETATM   14  C   UNK N   1      27.859  11.808   1.893  0.00  0.00    -0.004 C 
HETATM   15  C   UNK N   1      29.154  12.143   2.594  0.00  0.00     0.150 C 
HETATM   16  C   UNK N   1      28.876  12.857   3.903  0.00  0.00     0.270 C 
HETATM   17  O   UNK N   1      29.198  12.348   4.970  0.00  0.00    -0.264 OA
HETATM   18  O   UNK N   1      28.289  14.065   3.931  0.00  0.00    -0.315 OA
HETATM   19  C   UNK N   1      28.186  14.914   2.849  0.00  0.00     0.139 C 
HETATM   20  C   UNK N   1      28.920  16.188   3.217  0.00  0.00     0.065 C 
HETATM   21  C   UNK N   1      28.333  16.747   4.537  0.00  0.00     0.131 C 
HETATM   22  C   UNK N   1      29.233  16.557   5.755  0.00  0.00     0.059 C 
HETATM   23  C   UNK N   1      30.583  15.936   5.534  0.00  0.00    -0.019 C 
HETATM   24  C   UNK N   1      31.611  16.536   4.909  0.00  0.00    -0.058 C 
HETATM   25  C   UNK N   1      31.489  17.913   4.339  0.00  0.00     0.046 C 
HETATM   26  O   UNK N   1      27.057  16.198   4.857  0.00  0.00    -0.349 OA
HETATM   27  C   UNK N   1      26.199  16.241   3.726  0.00  0.00     0.167 C 
HETATM   28  C   UNK N   1      24.797  15.702   4.124  0.00  0.00     0.069 C 
HETATM   29  C   UNK N   1      23.687  16.627   3.593  0.00  0.00     0.012 C 
HETATM   30  C   UNK N   1      23.921  18.080   4.043  0.00  0.00     0.011 C 
HETATM   31  C   UNK N   1      23.183  18.311   5.346  0.00  0.00     0.012 C 
HETATM   32  C   UNK N   1      25.432  18.292   4.226  0.00  0.00     0.132 C 
HETATM   33  O   UNK N   1      26.122  17.575   3.233  0.00  0.00    -0.349 OA
HETATM   34  C   UNK N   1      26.718  15.287   2.630  0.00  0.00     0.101 C 
HETATM   35  C   UNK N   1      30.053  10.905   2.757  0.00  0.00     0.128 C 
ENDROOT
BRANCH   1  36
HETATM   36  O   UNK N   1      33.112  14.923   5.925  0.00  0.00    -0.351 OA
BRANCH  36  37
HETATM   37  C   UNK N   1      33.790  15.574   6.994  0.00  0.00     0.263 C 
HETATM   38  O   UNK N   1      33.108  15.437   8.247  0.00  0.00    -0.354 OA
HETATM   39  C   UNK N   1      33.981  15.546   9.353  0.00  0.00     0.152 C 
HETATM   40  C   UNK N   1      35.060  14.452   9.381  0.00  0.00     0.182 C 
HETATM   41  C   UNK N   1      34.578  16.943   9.478  0.00  0.00     0.042 C 
HETATM   42  C   UNK N   1      35.612  14.142   7.991  0.00  0.00     0.157 C 
HETATM   43  C   UNK N   1      35.308  15.255   6.997  0.00  0.00     0.095 C 
BRANCH  40  44
HETATM   44  O   UNK N   1      34.583  13.252   9.942  0.00  0.00    -0.351 OA
BRANCH  44  45
HETATM   45  C   UNK N   1      35.373  12.877  11.057  0.00  0.00     0.263 C 
HETATM   46  C   UNK N   1      35.042  13.549  12.424  0.00  0.00     0.095 C 
HETATM   47  C   UNK N   1      35.359  12.584  13.572  0.00  0.00     0.156 C 
HETATM   48  C   UNK N   1      34.699  11.213  13.343  0.00  0.00     0.175 C 
HETATM   49  C   UNK N   1      34.543  10.921  11.847  0.00  0.00     0.151 C 
HETATM   50  O   UNK N   1      35.597  11.478  11.109  0.00  0.00    -0.354 OA
HETATM   51  C   UNK N   1      34.395   9.440  11.561  0.00  0.00     0.042 C 
BRANCH  47  52
HETATM   52  O   UNK N   1      36.743  12.431  13.686  0.00  0.00    -0.388 OA
HETATM   53  C   UNK N   1      36.913  11.540  14.748  0.00  0.00     0.202 C 
ENDBRANCH  47  52
BRANCH  48  54
HETATM   54  O   UNK N   1      33.438  11.187  13.936  0.00  0.00    -0.390 OA
HETATM   55  H   UNK N   1      32.883  11.518  14.660  0.00  0.00     0.210 HD
ENDBRANCH  48  54
ENDBRANCH  44  45
ENDBRANCH  40  44
BRANCH  42  56
HETATM   56  O   UNK N   1      36.982  13.871   8.053  0.00  0.00    -0.388 OA
HETATM   57  C   UNK N   1      37.120  12.529   7.687  0.00  0.00     0.202 C 
ENDBRANCH  42  56
ENDBRANCH  36  37
ENDBRANCH   1  36
BRANCH  35  58
HETATM   58  O   UNK N   1      29.580  10.077   3.788  0.00  0.00    -0.381 OA
HETATM   59  H   UNK N   1      29.091   9.486   4.382  0.00  0.00     0.211 HD
ENDBRANCH  35  58
BRANCH  11  60
HETATM   60  O   UNK N   1      28.378   8.461   1.765  0.00  0.00    -0.389 OA
HETATM   61  H   UNK N   1      28.585   7.743   2.383  0.00  0.00     0.210 HD
ENDBRANCH  11  60
BRANCH  32  62
HETATM   62  C   UNK N   1      25.942  19.711   4.442  0.00  0.00     0.007 C 
HETATM   63  C   UNK N   1      27.031  20.037   3.438  0.00  0.00     0.012 C 
HETATM   64  C   UNK N   1      26.571  19.786   5.816  0.00  0.00     0.012 C 
ENDBRANCH  32  62
TORSDOF 21
ENDMDL
MODEL 5
REMARK VINA RESULT:      -8.8      2.879     11.176
REMARK  21 active torsions:
REMARK  status: ('A' for Active; 'I' for Inactive)
REMARK    1  A    between atoms: C_3  and  O_2 
REMARK    2  A    between atoms: C_5  and  O_11 
REMARK    3  A    between atoms: C_9  and  O_10 
REMARK    4  A    between atoms: C_12  and  O_11 
REMARK    5  A    between atoms: C_16  and  O_21 
REMARK    6  A    between atoms: C_18  and  O_19 
REMARK    7  A    between atoms: C_22  and  O_21 
REMARK    8  A    between atoms: C_32  and  O_33 
REMARK    9  A    between atoms: C_54  and  C_56 
REMARK   10  A    between atoms: C_60  and  O_61 
REMARK   11  A    between atoms: C_63  and  C_64 
REMARK   12  A    between atoms: C_66  and  C_64 
REMARK   13  A    between atoms: C_81  and  O_82 
REMARK   14  A    between atoms: C_83  and  O_82 
REMARK   15  A    between atoms: C_85  and  O_86 
REMARK   16  A    between atoms: C_88  and  O_89 
REMARK   17  A    between atoms: C_90  and  O_89 
REMARK   18  A    between atoms: C_92  and  O_93 
REMARK   19  A    between atoms: C_95  and  O_96 
REMARK   20  A    between atoms: C_112  and  O_113 
REMARK   21  A    between atoms: C_121  and  O_122 
ROOT
HETATM    1  C   UNK N   1      30.963  15.254   3.203  0.00  0.00     0.160 C 
HETATM    2  C   UNK N   1      32.276  16.053   3.334  0.00  0.00     0.037 C 
HETATM    3  C   UNK N   1      32.076  17.558   3.452  0.00  0.00     0.017 C 
HETATM    4  C   UNK N   1      33.199  15.428   4.340  0.00  0.00    -0.020 C 
HETATM    5  C   UNK N   1      33.562  15.836   5.553  0.00  0.00    -0.003 C 
HETATM    6  C   UNK N   1      33.273  17.091   6.262  0.00  0.00     0.008 C 
HETATM    7  C   UNK N   1      33.362  17.161   7.610  0.00  0.00    -0.019 C 
HETATM    8  C   UNK N   1      33.641  18.446   8.283  0.00  0.00     0.206 C 
HETATM    9  O   UNK N   1      34.682  18.136   9.215  0.00  0.00    -0.375 OA
HETATM   10  C   UNK N   1      34.998  16.768   8.974  0.00  0.00     0.194 C 
HETATM   11  C   UNK N   1      35.705  16.023  10.118  0.00  0.00     0.179 C 
HETATM   12  C   UNK N   1      35.714  14.517   9.895  0.00  0.00    -0.056 C 
HETATM   13  C   UNK N   1      36.568  13.660  10.765  0.00  0.00     0.046 C 
HETATM   14  C   UNK N   1      34.960  13.914   8.952  0.00  0.00    -0.004 C 
HETATM   15  C   UNK N   1      34.020  14.664   8.039  0.00  0.00     0.150 C 
HETATM   16  C   UNK N   1      32.759  13.855   7.801  0.00  0.00     0.270 C 
HETATM   17  O   UNK N   1      31.670  14.273   8.176  0.00  0.00    -0.264 OA
HETATM   18  O   UNK N   1      32.796  12.675   7.160  0.00  0.00    -0.315 OA
HETATM   19  C   UNK N   1      33.847  12.235   6.382  0.00  0.00     0.139 C 
HETATM   20  C   UNK N   1      33.302  12.029   4.983  0.00  0.00     0.065 C 
HETATM   21  C   UNK N   1      32.094  11.062   5.046  0.00  0.00     0.131 C 
HETATM   22  C   UNK N   1      30.738  11.736   4.855  0.00  0.00     0.059 C 
HETATM   23  C   UNK N   1      30.728  13.209   4.559  0.00  0.00    -0.019 C 
HETATM   24  C   UNK N   1      31.130  13.762   3.400  0.00  0.00    -0.058 C 
HETATM   25  C   UNK N   1      31.661  12.931   2.276  0.00  0.00     0.046 C 
HETATM   26  O   UNK N   1      32.036  10.320   6.263  0.00  0.00    -0.349 OA
HETATM   27  C   UNK N   1      33.305   9.755   6.561  0.00  0.00     0.167 C 
HETATM   28  C   UNK N   1      33.193   8.896   7.852  0.00  0.00     0.069 C 
HETATM   29  C   UNK N   1      33.885   7.535   7.662  0.00  0.00     0.012 C 
HETATM   30  C   UNK N   1      33.347   6.814   6.414  0.00  0.00     0.011 C 
HETATM   31  C   UNK N   1      32.195   5.919   6.827  0.00  0.00     0.012 C 
HETATM   32  C   UNK N   1      32.879   7.876   5.406  0.00  0.00     0.132 C 
HETATM   33  O   UNK N   1      33.754   8.976   5.456  0.00  0.00    -0.349 OA
HETATM   34  C   UNK N   1      34.319  10.870   6.887  0.00  0.00     0.101 C 
HETATM   35  C   UNK N   1      33.738  16.088   8.552  0.00  0.00     0.128 C 
ENDROOT
BRANCH   1  36
HETATM   36  O   UNK N   1      29.913  15.776   3.990  0.00  0.00    -0.351 OA
BRANCH  36  37
HETATM   37  C   UNK N   1      28.737  15.885   3.198  0.00  0.00     0.263 C 
HETATM   38  O   UNK N   1      27.797  14.834   3.453  0.00  0.00    -0.354 OA
HETATM   39  C   UNK N   1      26.469  15.209   3.150  0.00  0.00     0.152 C 
HETATM   40  C   UNK N   1      25.965  16.388   3.997  0.00  0.00     0.182 C 
HETATM   41  C   UNK N   1      26.266  15.448   1.658  0.00  0.00     0.042 C 
HETATM   42  C   UNK N   1      27.038  17.454   4.208  0.00  0.00     0.157 C 
HETATM   43  C   UNK N   1      28.171  17.330   3.197  0.00  0.00     0.095 C 
BRANCH  40  44
HETATM   44  O   UNK N   1      25.503  15.973   5.260  0.00  0.00    -0.351 OA
BRANCH  44  45
HETATM   45  C   UNK N   1      24.114  15.703   5.217  0.00  0.00     0.263 C 
HETATM   46  C   UNK N   1      23.375  15.545   6.581  0.00  0.00     0.095 C 
HETATM   47  C   UNK N   1      21.925  16.024   6.450  0.00  0.00     0.156 C 
HETATM   48  C   UNK N   1      21.859  17.432   5.832  0.00  0.00     0.175 C 
HETATM   49  C   UNK N   1      23.049  17.679   4.899  0.00  0.00     0.151 C 
HETATM   50  O   UNK N   1      23.443  16.498   4.255  0.00  0.00    -0.354 OA
HETATM   51  C   UNK N   1      22.779  18.787   3.901  0.00  0.00     0.042 C 
BRANCH  47  52
HETATM   52  O   UNK N   1      21.205  15.126   5.659  0.00  0.00    -0.388 OA
HETATM   53  C   UNK N   1      20.883  14.076   6.521  0.00  0.00     0.202 C 
ENDBRANCH  47  52
BRANCH  48  54
HETATM   54  O   UNK N   1      21.875  18.395   6.840  0.00  0.00    -0.390 OA
HETATM   55  H   UNK N   1      21.689  19.318   7.073  0.00  0.00     0.210 HD
ENDBRANCH  48  54
ENDBRANCH  44  45
ENDBRANCH  40  44
BRANCH  42  56
HETATM   56  O   UNK N   1      26.474  18.734   4.190  0.00  0.00    -0.388 OA
HETATM   57  C   UNK N   1      27.129  19.450   5.196  0.00  0.00     0.202 C 
ENDBRANCH  42  56
ENDBRANCH  36  37
ENDBRANCH   1  36
BRANCH  35  58
HETATM   58  O   UNK N   1      32.845  16.061   9.635  0.00  0.00    -0.381 OA
HETATM   59  H   UNK N   1      32.113  15.933  10.259  0.00  0.00     0.211 HD
ENDBRANCH  35  58
BRANCH  11  60
HETATM   60  O   UNK N   1      35.113  16.306  11.349  0.00  0.00    -0.389 OA
HETATM   61  H   UNK N   1      34.338  16.343  11.932  0.00  0.00     0.210 HD
ENDBRANCH  11  60
BRANCH  32  62
HETATM   62  C   UNK N   1      32.521   7.425   3.996  0.00  0.00     0.007 C 
HETATM   63  C   UNK N   1      33.313   8.217   2.973  0.00  0.00     0.012 C 
HETATM   64  C   UNK N   1      31.059   7.733   3.757  0.00  0.00     0.012 C 
ENDBRANCH  32  62
TORSDOF 21
ENDMDL
MODEL 6
REMARK VINA RESULT:      -8.7      3.347     10.674
REMARK  21 active torsions:
REMARK  status: ('A' for Active; 'I' for Inactive)
REMARK    1  A    between atoms: C_3  and  O_2 
REMARK    2  A    between atoms: C_5  and  O_11 
REMARK    3  A    between atoms: C_9  and  O_10 
REMARK    4  A    between atoms: C_12  and  O_11 
REMARK    5  A    between atoms: C_16  and  O_21 
REMARK    6  A    between atoms: C_18  and  O_19 
REMARK    7  A    between atoms: C_22  and  O_21 
REMARK    8  A    between atoms: C_32  and  O_33 
REMARK    9  A    between atoms: C_54  and  C_56 
REMARK   10  A    between atoms: C_60  and  O_61 
REMARK   11  A    between atoms: C_63  and  C_64 
REMARK   12  A    between atoms: C_66  and  C_64 
REMARK   13  A    between atoms: C_81  and  O_82 
REMARK   14  A    between atoms: C_83  and  O_82 
REMARK   15  A    between atoms: C_85  and  O_86 
REMARK   16  A    between atoms: C_88  and  O_89 
REMARK   17  A    between atoms: C_90  and  O_89 
REMARK   18  A    between atoms: C_92  and  O_93 
REMARK   19  A    between atoms: C_95  and  O_96 
REMARK   20  A    between atoms: C_112  and  O_113 
REMARK   21  A    between atoms: C_121  and  O_122 
ROOT
HETATM    1  C   UNK N   1      31.533  14.899   3.098  0.00  0.00     0.160 C 
HETATM    2  C   UNK N   1      32.859  15.669   3.270  0.00  0.00     0.037 C 
HETATM    3  C   UNK N   1      32.700  17.183   3.270  0.00  0.00     0.017 C 
HETATM    4  C   UNK N   1      33.687  15.092   4.381  0.00  0.00    -0.020 C 
HETATM    5  C   UNK N   1      33.976  15.574   5.587  0.00  0.00    -0.003 C 
HETATM    6  C   UNK N   1      33.678  16.882   6.186  0.00  0.00     0.008 C 
HETATM    7  C   UNK N   1      33.673  17.045   7.529  0.00  0.00    -0.019 C 
HETATM    8  C   UNK N   1      33.946  18.366   8.132  0.00  0.00     0.206 C 
HETATM    9  O   UNK N   1      34.906  18.094   9.156  0.00  0.00    -0.375 OA
HETATM   10  C   UNK N   1      35.194  16.704   9.033  0.00  0.00     0.194 C 
HETATM   11  C   UNK N   1      35.794  16.023  10.273  0.00  0.00     0.179 C 
HETATM   12  C   UNK N   1      35.769  14.504  10.155  0.00  0.00    -0.056 C 
HETATM   13  C   UNK N   1      36.531  13.688  11.142  0.00  0.00     0.046 C 
HETATM   14  C   UNK N   1      35.065  13.858   9.203  0.00  0.00    -0.004 C 
HETATM   15  C   UNK N   1      34.217  14.568   8.174  0.00  0.00     0.150 C 
HETATM   16  C   UNK N   1      32.951  13.778   7.900  0.00  0.00     0.270 C 
HETATM   17  O   UNK N   1      31.852  14.252   8.165  0.00  0.00    -0.264 OA
HETATM   18  O   UNK N   1      32.995  12.555   7.346  0.00  0.00    -0.315 OA
HETATM   19  C   UNK N   1      34.084  12.034   6.678  0.00  0.00     0.139 C 
HETATM   20  C   UNK N   1      33.633  11.745   5.260  0.00  0.00     0.065 C 
HETATM   21  C   UNK N   1      32.393  10.818   5.301  0.00  0.00     0.131 C 
HETATM   22  C   UNK N   1      31.077  11.514   4.965  0.00  0.00     0.059 C 
HETATM   23  C   UNK N   1      31.136  12.962   4.569  0.00  0.00    -0.019 C 
HETATM   24  C   UNK N   1      31.637  13.421   3.408  0.00  0.00    -0.058 C 
HETATM   25  C   UNK N   1      32.220  12.499   2.385  0.00  0.00     0.046 C 
HETATM   26  O   UNK N   1      32.225  10.165   6.558  0.00  0.00    -0.349 OA
HETATM   27  C   UNK N   1      33.450   9.588   6.986  0.00  0.00     0.167 C 
HETATM   28  C   UNK N   1      33.219   8.826   8.320  0.00  0.00     0.069 C 
HETATM   29  C   UNK N   1      33.879   7.436   8.275  0.00  0.00     0.012 C 
HETATM   30  C   UNK N   1      33.407   6.644   7.043  0.00  0.00     0.011 C 
HETATM   31  C   UNK N   1      32.200   5.813   7.431  0.00  0.00     0.012 C 
HETATM   32  C   UNK N   1      33.047   7.644   5.933  0.00  0.00     0.132 C 
HETATM   33  O   UNK N   1      33.951   8.721   5.973  0.00  0.00    -0.349 OA
HETATM   34  C   UNK N   1      34.475  10.695   7.308  0.00  0.00     0.101 C 
HETATM   35  C   UNK N   1      33.946  16.031   8.567  0.00  0.00     0.128 C 
ENDROOT
BRANCH   1  36
HETATM   36  O   UNK N   1      30.447  15.504   3.769  0.00  0.00    -0.351 OA
BRANCH  36  37
HETATM   37  C   UNK N   1      29.320  14.639   3.721  0.00  0.00     0.263 C 
HETATM   38  O   UNK N   1      28.751  14.397   5.014  0.00  0.00    -0.354 OA
HETATM   39  C   UNK N   1      27.381  14.055   4.948  0.00  0.00     0.152 C 
HETATM   40  C   UNK N   1      26.509  15.168   4.346  0.00  0.00     0.182 C 
HETATM   41  C   UNK N   1      27.157  12.714   4.257  0.00  0.00     0.042 C 
HETATM   42  C   UNK N   1      27.186  15.868   3.170  0.00  0.00     0.157 C 
HETATM   43  C   UNK N   1      28.329  15.039   2.596  0.00  0.00     0.095 C 
BRANCH  40  44
HETATM   44  O   UNK N   1      26.165  16.144   5.300  0.00  0.00    -0.351 OA
BRANCH  44  45
HETATM   45  C   UNK N   1      26.797  17.376   5.000  0.00  0.00     0.263 C 
HETATM   46  C   UNK N   1      25.935  18.669   5.123  0.00  0.00     0.095 C 
HETATM   47  C   UNK N   1      26.819  19.852   5.535  0.00  0.00     0.156 C 
HETATM   48  C   UNK N   1      27.661  19.508   6.777  0.00  0.00     0.175 C 
HETATM   49  C   UNK N   1      27.958  18.007   6.842  0.00  0.00     0.151 C 
HETATM   50  O   UNK N   1      28.097  17.461   5.558  0.00  0.00    -0.354 OA
HETATM   51  C   UNK N   1      29.165  17.696   7.705  0.00  0.00     0.042 C 
BRANCH  47  52
HETATM   52  O   UNK N   1      27.659  20.199   4.475  0.00  0.00    -0.388 OA
HETATM   53  C   UNK N   1      26.792  20.510   3.425  0.00  0.00     0.202 C 
ENDBRANCH  47  52
BRANCH  48  54
HETATM   54  O   UNK N   1      26.975  19.877   7.933  0.00  0.00    -0.390 OA
HETATM   55  H   UNK N   1      26.448  20.565   8.370  0.00  0.00     0.210 HD
ENDBRANCH  48  54
ENDBRANCH  44  45
ENDBRANCH  40  44
BRANCH  42  56
HETATM   56  O   UNK N   1      26.250  16.198   2.186  0.00  0.00    -0.388 OA
HETATM   57  C   UNK N   1      25.590  15.006   1.875  0.00  0.00     0.202 C 
ENDBRANCH  42  56
ENDBRANCH  36  37
ENDBRANCH   1  36
BRANCH  35  58
HETATM   58  O   UNK N   1      32.978  16.105   9.581  0.00  0.00    -0.381 OA
HETATM   59  H   UNK N   1      32.464  16.123  10.404  0.00  0.00     0.211 HD
ENDBRANCH  35  58
BRANCH  11  60
HETATM   60  O   UNK N   1      35.125  16.407  11.436  0.00  0.00    -0.389 OA
HETATM   61  H   UNK N   1      34.545  17.015  11.921  0.00  0.00     0.210 HD
ENDBRANCH  11  60
BRANCH  32  62
HETATM   62  C   UNK N   1      32.776   7.106   4.534  0.00  0.00     0.007 C 
HETATM   63  C   UNK N   1      33.668   7.798   3.522  0.00  0.00     0.012 C 
HETATM   64  C   UNK N   1      31.347   7.441   4.166  0.00  0.00     0.012 C 
ENDBRANCH  32  62
TORSDOF 21
ENDMDL
MODEL 7
REMARK VINA RESULT:      -8.7      7.469     10.787
REMARK  21 active torsions:
REMARK  status: ('A' for Active; 'I' for Inactive)
REMARK    1  A    between atoms: C_3  and  O_2 
REMARK    2  A    between atoms: C_5  and  O_11 
REMARK    3  A    between atoms: C_9  and  O_10 
REMARK    4  A    between atoms: C_12  and  O_11 
REMARK    5  A    between atoms: C_16  and  O_21 
REMARK    6  A    between atoms: C_18  and  O_19 
REMARK    7  A    between atoms: C_22  and  O_21 
REMARK    8  A    between atoms: C_32  and  O_33 
REMARK    9  A    between atoms: C_54  and  C_56 
REMARK   10  A    between atoms: C_60  and  O_61 
REMARK   11  A    between atoms: C_63  and  C_64 
REMARK   12  A    between atoms: C_66  and  C_64 
REMARK   13  A    between atoms: C_81  and  O_82 
REMARK   14  A    between atoms: C_83  and  O_82 
REMARK   15  A    between atoms: C_85  and  O_86 
REMARK   16  A    between atoms: C_88  and  O_89 
REMARK   17  A    between atoms: C_90  and  O_89 
REMARK   18  A    between atoms: C_92  and  O_93 
REMARK   19  A    between atoms: C_95  and  O_96 
REMARK   20  A    between atoms: C_112  and  O_113 
REMARK   21  A    between atoms: C_121  and  O_122 
ROOT
HETATM    1  C   UNK N   1      35.678   8.758  11.586  0.00  0.00     0.160 C 
HETATM    2  C   UNK N   1      35.485   7.272  11.218  0.00  0.00     0.037 C 
HETATM    3  C   UNK N   1      35.024   6.401  12.379  0.00  0.00     0.017 C 
HETATM    4  C   UNK N   1      34.719   7.121   9.936  0.00  0.00    -0.020 C 
HETATM    5  C   UNK N   1      33.480   6.691   9.711  0.00  0.00    -0.003 C 
HETATM    6  C   UNK N   1      32.493   6.110  10.631  0.00  0.00     0.008 C 
HETATM    7  C   UNK N   1      31.174   6.121  10.329  0.00  0.00    -0.019 C 
HETATM    8  C   UNK N   1      30.262   5.103  10.890  0.00  0.00     0.206 C 
HETATM    9  O   UNK N   1      29.510   4.646   9.763  0.00  0.00    -0.375 OA
HETATM   10  C   UNK N   1      30.069   5.328   8.644  0.00  0.00     0.194 C 
HETATM   11  C   UNK N   1      29.179   5.428   7.396  0.00  0.00     0.179 C 
HETATM   12  C   UNK N   1      29.725   6.429   6.387  0.00  0.00    -0.056 C 
HETATM   13  C   UNK N   1      29.137   6.474   5.018  0.00  0.00     0.046 C 
HETATM   14  C   UNK N   1      30.711   7.301   6.684  0.00  0.00    -0.004 C 
HETATM   15  C   UNK N   1      31.357   7.387   8.046  0.00  0.00     0.150 C 
HETATM   16  C   UNK N   1      31.662   8.832   8.395  0.00  0.00     0.270 C 
HETATM   17  O   UNK N   1      31.115   9.370   9.350  0.00  0.00    -0.264 OA
HETATM   18  O   UNK N   1      32.545   9.551   7.684  0.00  0.00    -0.315 OA
HETATM   19  C   UNK N   1      33.485   9.018   6.826  0.00  0.00     0.139 C 
HETATM   20  C   UNK N   1      34.846   9.425   7.356  0.00  0.00     0.065 C 
HETATM   21  C   UNK N   1      34.895  10.967   7.493  0.00  0.00     0.131 C 
HETATM   22  C   UNK N   1      34.822  11.473   8.932  0.00  0.00     0.059 C 
HETATM   23  C   UNK N   1      34.787  10.448  10.029  0.00  0.00    -0.019 C 
HETATM   24  C   UNK N   1      35.826   9.673  10.389  0.00  0.00    -0.058 C 
HETATM   25  C   UNK N   1      37.144   9.751   9.688  0.00  0.00     0.046 C 
HETATM   26  O   UNK N   1      33.870  11.627   6.754  0.00  0.00    -0.349 OA
HETATM   27  C   UNK N   1      33.808  11.120   5.428  0.00  0.00     0.167 C 
HETATM   28  C   UNK N   1      32.732  11.905   4.628  0.00  0.00     0.069 C 
HETATM   29  C   UNK N   1      33.271  12.314   3.246  0.00  0.00     0.012 C 
HETATM   30  C   UNK N   1      34.598  13.082   3.380  0.00  0.00     0.011 C 
HETATM   31  C   UNK N   1      34.296  14.566   3.454  0.00  0.00     0.012 C 
HETATM   32  C   UNK N   1      35.307  12.605   4.656  0.00  0.00     0.132 C 
HETATM   33  O   UNK N   1      35.090  11.225   4.815  0.00  0.00    -0.349 OA
HETATM   34  C   UNK N   1      33.332   9.653   5.443  0.00  0.00     0.101 C 
HETATM   35  C   UNK N   1      30.524   6.667   9.121  0.00  0.00     0.128 C 
ENDROOT
BRANCH   1  36
HETATM   36  O   UNK N   1      34.711   9.235  12.499  0.00  0.00    -0.351 OA
BRANCH  36  37
HETATM   37  C   UNK N   1      35.323   9.454  13.765  0.00  0.00     0.263 C 
HETATM   38  O   UNK N   1      36.712   9.792  13.657  0.00  0.00    -0.354 OA
HETATM   39  C   UNK N   1      37.173  10.543  14.762  0.00  0.00     0.152 C 
HETATM   40  C   UNK N   1      36.459  11.895  14.913  0.00  0.00     0.182 C 
HETATM   41  C   UNK N   1      37.151   9.737  16.056  0.00  0.00     0.042 C 
HETATM   42  C   UNK N   1      34.964  11.802  14.615  0.00  0.00     0.157 C 
HETATM   43  C   UNK N   1      34.460  10.365  14.676  0.00  0.00     0.095 C 
BRANCH  40  44
HETATM   44  O   UNK N   1      37.013  12.883  14.077  0.00  0.00    -0.351 OA
BRANCH  44  45
HETATM   45  C   UNK N   1      36.141  13.166  12.997  0.00  0.00     0.263 C 
HETATM   46  C   UNK N   1      35.540  14.603  12.922  0.00  0.00     0.095 C 
HETATM   47  C   UNK N   1      35.311  15.000  11.460  0.00  0.00     0.156 C 
HETATM   48  C   UNK N   1      36.582  14.780  10.619  0.00  0.00     0.175 C 
HETATM   49  C   UNK N   1      37.430  13.640  11.193  0.00  0.00     0.151 C 
HETATM   50  O   UNK N   1      36.623  12.648  11.769  0.00  0.00    -0.354 OA
HETATM   51  C   UNK N   1      38.375  13.051  10.165  0.00  0.00     0.042 C 
BRANCH  47  52
HETATM   52  O   UNK N   1      34.258  14.250  10.931  0.00  0.00    -0.388 OA
HETATM   53  C   UNK N   1      33.792  15.007   9.854  0.00  0.00     0.202 C 
ENDBRANCH  47  52
BRANCH  48  54
HETATM   54  O   UNK N   1      37.350  15.943  10.606  0.00  0.00    -0.390 OA
HETATM   55  H   UNK N   1      38.107  16.411  10.991  0.00  0.00     0.210 HD
ENDBRANCH  48  54
ENDBRANCH  44  45
ENDBRANCH  40  44
BRANCH  42  56
HETATM   56  O   UNK N   1      34.236  12.636  15.468  0.00  0.00    -0.388 OA
HETATM   57  C   UNK N   1      34.917  12.617  16.689  0.00  0.00     0.202 C 
ENDBRANCH  42  56
ENDBRANCH  36  37
ENDBRANCH   1  36
BRANCH  35  58
HETATM   58  O   UNK N   1      29.403   7.432   9.481  0.00  0.00    -0.381 OA
HETATM   59  H   UNK N   1      28.693   7.929   9.917  0.00  0.00     0.211 HD
ENDBRANCH  35  58
BRANCH  11  60
HETATM   60  O   UNK N   1      27.870   5.777   7.733  0.00  0.00    -0.389 OA
HETATM   61  H   UNK N   1      27.036   5.602   8.196  0.00  0.00     0.210 HD
ENDBRANCH  11  60
BRANCH  32  62
HETATM   62  C   UNK N   1      36.747  13.042   4.890  0.00  0.00     0.007 C 
HETATM   63  C   UNK N   1      37.630  11.836   5.143  0.00  0.00     0.012 C 
HETATM   64  C   UNK N   1      36.788  13.889   6.143  0.00  0.00     0.012 C 
ENDBRANCH  32  62
TORSDOF 21
ENDMDL
MODEL 8
REMARK VINA RESULT:      -8.2      3.429      8.653
REMARK  21 active torsions:
REMARK  status: ('A' for Active; 'I' for Inactive)
REMARK    1  A    between atoms: C_3  and  O_2 
REMARK    2  A    between atoms: C_5  and  O_11 
REMARK    3  A    between atoms: C_9  and  O_10 
REMARK    4  A    between atoms: C_12  and  O_11 
REMARK    5  A    between atoms: C_16  and  O_21 
REMARK    6  A    between atoms: C_18  and  O_19 
REMARK    7  A    between atoms: C_22  and  O_21 
REMARK    8  A    between atoms: C_32  and  O_33 
REMARK    9  A    between atoms: C_54  and  C_56 
REMARK   10  A    between atoms: C_60  and  O_61 
REMARK   11  A    between atoms: C_63  and  C_64 
REMARK   12  A    between atoms: C_66  and  C_64 
REMARK   13  A    between atoms: C_81  and  O_82 
REMARK   14  A    between atoms: C_83  and  O_82 
REMARK   15  A    between atoms: C_85  and  O_86 
REMARK   16  A    between atoms: C_88  and  O_89 
REMARK   17  A    between atoms: C_90  and  O_89 
REMARK   18  A    between atoms: C_92  and  O_93 
REMARK   19  A    between atoms: C_95  and  O_96 
REMARK   20  A    between atoms: C_112  and  O_113 
REMARK   21  A    between atoms: C_121  and  O_122 
ROOT
HETATM    1  C   UNK N   1      29.456  11.430   1.887  0.00  0.00     0.160 C 
HETATM    2  C   UNK N   1      30.085  10.952   3.212  0.00  0.00     0.037 C 
HETATM    3  C   UNK N   1      31.374  10.161   3.036  0.00  0.00     0.017 C 
HETATM    4  C   UNK N   1      30.122  12.055   4.230  0.00  0.00    -0.020 C 
HETATM    5  C   UNK N   1      31.146  12.750   4.719  0.00  0.00    -0.003 C 
HETATM    6  C   UNK N   1      32.591  12.586   4.514  0.00  0.00     0.008 C 
HETATM    7  C   UNK N   1      33.444  13.612   4.743  0.00  0.00    -0.019 C 
HETATM    8  C   UNK N   1      34.854  13.357   5.099  0.00  0.00     0.206 C 
HETATM    9  O   UNK N   1      35.090  14.202   6.228  0.00  0.00    -0.375 OA
HETATM   10  C   UNK N   1      33.830  14.805   6.508  0.00  0.00     0.194 C 
HETATM   11  C   UNK N   1      33.867  16.106   7.325  0.00  0.00     0.179 C 
HETATM   12  C   UNK N   1      32.527  16.830   7.300  0.00  0.00    -0.056 C 
HETATM   13  C   UNK N   1      32.301  17.970   8.234  0.00  0.00     0.046 C 
HETATM   14  C   UNK N   1      31.535  16.499   6.449  0.00  0.00    -0.004 C 
HETATM   15  C   UNK N   1      31.655  15.397   5.424  0.00  0.00     0.150 C 
HETATM   16  C   UNK N   1      30.950  15.790   4.140  0.00  0.00     0.270 C 
HETATM   17  O   UNK N   1      31.582  15.925   3.099  0.00  0.00    -0.264 OA
HETATM   18  O   UNK N   1      29.621  15.984   4.102  0.00  0.00    -0.315 OA
HETATM   19  C   UNK N   1      28.735  15.544   5.064  0.00  0.00     0.139 C 
HETATM   20  C   UNK N   1      27.775  14.595   4.375  0.00  0.00     0.065 C 
HETATM   21  C   UNK N   1      27.119  15.320   3.174  0.00  0.00     0.131 C 
HETATM   22  C   UNK N   1      27.637  14.871   1.810  0.00  0.00     0.059 C 
HETATM   23  C   UNK N   1      28.641  13.753   1.780  0.00  0.00    -0.019 C 
HETATM   24  C   UNK N   1      28.367  12.468   2.063  0.00  0.00    -0.058 C 
HETATM   25  C   UNK N   1      26.997  12.027   2.469  0.00  0.00     0.046 C 
HETATM   26  O   UNK N   1      27.253  16.738   3.237  0.00  0.00    -0.349 OA
HETATM   27  C   UNK N   1      26.892  17.215   4.526  0.00  0.00     0.167 C 
HETATM   28  C   UNK N   1      26.980  18.766   4.543  0.00  0.00     0.069 C 
HETATM   29  C   UNK N   1      25.730  19.375   5.203  0.00  0.00     0.012 C 
HETATM   30  C   UNK N   1      24.447  18.855   4.533  0.00  0.00     0.011 C 
HETATM   31  C   UNK N   1      24.054  19.811   3.424  0.00  0.00     0.012 C 
HETATM   32  C   UNK N   1      24.728  17.453   3.971  0.00  0.00     0.132 C 
HETATM   33  O   UNK N   1      25.580  16.765   4.853  0.00  0.00    -0.349 OA
HETATM   34  C   UNK N   1      27.911  16.726   5.577  0.00  0.00     0.101 C 
HETATM   35  C   UNK N   1      33.119  14.975   5.207  0.00  0.00     0.128 C 
ENDROOT
BRANCH   1  36
HETATM   36  O   UNK N   1      30.414  11.828   0.928  0.00  0.00    -0.351 OA
BRANCH  36  37
HETATM   37  C   UNK N   1      30.181  11.130  -0.290  0.00  0.00     0.263 C 
HETATM   38  O   UNK N   1      30.527  11.904  -1.446  0.00  0.00    -0.354 OA
HETATM   39  C   UNK N   1      30.852  11.097  -2.560  0.00  0.00     0.152 C 
HETATM   40  C   UNK N   1      32.075  10.198  -2.319  0.00  0.00     0.182 C 
HETATM   41  C   UNK N   1      29.651  10.306  -3.066  0.00  0.00     0.042 C 
HETATM   42  C   UNK N   1      32.099   9.611  -0.910  0.00  0.00     0.157 C 
HETATM   43  C   UNK N   1      30.731   9.680  -0.241  0.00  0.00     0.095 C 
BRANCH  40  44
HETATM   44  O   UNK N   1      33.286  10.884  -2.530  0.00  0.00    -0.351 OA
BRANCH  44  45
HETATM   45  C   UNK N   1      33.516  11.816  -1.488  0.00  0.00     0.263 C 
HETATM   46  C   UNK N   1      34.663  11.491  -0.482  0.00  0.00     0.095 C 
HETATM   47  C   UNK N   1      35.292  12.791   0.032  0.00  0.00     0.156 C 
HETATM   48  C   UNK N   1      35.689  13.714  -1.133  0.00  0.00     0.175 C 
HETATM   49  C   UNK N   1      34.780  13.491  -2.346  0.00  0.00     0.151 C 
HETATM   50  O   UNK N   1      33.478  13.156  -1.949  0.00  0.00    -0.354 OA
HETATM   51  C   UNK N   1      34.778  14.677  -3.290  0.00  0.00     0.042 C 
BRANCH  47  52
HETATM   52  O   UNK N   1      34.389  13.449   0.870  0.00  0.00    -0.388 OA
HETATM   53  C   UNK N   1      35.161  14.393   1.549  0.00  0.00     0.202 C 
ENDBRANCH  47  52
BRANCH  48  54
HETATM   54  O   UNK N   1      37.008  13.461  -1.512  0.00  0.00    -0.390 OA
HETATM   55  H   UNK N   1      37.646  13.451  -2.242  0.00  0.00     0.210 HD
ENDBRANCH  48  54
ENDBRANCH  44  45
ENDBRANCH  40  44
BRANCH  42  56
HETATM   56  O   UNK N   1      32.594   8.304  -0.926  0.00  0.00    -0.388 OA
HETATM   57  C   UNK N   1      32.001   7.688  -2.033  0.00  0.00     0.202 C 
ENDBRANCH  42  56
ENDBRANCH  36  37
ENDBRANCH   1  36
BRANCH  35  58
HETATM   58  O   UNK N   1      33.803  15.925   4.430  0.00  0.00    -0.381 OA
HETATM   59  H   UNK N   1      34.214  16.710   4.035  0.00  0.00     0.211 HD
ENDBRANCH  35  58
BRANCH  11  60
HETATM   60  O   UNK N   1      34.866  16.965   6.866  0.00  0.00    -0.389 OA
HETATM   61  H   UNK N   1      35.437  17.304   6.158  0.00  0.00     0.210 HD
ENDBRANCH  11  60
BRANCH  32  62
HETATM   62  C   UNK N   1      23.553  16.627   3.465  0.00  0.00     0.007 C 
HETATM   63  C   UNK N   1      22.301  16.953   4.256  0.00  0.00     0.012 C 
HETATM   64  C   UNK N   1      23.861  15.166   3.708  0.00  0.00     0.012 C 
ENDBRANCH  32  62
TORSDOF 21
ENDMDL
MODEL 9
REMARK VINA RESULT:      -8.2      2.969     10.531
REMARK  21 active torsions:
REMARK  status: ('A' for Active; 'I' for Inactive)
REMARK    1  A    between atoms: C_3  and  O_2 
REMARK    2  A    between atoms: C_5  and  O_11 
REMARK    3  A    between atoms: C_9  and  O_10 
REMARK    4  A    between atoms: C_12  and  O_11 
REMARK    5  A    between atoms: C_16  and  O_21 
REMARK    6  A    between atoms: C_18  and  O_19 
REMARK    7  A    between atoms: C_22  and  O_21 
REMARK    8  A    between atoms: C_32  and  O_33 
REMARK    9  A    between atoms: C_54  and  C_56 
REMARK   10  A    between atoms: C_60  and  O_61 
REMARK   11  A    between atoms: C_63  and  C_64 
REMARK   12  A    between atoms: C_66  and  C_64 
REMARK   13  A    between atoms: C_81  and  O_82 
REMARK   14  A    between atoms: C_83  and  O_82 
REMARK   15  A    between atoms: C_85  and  O_86 
REMARK   16  A    between atoms: C_88  and  O_89 
REMARK   17  A    between atoms: C_90  and  O_89 
REMARK   18  A    between atoms: C_92  and  O_93 
REMARK   19  A    between atoms: C_95  and  O_96 
REMARK   20  A    between atoms: C_112  and  O_113 
REMARK   21  A    between atoms: C_121  and  O_122 
ROOT
HETATM    1  C   UNK N   1      26.482  12.060   2.395  0.00  0.00     0.160 C 
HETATM    2  C   UNK N   1      25.898  13.201   1.537  0.00  0.00     0.037 C 
HETATM    3  C   UNK N   1      24.380  13.172   1.418  0.00  0.00     0.017 C 
HETATM    4  C   UNK N   1      26.506  14.525   1.901  0.00  0.00    -0.020 C 
HETATM    5  C   UNK N   1      25.984  15.574   2.532  0.00  0.00    -0.003 C 
HETATM    6  C   UNK N   1      24.608  15.830   2.976  0.00  0.00     0.008 C 
HETATM    7  C   UNK N   1      24.351  16.735   3.949  0.00  0.00    -0.019 C 
HETATM    8  C   UNK N   1      23.042  17.417   4.020  0.00  0.00     0.206 C 
HETATM    9  O   UNK N   1      23.374  18.798   4.186  0.00  0.00    -0.375 OA
HETATM   10  C   UNK N   1      24.796  18.848   4.112  0.00  0.00     0.194 C 
HETATM   11  C   UNK N   1      25.465  20.083   4.737  0.00  0.00     0.179 C 
HETATM   12  C   UNK N   1      26.969  19.898   4.890  0.00  0.00    -0.056 C 
HETATM   13  C   UNK N   1      27.812  21.075   5.241  0.00  0.00     0.046 C 
HETATM   14  C   UNK N   1      27.575  18.701   4.744  0.00  0.00    -0.004 C 
HETATM   15  C   UNK N   1      26.827  17.426   4.435  0.00  0.00     0.150 C 
HETATM   16  C   UNK N   1      27.446  16.258   5.181  0.00  0.00     0.270 C 
HETATM   17  O   UNK N   1      26.804  15.650   6.028  0.00  0.00    -0.264 OA
HETATM   18  O   UNK N   1      28.700  15.849   4.923  0.00  0.00    -0.315 OA
HETATM   19  C   UNK N   1      29.417  16.178   3.792  0.00  0.00     0.139 C 
HETATM   20  C   UNK N   1      29.740  14.879   3.082  0.00  0.00     0.065 C 
HETATM   21  C   UNK N   1      30.476  13.934   4.064  0.00  0.00     0.131 C 
HETATM   22  C   UNK N   1      29.625  12.775   4.577  0.00  0.00     0.059 C 
HETATM   23  C   UNK N   1      28.233  12.637   4.030  0.00  0.00    -0.019 C 
HETATM   24  C   UNK N   1      27.934  12.258   2.775  0.00  0.00    -0.058 C 
HETATM   25  C   UNK N   1      29.000  11.951   1.773  0.00  0.00     0.046 C 
HETATM   26  O   UNK N   1      31.006  14.613   5.200  0.00  0.00    -0.349 OA
HETATM   27  C   UNK N   1      31.720  15.773   4.798  0.00  0.00     0.167 C 
HETATM   28  C   UNK N   1      32.344  16.451   6.049  0.00  0.00     0.069 C 
HETATM   29  C   UNK N   1      33.813  16.828   5.788  0.00  0.00     0.012 C 
HETATM   30  C   UNK N   1      34.616  15.608   5.304  0.00  0.00     0.011 C 
HETATM   31  C   UNK N   1      35.238  14.926   6.506  0.00  0.00     0.012 C 
HETATM   32  C   UNK N   1      33.657  14.657   4.572  0.00  0.00     0.132 C 
HETATM   33  O   UNK N   1      32.720  15.416   3.848  0.00  0.00    -0.349 OA
HETATM   34  C   UNK N   1      30.749  16.812   4.199  0.00  0.00     0.101 C 
HETATM   35  C   UNK N   1      25.316  17.573   4.687  0.00  0.00     0.128 C 
ENDROOT
BRANCH   1  36
HETATM   36  O   UNK N   1      25.682  11.740   3.515  0.00  0.00    -0.351 OA
BRANCH  36  37
HETATM   37  C   UNK N   1      25.524  10.328   3.595  0.00  0.00     0.263 C 
HETATM   38  O   UNK N   1      25.661   9.831   4.933  0.00  0.00    -0.354 OA
HETATM   39  C   UNK N   1      24.972   8.613   5.130  0.00  0.00     0.152 C 
HETATM   40  C   UNK N   1      23.455   8.735   4.919  0.00  0.00     0.182 C 
HETATM   41  C   UNK N   1      25.574   7.474   4.315  0.00  0.00     0.042 C 
HETATM   42  C   UNK N   1      23.102   9.637   3.739  0.00  0.00     0.157 C 
HETATM   43  C   UNK N   1      24.286   9.837   2.801  0.00  0.00     0.095 C 
BRANCH  40  44
HETATM   44  O   UNK N   1      22.799   9.231   6.062  0.00  0.00    -0.351 OA
BRANCH  44  45
HETATM   45  C   UNK N   1      22.569  10.623   5.938  0.00  0.00     0.263 C 
HETATM   46  C   UNK N   1      21.095  11.116   6.063  0.00  0.00     0.095 C 
HETATM   47  C   UNK N   1      21.063  12.523   6.669  0.00  0.00     0.156 C 
HETATM   48  C   UNK N   1      21.884  12.586   7.970  0.00  0.00     0.175 C 
HETATM   49  C   UNK N   1      23.026  11.565   7.949  0.00  0.00     0.151 C 
HETATM   50  O   UNK N   1      23.525  11.389   6.651  0.00  0.00    -0.354 OA
HETATM   51  C   UNK N   1      24.134  11.921   8.920  0.00  0.00     0.042 C 
BRANCH  47  52
HETATM   52  O   UNK N   1      21.568  13.442   5.747  0.00  0.00    -0.388 OA
HETATM   53  C   UNK N   1      21.594  14.656   6.437  0.00  0.00     0.202 C 
ENDBRANCH  47  52
BRANCH  48  54
HETATM   54  O   UNK N   1      21.062  12.313   9.064  0.00  0.00    -0.390 OA
HETATM   55  H   UNK N   1      20.468  11.670   9.481  0.00  0.00     0.210 HD
ENDBRANCH  48  54
ENDBRANCH  44  45
ENDBRANCH  40  44
BRANCH  42  56
HETATM   56  O   UNK N   1      21.986   9.144   3.055  0.00  0.00    -0.388 OA
HETATM   57  C   UNK N   1      22.377   7.907   2.534  0.00  0.00     0.202 C 
ENDBRANCH  42  56
ENDBRANCH  36  37
ENDBRANCH   1  36
BRANCH  35  58
HETATM   58  O   UNK N   1      25.033  17.538   6.062  0.00  0.00    -0.381 OA
HETATM   59  H   UNK N   1      24.703  17.374   6.959  0.00  0.00     0.211 HD
ENDBRANCH  35  58
BRANCH  11  60
HETATM   60  O   UNK N   1      24.907  20.389   5.979  0.00  0.00    -0.389 OA
HETATM   61  H   UNK N   1      24.220  20.272   6.654  0.00  0.00     0.210 HD
ENDBRANCH  11  60
BRANCH  32  62
HETATM   62  C   UNK N   1      34.250  13.489   3.795  0.00  0.00     0.007 C 
HETATM   63  C   UNK N   1      33.777  13.520   2.355  0.00  0.00     0.012 C 
HETATM   64  C   UNK N   1      33.731  12.204   4.402  0.00  0.00     0.012 C 
ENDBRANCH  32  62
TORSDOF 21
ENDMDL
