MODEL 1
REMARK VINA RESULT:      -7.8      0.000      0.000
REMARK  11 active torsions:
REMARK  status: ('A' for Active; 'I' for Inactive)
REMARK    1  A    between atoms: C_21  and  C_4 
REMARK    2  A    between atoms: C_14  and  C_13 
REMARK    3  A    between atoms: C_18  and  C_13 
REMARK    4  A    between atoms: N_25  and  C_14 
REMARK    5  A    between atoms: C_19  and  N_27 
REMARK    6  A    between atoms: S_36  and  C_20 
REMARK    7  A    between atoms: N_29  and  C_23 
REMARK    8  A    between atoms: C_23  and  O_32 
REMARK    9  A    between atoms: N_30  and  C_24 
REMARK   10  A    between atoms: O_33  and  C_24 
REMARK   11  A    between atoms: S_36  and  N_29 
ROOT
HETATM    1  C   UNK N   1      29.356  21.894  -6.426  0.00  0.00     0.009 A 
HETATM    2  C   UNK N   1      28.783  20.199  -8.065  0.00  0.00     0.009 A 
HETATM    3  C   UNK N   1      28.192  22.584  -6.739  0.00  0.00     0.026 A 
HETATM    4  C   UNK N   1      27.612  20.891  -8.373  0.00  0.00     0.026 A 
HETATM    5  C   UNK N   1      29.638  20.688  -7.070  0.00  0.00    -0.057 A 
HETATM    6  C   UNK N   1      27.308  22.072  -7.689  0.00  0.00     0.080 A 
ENDROOT
BRANCH   6   7
HETATM    7  S   UNK N   1      25.647  22.707  -7.715  0.00  0.00     0.265 S 
HETATM    8  O   UNK N   1      25.082  22.263  -6.360  0.00  0.00    -0.200 OA
HETATM    9  O   UNK N   1      24.616  22.060  -8.654  0.00  0.00    -0.200 OA
BRANCH   7  10
HETATM   10  N   UNK N   1      25.334  24.428  -7.618  0.00  0.00    -0.246 N 
HETATM   11  H   UNK N   1      24.819  24.862  -8.337  0.00  0.00     0.182 HD
BRANCH  10  12
HETATM   12  C   UNK N   1      25.799  25.208  -6.538  0.00  0.00     0.227 C 
HETATM   13  N   UNK N   1      26.146  26.431  -6.748  0.00  0.00    -0.351 N 
ATOM     14  HN  UNK N   1      26.095  26.797  -7.699  1.00  0.00     0.163 HD
BRANCH  13  15
HETATM   15  C   UNK N   1      26.604  27.310  -5.693  0.00  0.00     0.085 C 
HETATM   16  C   UNK N   1      27.368  28.482  -6.302  0.00  0.00     0.025 C 
HETATM   17  C   UNK N   1      27.895  29.390  -5.188  0.00  0.00     0.006 C 
HETATM   18  C   UNK N   1      26.752  29.910  -4.313  0.00  0.00    -0.019 C 
HETATM   19  C   UNK N   1      27.336  30.691  -3.155  0.00  0.00     0.010 C 
HETATM   20  C   UNK N   1      25.926  28.750  -3.759  0.00  0.00     0.006 C 
HETATM   21  C   UNK N   1      25.418  27.859  -4.890  0.00  0.00     0.025 C 
ENDBRANCH  13  15
BRANCH  12  22
HETATM   22  O   UNK N   1      25.855  24.679  -5.296  0.00  0.00    -0.332 OA
HETATM   23  H   UNK N   1      25.403  24.233  -4.606  0.00  0.00     0.221 HD
ENDBRANCH  12  22
ENDBRANCH  10  12
ENDBRANCH   7  10
ENDBRANCH   6   7
BRANCH   5  24
HETATM   24  C   UNK N   1      30.605  19.753  -6.444  0.00  0.00     0.058 C 
BRANCH  24  25
HETATM   25  C   UNK N   1      31.991  20.430  -6.478  0.00  0.00     0.128 C 
BRANCH  25  26
HETATM   26  N   UNK N   1      32.761  20.089  -5.298  0.00  0.00    -0.356 N 
HETATM   27  C   UNK N   1      32.775  20.656  -4.131  0.00  0.00     0.222 C 
ATOM     28  HN  UNK N   1      33.380  19.286  -5.401  1.00  0.00     0.163 HD
BRANCH  27  29
HETATM   29  N   UNK N   1      31.915  21.742  -3.723  0.00  0.00    -0.276 N 
HETATM   30  C   UNK N   1      30.713  21.456  -2.956  0.00  0.00     0.170 A 
HETATM   31  C   UNK N   1      30.093  22.828  -2.817  0.00  0.00    -0.054 A 
HETATM   32  C   UNK N   1      28.804  23.062  -2.102  0.00  0.00     0.046 C 
HETATM   33  C   UNK N   1      30.845  23.754  -3.423  0.00  0.00     0.013 A 
HETATM   34  C   UNK N   1      31.973  23.070  -3.987  0.00  0.00     0.257 A 
HETATM   35  O   UNK N   1      32.818  23.627  -4.663  0.00  0.00    -0.267 OA
BRANCH  33  36
HETATM   36  C   UNK N   1      30.636  25.243  -3.571  0.00  0.00     0.040 C 
HETATM   37  C   UNK N   1      29.669  25.667  -4.658  0.00  0.00     0.010 C 
ENDBRANCH  33  36
ENDBRANCH  27  29
BRANCH  27  38
HETATM   38  O   UNK N   1      33.688  20.211  -3.243  0.00  0.00    -0.332 OA
HETATM   39  H   UNK N   1      33.565  19.414  -2.767  0.00  0.00     0.220 HD
ENDBRANCH  27  38
ENDBRANCH  25  26
ENDBRANCH  24  25
ENDBRANCH   5  24
TORSDOF 11
ENDMDL
MODEL 2
REMARK VINA RESULT:      -7.7     16.388     20.737
REMARK  11 active torsions:
REMARK  status: ('A' for Active; 'I' for Inactive)
REMARK    1  A    between atoms: C_21  and  C_4 
REMARK    2  A    between atoms: C_14  and  C_13 
REMARK    3  A    between atoms: C_18  and  C_13 
REMARK    4  A    between atoms: N_25  and  C_14 
REMARK    5  A    between atoms: C_19  and  N_27 
REMARK    6  A    between atoms: S_36  and  C_20 
REMARK    7  A    between atoms: N_29  and  C_23 
REMARK    8  A    between atoms: C_23  and  O_32 
REMARK    9  A    between atoms: N_30  and  C_24 
REMARK   10  A    between atoms: O_33  and  C_24 
REMARK   11  A    between atoms: S_36  and  N_29 
ROOT
HETATM    1  C   UNK N   1      32.696  15.630   9.161  0.00  0.00     0.009 A 
HETATM    2  C   UNK N   1      34.444  17.310   9.265  0.00  0.00     0.009 A 
HETATM    3  C   UNK N   1      33.464  14.788   9.955  0.00  0.00     0.026 A 
HETATM    4  C   UNK N   1      35.210  16.464  10.067  0.00  0.00     0.026 A 
HETATM    5  C   UNK N   1      33.175  16.901   8.838  0.00  0.00    -0.057 A 
HETATM    6  C   UNK N   1      34.704  15.212  10.431  0.00  0.00     0.080 A 
ENDROOT
BRANCH   6   7
HETATM    7  S   UNK N   1      35.423  14.330  11.798  0.00  0.00     0.265 S 
HETATM    8  O   UNK N   1      36.617  13.610  11.159  0.00  0.00    -0.200 OA
HETATM    9  O   UNK N   1      34.673  13.125  12.384  0.00  0.00    -0.200 OA
BRANCH   7  10
HETATM   10  N   UNK N   1      36.245  15.179  13.091  0.00  0.00    -0.246 N 
HETATM   11  H   UNK N   1      36.505  16.119  12.956  0.00  0.00     0.182 HD
BRANCH  10  12
HETATM   12  C   UNK N   1      36.544  14.552  14.319  0.00  0.00     0.227 C 
HETATM   13  N   UNK N   1      35.793  13.590  14.734  0.00  0.00    -0.351 N 
ATOM     14  HN  UNK N   1      34.986  13.322  14.169  1.00  0.00     0.163 HD
BRANCH  13  15
HETATM   15  C   UNK N   1      36.044  12.872  15.964  0.00  0.00     0.085 C 
HETATM   16  C   UNK N   1      34.999  13.263  17.005  0.00  0.00     0.025 C 
HETATM   17  C   UNK N   1      35.287  12.542  18.324  0.00  0.00     0.006 C 
HETATM   18  C   UNK N   1      35.291  11.023  18.133  0.00  0.00    -0.019 C 
HETATM   19  C   UNK N   1      35.709  10.365  19.431  0.00  0.00     0.010 C 
HETATM   20  C   UNK N   1      36.275  10.619  17.037  0.00  0.00     0.006 C 
HETATM   21  C   UNK N   1      35.968  11.357  15.735  0.00  0.00     0.025 C 
ENDBRANCH  13  15
BRANCH  12  22
HETATM   22  O   UNK N   1      37.620  14.944  15.036  0.00  0.00    -0.332 OA
HETATM   23  H   UNK N   1      38.518  14.794  15.260  0.00  0.00     0.221 HD
ENDBRANCH  12  22
ENDBRANCH  10  12
ENDBRANCH   7  10
ENDBRANCH   6   7
BRANCH   5  24
HETATM   24  C   UNK N   1      32.210  17.937   8.391  0.00  0.00     0.058 C 
BRANCH  24  25
HETATM   25  C   UNK N   1      30.946  17.205   7.892  0.00  0.00     0.128 C 
BRANCH  25  26
HETATM   26  N   UNK N   1      29.791  17.572   8.685  0.00  0.00    -0.356 N 
HETATM   27  C   UNK N   1      28.633  18.013   8.299  0.00  0.00     0.222 C 
ATOM     28  HN  UNK N   1      29.904  17.468   9.694  1.00  0.00     0.163 HD
BRANCH  27  29
HETATM   29  N   UNK N   1      28.210  18.147   6.925  0.00  0.00    -0.276 N 
HETATM   30  C   UNK N   1      28.214  16.981   6.056  0.00  0.00     0.170 A 
HETATM   31  C   UNK N   1      27.787  17.573   4.732  0.00  0.00    -0.054 A 
HETATM   32  C   UNK N   1      27.652  16.756   3.490  0.00  0.00     0.046 C 
HETATM   33  C   UNK N   1      27.574  18.889   4.844  0.00  0.00     0.013 A 
HETATM   34  C   UNK N   1      27.843  19.238   6.210  0.00  0.00     0.257 A 
HETATM   35  O   UNK N   1      27.802  20.382   6.624  0.00  0.00    -0.267 OA
BRANCH  33  36
HETATM   36  C   UNK N   1      27.158  19.907   3.808  0.00  0.00     0.040 C 
HETATM   37  C   UNK N   1      25.703  19.861   3.388  0.00  0.00     0.010 C 
ENDBRANCH  33  36
ENDBRANCH  27  29
BRANCH  27  38
HETATM   38  O   UNK N   1      27.772  18.403   9.262  0.00  0.00    -0.332 OA
HETATM   39  H   UNK N   1      27.041  17.873   9.515  0.00  0.00     0.220 HD
ENDBRANCH  27  38
ENDBRANCH  25  26
ENDBRANCH  24  25
ENDBRANCH   5  24
TORSDOF 11
ENDMDL
MODEL 3
REMARK VINA RESULT:      -7.6     10.810     13.260
REMARK  11 active torsions:
REMARK  status: ('A' for Active; 'I' for Inactive)
REMARK    1  A    between atoms: C_21  and  C_4 
REMARK    2  A    between atoms: C_14  and  C_13 
REMARK    3  A    between atoms: C_18  and  C_13 
REMARK    4  A    between atoms: N_25  and  C_14 
REMARK    5  A    between atoms: C_19  and  N_27 
REMARK    6  A    between atoms: S_36  and  C_20 
REMARK    7  A    between atoms: N_29  and  C_23 
REMARK    8  A    between atoms: C_23  and  O_32 
REMARK    9  A    between atoms: N_30  and  C_24 
REMARK   10  A    between atoms: O_33  and  C_24 
REMARK   11  A    between atoms: S_36  and  N_29 
ROOT
HETATM    1  C   UNK N   1      24.840  20.430   3.348  0.00  0.00     0.009 A 
HETATM    2  C   UNK N   1      24.134  18.442   4.546  0.00  0.00     0.009 A 
HETATM    3  C   UNK N   1      23.571  20.544   2.798  0.00  0.00     0.026 A 
HETATM    4  C   UNK N   1      22.857  18.562   3.996  0.00  0.00     0.026 A 
HETATM    5  C   UNK N   1      25.114  19.394   4.243  0.00  0.00    -0.057 A 
HETATM    6  C   UNK N   1      22.573  19.631   3.141  0.00  0.00     0.080 A 
ENDROOT
BRANCH   6   7
HETATM    7  S   UNK N   1      20.883  20.074   2.809  0.00  0.00     0.265 S 
HETATM    8  O   UNK N   1      21.004  21.072   1.651  0.00  0.00    -0.200 OA
HETATM    9  O   UNK N   1      20.127  20.943   3.826  0.00  0.00    -0.200 OA
BRANCH   7  10
HETATM   10  N   UNK N   1      19.770  18.925   2.096  0.00  0.00    -0.246 N 
HETATM   11  H   UNK N   1      18.802  19.049   2.230  0.00  0.00     0.182 HD
BRANCH  10  12
HETATM   12  C   UNK N   1      20.223  17.827   1.333  0.00  0.00     0.227 C 
HETATM   13  N   UNK N   1      20.463  16.706   1.923  0.00  0.00    -0.351 N 
ATOM     14  HN  UNK N   1      20.339  16.651   2.935  1.00  0.00     0.163 HD
BRANCH  13  15
HETATM   15  C   UNK N   1      20.900  15.523   1.214  0.00  0.00     0.085 C 
HETATM   16  C   UNK N   1      22.306  15.145   1.672  0.00  0.00     0.025 C 
HETATM   17  C   UNK N   1      22.792  13.921   0.892  0.00  0.00     0.006 C 
HETATM   18  C   UNK N   1      21.844  12.734   1.081  0.00  0.00    -0.019 C 
HETATM   19  C   UNK N   1      22.297  11.598   0.189  0.00  0.00     0.010 C 
HETATM   20  C   UNK N   1      20.415  13.119   0.703  0.00  0.00     0.006 C 
HETATM   21  C   UNK N   1      19.958  14.344   1.492  0.00  0.00     0.025 C 
ENDBRANCH  13  15
BRANCH  12  22
HETATM   22  O   UNK N   1      20.378  17.949  -0.004  0.00  0.00    -0.332 OA
HETATM   23  H   UNK N   1      20.858  17.701  -0.769  0.00  0.00     0.221 HD
ENDBRANCH  12  22
ENDBRANCH  10  12
ENDBRANCH   7  10
ENDBRANCH   6   7
BRANCH   5  24
HETATM   24  C   UNK N   1      26.282  19.523   5.150  0.00  0.00     0.058 C 
BRANCH  24  25
HETATM   25  C   UNK N   1      27.551  19.519   4.273  0.00  0.00     0.128 C 
BRANCH  25  26
HETATM   26  N   UNK N   1      27.772  18.211   3.691  0.00  0.00    -0.356 N 
HETATM   27  C   UNK N   1      28.604  17.281   4.046  0.00  0.00     0.222 C 
ATOM     28  HN  UNK N   1      27.187  17.988   2.886  1.00  0.00     0.163 HD
BRANCH  27  29
HETATM   29  N   UNK N   1      29.459  17.330   5.210  0.00  0.00    -0.276 N 
HETATM   30  C   UNK N   1      30.904  17.319   5.040  0.00  0.00     0.170 A 
HETATM   31  C   UNK N   1      31.389  17.304   6.471  0.00  0.00    -0.054 A 
HETATM   32  C   UNK N   1      32.838  17.275   6.831  0.00  0.00     0.046 C 
HETATM   33  C   UNK N   1      30.359  17.306   7.324  0.00  0.00     0.013 A 
HETATM   34  C   UNK N   1      29.163  17.318   6.532  0.00  0.00     0.257 A 
HETATM   35  O   UNK N   1      28.047  17.259   7.012  0.00  0.00    -0.267 OA
BRANCH  33  36
HETATM   36  C   UNK N   1      30.337  17.276   8.835  0.00  0.00     0.040 C 
HETATM   37  C   UNK N   1      29.983  18.584   9.513  0.00  0.00     0.010 C 
ENDBRANCH  33  36
ENDBRANCH  27  29
BRANCH  27  38
HETATM   38  O   UNK N   1      28.695  16.199   3.246  0.00  0.00    -0.332 OA
HETATM   39  H   UNK N   1      28.262  15.394   3.453  0.00  0.00     0.220 HD
ENDBRANCH  27  38
ENDBRANCH  25  26
ENDBRANCH  24  25
ENDBRANCH   5  24
TORSDOF 11
ENDMDL
MODEL 4
REMARK VINA RESULT:      -7.6     12.082     14.681
REMARK  11 active torsions:
REMARK  status: ('A' for Active; 'I' for Inactive)
REMARK    1  A    between atoms: C_21  and  C_4 
REMARK    2  A    between atoms: C_14  and  C_13 
REMARK    3  A    between atoms: C_18  and  C_13 
REMARK    4  A    between atoms: N_25  and  C_14 
REMARK    5  A    between atoms: C_19  and  N_27 
REMARK    6  A    between atoms: S_36  and  C_20 
REMARK    7  A    between atoms: N_29  and  C_23 
REMARK    8  A    between atoms: C_23  and  O_32 
REMARK    9  A    between atoms: N_30  and  C_24 
REMARK   10  A    between atoms: O_33  and  C_24 
REMARK   11  A    between atoms: S_36  and  N_29 
ROOT
HETATM    1  C   UNK N   1      25.176  20.753   3.212  0.00  0.00     0.009 A 
HETATM    2  C   UNK N   1      25.023  18.949   4.826  0.00  0.00     0.009 A 
HETATM    3  C   UNK N   1      23.878  20.486   2.796  0.00  0.00     0.026 A 
HETATM    4  C   UNK N   1      23.718  18.685   4.410  0.00  0.00     0.026 A 
HETATM    5  C   UNK N   1      25.739  20.002   4.245  0.00  0.00    -0.057 A 
HETATM    6  C   UNK N   1      23.140  19.474   3.410  0.00  0.00     0.080 A 
ENDROOT
BRANCH   6   7
HETATM    7  S   UNK N   1      21.375  19.476   3.195  0.00  0.00     0.265 S 
HETATM    8  O   UNK N   1      21.193  20.122   1.816  0.00  0.00    -0.200 OA
HETATM    9  O   UNK N   1      20.522  20.431   4.045  0.00  0.00    -0.200 OA
BRANCH   7  10
HETATM   10  N   UNK N   1      20.491  17.985   2.945  0.00  0.00    -0.246 N 
HETATM   11  H   UNK N   1      20.293  17.694   2.026  0.00  0.00     0.182 HD
BRANCH  10  12
HETATM   12  C   UNK N   1      20.058  17.188   4.027  0.00  0.00     0.227 C 
HETATM   13  N   UNK N   1      20.853  16.991   5.022  0.00  0.00    -0.351 N 
ATOM     14  HN  UNK N   1      21.787  17.400   4.989  1.00  0.00     0.163 HD
BRANCH  13  15
HETATM   15  C   UNK N   1      20.478  16.215   6.184  0.00  0.00     0.085 C 
HETATM   16  C   UNK N   1      21.237  14.890   6.178  0.00  0.00     0.025 C 
HETATM   17  C   UNK N   1      20.810  14.045   7.381  0.00  0.00     0.006 C 
HETATM   18  C   UNK N   1      21.065  14.787   8.695  0.00  0.00    -0.019 C 
HETATM   19  C   UNK N   1      20.507  13.966   9.838  0.00  0.00     0.010 C 
HETATM   20  C   UNK N   1      20.378  16.151   8.687  0.00  0.00     0.006 C 
HETATM   21  C   UNK N   1      20.818  16.971   7.475  0.00  0.00     0.025 C 
ENDBRANCH  13  15
BRANCH  12  22
HETATM   22  O   UNK N   1      18.813  16.662   4.023  0.00  0.00    -0.332 OA
HETATM   23  H   UNK N   1      18.266  15.927   4.222  0.00  0.00     0.221 HD
ENDBRANCH  12  22
ENDBRANCH  10  12
ENDBRANCH   7  10
ENDBRANCH   6   7
BRANCH   5  24
HETATM   24  C   UNK N   1      26.907  20.554   4.976  0.00  0.00     0.058 C 
BRANCH  24  25
HETATM   25  C   UNK N   1      27.682  19.362   5.576  0.00  0.00     0.128 C 
BRANCH  25  26
HETATM   26  N   UNK N   1      27.418  19.237   6.995  0.00  0.00    -0.356 N 
HETATM   27  C   UNK N   1      28.037  18.528   7.889  0.00  0.00     0.222 C 
ATOM     28  HN  UNK N   1      26.633  19.787   7.342  1.00  0.00     0.163 HD
BRANCH  27  29
HETATM   29  N   UNK N   1      29.232  17.751   7.653  0.00  0.00    -0.276 N 
HETATM   30  C   UNK N   1      29.211  16.685   6.663  0.00  0.00     0.170 A 
HETATM   31  C   UNK N   1      30.601  16.106   6.796  0.00  0.00    -0.054 A 
HETATM   32  C   UNK N   1      31.073  14.949   5.978  0.00  0.00     0.046 C 
HETATM   33  C   UNK N   1      31.303  16.757   7.730  0.00  0.00     0.013 A 
HETATM   34  C   UNK N   1      30.443  17.776   8.260  0.00  0.00     0.257 A 
HETATM   35  O   UNK N   1      30.766  18.506   9.179  0.00  0.00    -0.267 OA
BRANCH  33  36
HETATM   36  C   UNK N   1      32.712  16.537   8.228  0.00  0.00     0.040 C 
HETATM   37  C   UNK N   1      32.902  15.362   9.165  0.00  0.00     0.010 C 
ENDBRANCH  33  36
ENDBRANCH  27  29
BRANCH  27  38
HETATM   38  O   UNK N   1      27.501  18.495   9.126  0.00  0.00    -0.332 OA
HETATM   39  H   UNK N   1      27.069  19.240   9.497  0.00  0.00     0.220 HD
ENDBRANCH  27  38
ENDBRANCH  25  26
ENDBRANCH  24  25
ENDBRANCH   5  24
TORSDOF 11
ENDMDL
MODEL 5
REMARK VINA RESULT:      -7.5     10.798     14.861
REMARK  11 active torsions:
REMARK  status: ('A' for Active; 'I' for Inactive)
REMARK    1  A    between atoms: C_21  and  C_4 
REMARK    2  A    between atoms: C_14  and  C_13 
REMARK    3  A    between atoms: C_18  and  C_13 
REMARK    4  A    between atoms: N_25  and  C_14 
REMARK    5  A    between atoms: C_19  and  N_27 
REMARK    6  A    between atoms: S_36  and  C_20 
REMARK    7  A    between atoms: N_29  and  C_23 
REMARK    8  A    between atoms: C_23  and  O_32 
REMARK    9  A    between atoms: N_30  and  C_24 
REMARK   10  A    between atoms: O_33  and  C_24 
REMARK   11  A    between atoms: S_36  and  N_29 
ROOT
HETATM    1  C   UNK N   1      23.532  18.680   3.794  0.00  0.00     0.009 A 
HETATM    2  C   UNK N   1      24.570  20.595   2.726  0.00  0.00     0.009 A 
HETATM    3  C   UNK N   1      24.785  18.218   4.174  0.00  0.00     0.026 A 
HETATM    4  C   UNK N   1      25.828  20.132   3.114  0.00  0.00     0.026 A 
HETATM    5  C   UNK N   1      23.424  19.882   3.093  0.00  0.00    -0.057 A 
HETATM    6  C   UNK N   1      25.928  18.954   3.861  0.00  0.00     0.080 A 
ENDROOT
BRANCH   6   7
HETATM    7  S   UNK N   1      27.425  18.597   4.753  0.00  0.00     0.265 S 
HETATM    8  O   UNK N   1      26.989  17.512   5.746  0.00  0.00    -0.200 OA
HETATM    9  O   UNK N   1      27.975  19.644   5.734  0.00  0.00    -0.200 OA
BRANCH   7  10
HETATM   10  N   UNK N   1      28.764  17.773   3.981  0.00  0.00    -0.246 N 
HETATM   11  H   UNK N   1      28.643  17.407   3.075  0.00  0.00     0.182 HD
BRANCH  10  12
HETATM   12  C   UNK N   1      30.012  17.621   4.623  0.00  0.00     0.227 C 
HETATM   13  N   UNK N   1      30.049  17.177   5.832  0.00  0.00    -0.351 N 
ATOM     14  HN  UNK N   1      29.167  16.967   6.302  1.00  0.00     0.163 HD
BRANCH  13  15
HETATM   15  C   UNK N   1      31.285  16.962   6.552  0.00  0.00     0.085 C 
HETATM   16  C   UNK N   1      31.177  17.577   7.945  0.00  0.00     0.025 C 
HETATM   17  C   UNK N   1      32.498  17.394   8.695  0.00  0.00     0.006 C 
HETATM   18  C   UNK N   1      32.868  15.913   8.807  0.00  0.00    -0.019 C 
HETATM   19  C   UNK N   1      34.239  15.795   9.437  0.00  0.00     0.010 C 
HETATM   20  C   UNK N   1      32.902  15.259   7.426  0.00  0.00     0.006 C 
HETATM   21  C   UNK N   1      31.575  15.462   6.699  0.00  0.00     0.025 C 
ENDBRANCH  13  15
BRANCH  12  22
HETATM   22  O   UNK N   1      31.153  17.918   3.962  0.00  0.00    -0.332 OA
HETATM   23  H   UNK N   1      31.582  18.463   3.332  0.00  0.00     0.221 HD
ENDBRANCH  12  22
ENDBRANCH  10  12
ENDBRANCH   7  10
ENDBRANCH   6   7
BRANCH   5  24
HETATM   24  C   UNK N   1      22.117  20.587   3.081  0.00  0.00     0.058 C 
BRANCH  24  25
HETATM   25  C   UNK N   1      21.375  20.163   1.796  0.00  0.00     0.128 C 
BRANCH  25  26
HETATM   26  N   UNK N   1      19.985  19.867   2.077  0.00  0.00    -0.356 N 
HETATM   27  C   UNK N   1      19.408  18.719   2.260  0.00  0.00     0.222 C 
ATOM     28  HN  UNK N   1      19.371  20.679   2.141  1.00  0.00     0.163 HD
BRANCH  27  29
HETATM   29  N   UNK N   1      20.087  17.445   2.314  0.00  0.00    -0.276 N 
HETATM   30  C   UNK N   1      20.536  16.926   3.597  0.00  0.00     0.170 A 
HETATM   31  C   UNK N   1      21.241  15.651   3.191  0.00  0.00    -0.054 A 
HETATM   32  C   UNK N   1      21.900  14.745   4.178  0.00  0.00     0.046 C 
HETATM   33  C   UNK N   1      21.192  15.481   1.865  0.00  0.00     0.013 A 
HETATM   34  C   UNK N   1      20.477  16.602   1.328  0.00  0.00     0.257 A 
HETATM   35  O   UNK N   1      20.316  16.778   0.134  0.00  0.00    -0.267 OA
BRANCH  33  36
HETATM   36  C   UNK N   1      21.761  14.384   0.996  0.00  0.00     0.040 C 
HETATM   37  C   UNK N   1      23.273  14.346   0.889  0.00  0.00     0.010 C 
ENDBRANCH  33  36
ENDBRANCH  27  29
BRANCH  27  38
HETATM   38  O   UNK N   1      18.064  18.719   2.379  0.00  0.00    -0.332 OA
HETATM   39  H   UNK N   1      17.573  17.923   2.429  0.00  0.00     0.220 HD
ENDBRANCH  27  38
ENDBRANCH  25  26
ENDBRANCH  24  25
ENDBRANCH   5  24
TORSDOF 11
ENDMDL
MODEL 6
REMARK VINA RESULT:      -7.4     11.211     13.679
REMARK  11 active torsions:
REMARK  status: ('A' for Active; 'I' for Inactive)
REMARK    1  A    between atoms: C_21  and  C_4 
REMARK    2  A    between atoms: C_14  and  C_13 
REMARK    3  A    between atoms: C_18  and  C_13 
REMARK    4  A    between atoms: N_25  and  C_14 
REMARK    5  A    between atoms: C_19  and  N_27 
REMARK    6  A    between atoms: S_36  and  C_20 
REMARK    7  A    between atoms: N_29  and  C_23 
REMARK    8  A    between atoms: C_23  and  O_32 
REMARK    9  A    between atoms: N_30  and  C_24 
REMARK   10  A    between atoms: O_33  and  C_24 
REMARK   11  A    between atoms: S_36  and  N_29 
ROOT
HETATM    1  C   UNK N   1      24.093  18.002   4.323  0.00  0.00     0.009 A 
HETATM    2  C   UNK N   1      25.073  19.962   3.282  0.00  0.00     0.009 A 
HETATM    3  C   UNK N   1      22.824  18.500   4.058  0.00  0.00     0.026 A 
HETATM    4  C   UNK N   1      23.797  20.458   3.012  0.00  0.00     0.026 A 
HETATM    5  C   UNK N   1      25.217  18.720   3.911  0.00  0.00    -0.057 A 
HETATM    6  C   UNK N   1      22.674  19.710   3.381  0.00  0.00     0.080 A 
ENDROOT
BRANCH   6   7
HETATM    7  S   UNK N   1      21.093  20.072   2.651  0.00  0.00     0.265 S 
HETATM    8  O   UNK N   1      21.368  21.339   1.832  0.00  0.00    -0.200 OA
HETATM    9  O   UNK N   1      19.957  20.583   3.551  0.00  0.00    -0.200 OA
BRANCH   7  10
HETATM   10  N   UNK N   1      20.418  19.049   1.400  0.00  0.00    -0.246 N 
HETATM   11  H   UNK N   1      20.362  19.393   0.479  0.00  0.00     0.182 HD
BRANCH  10  12
HETATM   12  C   UNK N   1      19.953  17.745   1.677  0.00  0.00     0.227 C 
HETATM   13  N   UNK N   1      20.248  16.786   0.867  0.00  0.00    -0.351 N 
ATOM     14  HN  UNK N   1      20.792  17.003   0.031  1.00  0.00     0.163 HD
BRANCH  13  15
HETATM   15  C   UNK N   1      19.839  15.417   1.090  0.00  0.00     0.085 C 
HETATM   16  C   UNK N   1      18.730  15.049   0.108  0.00  0.00     0.025 C 
HETATM   17  C   UNK N   1      18.261  13.616   0.370  0.00  0.00     0.006 C 
HETATM   18  C   UNK N   1      19.421  12.624   0.243  0.00  0.00    -0.019 C 
HETATM   19  C   UNK N   1      18.934  11.246   0.639  0.00  0.00     0.010 C 
HETATM   20  C   UNK N   1      20.575  13.023   1.161  0.00  0.00     0.006 C 
HETATM   21  C   UNK N   1      21.018  14.457   0.882  0.00  0.00     0.025 C 
ENDBRANCH  13  15
BRANCH  12  22
HETATM   22  O   UNK N   1      19.229  17.507   2.793  0.00  0.00    -0.332 OA
HETATM   23  H   UNK N   1      18.461  17.124   3.169  0.00  0.00     0.221 HD
ENDBRANCH  12  22
ENDBRANCH  10  12
ENDBRANCH   7  10
ENDBRANCH   6   7
BRANCH   5  24
HETATM   24  C   UNK N   1      26.514  18.009   3.787  0.00  0.00     0.058 C 
BRANCH  24  25
HETATM   25  C   UNK N   1      26.780  17.297   5.130  0.00  0.00     0.128 C 
BRANCH  25  26
HETATM   26  N   UNK N   1      26.896  18.257   6.209  0.00  0.00    -0.356 N 
HETATM   27  C   UNK N   1      27.868  18.437   7.050  0.00  0.00     0.222 C 
ATOM     28  HN  UNK N   1      26.099  18.883   6.322  1.00  0.00     0.163 HD
BRANCH  27  29
HETATM   29  N   UNK N   1      29.133  17.741   7.022  0.00  0.00    -0.276 N 
HETATM   30  C   UNK N   1      29.675  17.189   8.253  0.00  0.00     0.170 A 
HETATM   31  C   UNK N   1      31.004  16.634   7.791  0.00  0.00    -0.054 A 
HETATM   32  C   UNK N   1      31.962  15.961   8.717  0.00  0.00     0.046 C 
HETATM   33  C   UNK N   1      31.180  16.847   6.483  0.00  0.00     0.013 A 
HETATM   34  C   UNK N   1      30.014  17.539   6.013  0.00  0.00     0.257 A 
HETATM   35  O   UNK N   1      29.893  17.936   4.869  0.00  0.00    -0.267 OA
BRANCH  33  36
HETATM   36  C   UNK N   1      32.341  16.498   5.580  0.00  0.00     0.040 C 
HETATM   37  C   UNK N   1      33.524  17.443   5.636  0.00  0.00     0.010 C 
ENDBRANCH  33  36
ENDBRANCH  27  29
BRANCH  27  38
HETATM   38  O   UNK N   1      27.662  19.325   8.045  0.00  0.00    -0.332 OA
HETATM   39  H   UNK N   1      27.357  19.058   8.890  0.00  0.00     0.220 HD
ENDBRANCH  27  38
ENDBRANCH  25  26
ENDBRANCH  24  25
ENDBRANCH   5  24
TORSDOF 11
ENDMDL
MODEL 7
REMARK VINA RESULT:      -7.4      1.459      2.037
REMARK  11 active torsions:
REMARK  status: ('A' for Active; 'I' for Inactive)
REMARK    1  A    between atoms: C_21  and  C_4 
REMARK    2  A    between atoms: C_14  and  C_13 
REMARK    3  A    between atoms: C_18  and  C_13 
REMARK    4  A    between atoms: N_25  and  C_14 
REMARK    5  A    between atoms: C_19  and  N_27 
REMARK    6  A    between atoms: S_36  and  C_20 
REMARK    7  A    between atoms: N_29  and  C_23 
REMARK    8  A    between atoms: C_23  and  O_32 
REMARK    9  A    between atoms: N_30  and  C_24 
REMARK   10  A    between atoms: O_33  and  C_24 
REMARK   11  A    between atoms: S_36  and  N_29 
ROOT
HETATM    1  C   UNK N   1      29.312  21.922  -6.444  0.00  0.00     0.009 A 
HETATM    2  C   UNK N   1      30.043  20.606  -8.347  0.00  0.00     0.009 A 
HETATM    3  C   UNK N   1      28.075  22.102  -7.049  0.00  0.00     0.026 A 
HETATM    4  C   UNK N   1      28.798  20.784  -8.950  0.00  0.00     0.026 A 
HETATM    5  C   UNK N   1      30.286  21.151  -7.081  0.00  0.00    -0.057 A 
HETATM    6  C   UNK N   1      27.807  21.513  -8.285  0.00  0.00     0.080 A 
ENDROOT
BRANCH   6   7
HETATM    7  S   UNK N   1      26.109  21.363  -8.791  0.00  0.00     0.265 S 
HETATM    8  O   UNK N   1      25.631  20.113  -8.042  0.00  0.00    -0.200 OA
HETATM    9  O   UNK N   1      25.796  20.939 -10.234  0.00  0.00    -0.200 OA
BRANCH   7  10
HETATM   10  N   UNK N   1      24.900  22.512  -8.256  0.00  0.00    -0.246 N 
HETATM   11  H   UNK N   1      23.997  22.187  -8.034  0.00  0.00     0.182 HD
BRANCH  10  12
HETATM   12  C   UNK N   1      25.186  23.889  -8.133  0.00  0.00     0.227 C 
HETATM   13  N   UNK N   1      25.472  24.371  -6.973  0.00  0.00    -0.351 N 
ATOM     14  HN  UNK N   1      25.461  23.745  -6.167  1.00  0.00     0.163 HD
BRANCH  13  15
HETATM   15  C   UNK N   1      25.808  25.763  -6.763  0.00  0.00     0.085 C 
HETATM   16  C   UNK N   1      25.258  26.222  -5.415  0.00  0.00     0.025 C 
HETATM   17  C   UNK N   1      25.569  27.706  -5.207  0.00  0.00     0.006 C 
HETATM   18  C   UNK N   1      27.076  27.967  -5.273  0.00  0.00    -0.019 C 
HETATM   19  C   UNK N   1      27.320  29.460  -5.194  0.00  0.00     0.010 C 
HETATM   20  C   UNK N   1      27.659  27.441  -6.583  0.00  0.00     0.006 C 
HETATM   21  C   UNK N   1      27.329  25.961  -6.766  0.00  0.00     0.025 C 
ENDBRANCH  13  15
BRANCH  12  22
HETATM   22  O   UNK N   1      25.182  24.680  -9.228  0.00  0.00    -0.332 OA
HETATM   23  H   UNK N   1      25.027  24.754 -10.149  0.00  0.00     0.221 HD
ENDBRANCH  12  22
ENDBRANCH  10  12
ENDBRANCH   7  10
ENDBRANCH   6   7
BRANCH   5  24
HETATM   24  C   UNK N   1      31.400  20.596  -6.272  0.00  0.00     0.058 C 
BRANCH  24  25
HETATM   25  C   UNK N   1      30.783  19.970  -5.004  0.00  0.00     0.128 C 
BRANCH  25  26
HETATM   26  N   UNK N   1      31.615  20.224  -3.846  0.00  0.00    -0.356 N 
HETATM   27  C   UNK N   1      31.743  21.309  -3.145  0.00  0.00     0.222 C 
ATOM     28  HN  UNK N   1      32.182  19.435  -3.535  1.00  0.00     0.163 HD
BRANCH  27  29
HETATM   29  N   UNK N   1      30.972  22.516  -3.333  0.00  0.00    -0.276 N 
HETATM   30  C   UNK N   1      29.577  22.549  -2.922  0.00  0.00     0.170 A 
HETATM   31  C   UNK N   1      29.152  23.932  -3.361  0.00  0.00    -0.054 A 
HETATM   32  C   UNK N   1      27.765  24.448  -3.166  0.00  0.00     0.046 C 
HETATM   33  C   UNK N   1      30.168  24.583  -3.937  0.00  0.00     0.013 A 
HETATM   34  C   UNK N   1      31.295  23.694  -3.920  0.00  0.00     0.257 A 
HETATM   35  O   UNK N   1      32.365  23.967  -4.431  0.00  0.00    -0.267 OA
BRANCH  33  36
HETATM   36  C   UNK N   1      30.229  25.965  -4.544  0.00  0.00     0.040 C 
HETATM   37  C   UNK N   1      30.486  27.099  -3.573  0.00  0.00     0.010 C 
ENDBRANCH  33  36
ENDBRANCH  27  29
BRANCH  27  38
HETATM   38  O   UNK N   1      32.691  21.313  -2.185  0.00  0.00    -0.332 OA
HETATM   39  H   UNK N   1      33.540  21.680  -2.333  0.00  0.00     0.220 HD
ENDBRANCH  27  38
ENDBRANCH  25  26
ENDBRANCH  24  25
ENDBRANCH   5  24
TORSDOF 11
ENDMDL
MODEL 8
REMARK VINA RESULT:      -7.3     14.706     19.157
REMARK  11 active torsions:
REMARK  status: ('A' for Active; 'I' for Inactive)
REMARK    1  A    between atoms: C_21  and  C_4 
REMARK    2  A    between atoms: C_14  and  C_13 
REMARK    3  A    between atoms: C_18  and  C_13 
REMARK    4  A    between atoms: N_25  and  C_14 
REMARK    5  A    between atoms: C_19  and  N_27 
REMARK    6  A    between atoms: S_36  and  C_20 
REMARK    7  A    between atoms: N_29  and  C_23 
REMARK    8  A    between atoms: C_23  and  O_32 
REMARK    9  A    between atoms: N_30  and  C_24 
REMARK   10  A    between atoms: O_33  and  C_24 
REMARK   11  A    between atoms: S_36  and  N_29 
ROOT
HETATM    1  C   UNK N   1      31.032  16.452   8.589  0.00  0.00     0.009 A 
HETATM    2  C   UNK N   1      32.441  18.412   8.344  0.00  0.00     0.009 A 
HETATM    3  C   UNK N   1      32.147  15.637   8.444  0.00  0.00     0.026 A 
HETATM    4  C   UNK N   1      33.561  17.591   8.204  0.00  0.00     0.026 A 
HETATM    5  C   UNK N   1      31.184  17.840   8.565  0.00  0.00    -0.057 A 
HETATM    6  C   UNK N   1      33.412  16.203   8.280  0.00  0.00     0.080 A 
ENDROOT
BRANCH   6   7
HETATM    7  S   UNK N   1      34.834  15.176   8.575  0.00  0.00     0.265 S 
HETATM    8  O   UNK N   1      35.728  16.061   9.451  0.00  0.00    -0.200 OA
HETATM    9  O   UNK N   1      35.801  14.893   7.415  0.00  0.00    -0.200 OA
BRANCH   7  10
HETATM   10  N   UNK N   1      34.729  13.756   9.595  0.00  0.00    -0.246 N 
HETATM   11  H   UNK N   1      34.820  12.865   9.186  0.00  0.00     0.182 HD
BRANCH  10  12
HETATM   12  C   UNK N   1      34.518  13.855  10.987  0.00  0.00     0.227 C 
HETATM   13  N   UNK N   1      35.099  13.016  11.773  0.00  0.00    -0.351 N 
ATOM     14  HN  UNK N   1      35.681  12.285  11.363  1.00  0.00     0.163 HD
BRANCH  13  15
HETATM   15  C   UNK N   1      34.963  13.065  13.213  0.00  0.00     0.085 C 
HETATM   16  C   UNK N   1      34.502  11.704  13.728  0.00  0.00     0.025 C 
HETATM   17  C   UNK N   1      34.311  11.763  15.245  0.00  0.00     0.006 C 
HETATM   18  C   UNK N   1      35.606  12.175  15.948  0.00  0.00    -0.019 C 
HETATM   19  C   UNK N   1      35.330  12.345  17.427  0.00  0.00     0.010 C 
HETATM   20  C   UNK N   1      36.128  13.497  15.389  0.00  0.00     0.006 C 
HETATM   21  C   UNK N   1      36.303  13.412  13.874  0.00  0.00     0.025 C 
ENDBRANCH  13  15
BRANCH  12  22
HETATM   22  O   UNK N   1      33.733  14.836  11.484  0.00  0.00    -0.332 OA
HETATM   23  H   UNK N   1      33.336  15.224  12.239  0.00  0.00     0.221 HD
ENDBRANCH  12  22
ENDBRANCH  10  12
ENDBRANCH   7  10
ENDBRANCH   6   7
BRANCH   5  24
HETATM   24  C   UNK N   1      30.113  18.686   9.151  0.00  0.00     0.058 C 
BRANCH  24  25
HETATM   25  C   UNK N   1      28.799  17.880   9.084  0.00  0.00     0.128 C 
BRANCH  25  26
HETATM   26  N   UNK N   1      27.873  18.480   8.145  0.00  0.00    -0.356 N 
HETATM   27  C   UNK N   1      27.819  18.364   6.854  0.00  0.00     0.222 C 
ATOM     28  HN  UNK N   1      27.160  19.079   8.560  1.00  0.00     0.163 HD
BRANCH  27  29
HETATM   29  N   UNK N   1      28.658  17.497   6.060  0.00  0.00    -0.276 N 
HETATM   30  C   UNK N   1      29.778  18.060   5.323  0.00  0.00     0.170 A 
HETATM   31  C   UNK N   1      30.317  16.850   4.595  0.00  0.00    -0.054 A 
HETATM   32  C   UNK N   1      31.490  16.920   3.673  0.00  0.00     0.046 C 
HETATM   33  C   UNK N   1      29.598  15.760   4.884  0.00  0.00     0.013 A 
HETATM   34  C   UNK N   1      28.566  16.172   5.793  0.00  0.00     0.257 A 
HETATM   35  O   UNK N   1      27.700  15.420   6.199  0.00  0.00    -0.267 OA
BRANCH  33  36
HETATM   36  C   UNK N   1      29.733  14.337   4.394  0.00  0.00     0.040 C 
HETATM   37  C   UNK N   1      30.893  13.551   4.971  0.00  0.00     0.010 C 
ENDBRANCH  33  36
ENDBRANCH  27  29
BRANCH  27  38
HETATM   38  O   UNK N   1      26.926  19.140   6.205  0.00  0.00    -0.332 OA
HETATM   39  H   UNK N   1      27.107  19.498   5.358  0.00  0.00     0.220 HD
ENDBRANCH  27  38
ENDBRANCH  25  26
ENDBRANCH  24  25
ENDBRANCH   5  24
TORSDOF 11
ENDMDL
MODEL 9
REMARK VINA RESULT:      -7.3     15.993     20.459
REMARK  11 active torsions:
REMARK  status: ('A' for Active; 'I' for Inactive)
REMARK    1  A    between atoms: C_21  and  C_4 
REMARK    2  A    between atoms: C_14  and  C_13 
REMARK    3  A    between atoms: C_18  and  C_13 
REMARK    4  A    between atoms: N_25  and  C_14 
REMARK    5  A    between atoms: C_19  and  N_27 
REMARK    6  A    between atoms: S_36  and  C_20 
REMARK    7  A    between atoms: N_29  and  C_23 
REMARK    8  A    between atoms: C_23  and  O_32 
REMARK    9  A    between atoms: N_30  and  C_24 
REMARK   10  A    between atoms: O_33  and  C_24 
REMARK   11  A    between atoms: S_36  and  N_29 
ROOT
HETATM    1  C   UNK N   1      32.436  15.262   8.664  0.00  0.00     0.009 A 
HETATM    2  C   UNK N   1      33.436  17.469   8.789  0.00  0.00     0.009 A 
HETATM    3  C   UNK N   1      33.575  14.717   9.243  0.00  0.00     0.026 A 
HETATM    4  C   UNK N   1      34.577  16.920   9.375  0.00  0.00     0.026 A 
HETATM    5  C   UNK N   1      32.356  16.641   8.462  0.00  0.00    -0.057 A 
HETATM    6  C   UNK N   1      34.632  15.545   9.623  0.00  0.00     0.080 A 
ENDROOT
BRANCH   6   7
HETATM    7  S   UNK N   1      35.832  14.899  10.765  0.00  0.00     0.265 S 
HETATM    8  O   UNK N   1      36.993  15.895  10.652  0.00  0.00    -0.200 OA
HETATM    9  O   UNK N   1      36.569  13.597  10.414  0.00  0.00    -0.200 OA
BRANCH   7  10
HETATM   10  N   UNK N   1      35.559  14.956  12.494  0.00  0.00    -0.246 N 
HETATM   11  H   UNK N   1      35.580  15.826  12.954  0.00  0.00     0.182 HD
BRANCH  10  12
HETATM   12  C   UNK N   1      35.307  13.787  13.245  0.00  0.00     0.227 C 
HETATM   13  N   UNK N   1      35.853  13.656  14.406  0.00  0.00    -0.351 N 
ATOM     14  HN  UNK N   1      36.472  14.394  14.741  1.00  0.00     0.163 HD
BRANCH  13  15
HETATM   15  C   UNK N   1      35.625  12.506  15.255  0.00  0.00     0.085 C 
HETATM   16  C   UNK N   1      36.817  11.558  15.160  0.00  0.00     0.025 C 
HETATM   17  C   UNK N   1      36.562  10.318  16.020  0.00  0.00     0.006 C 
HETATM   18  C   UNK N   1      36.313  10.701  17.481  0.00  0.00    -0.019 C 
HETATM   19  C   UNK N   1      35.937   9.457  18.258  0.00  0.00     0.010 C 
HETATM   20  C   UNK N   1      35.173  11.713  17.588  0.00  0.00     0.006 C 
HETATM   21  C   UNK N   1      35.452  12.936  16.717  0.00  0.00     0.025 C 
ENDBRANCH  13  15
BRANCH  12  22
HETATM   22  O   UNK N   1      34.485  12.833  12.757  0.00  0.00    -0.332 OA
HETATM   23  H   UNK N   1      34.077  11.999  12.888  0.00  0.00     0.221 HD
ENDBRANCH  12  22
ENDBRANCH  10  12
ENDBRANCH   7  10
ENDBRANCH   6   7
BRANCH   5  24
HETATM   24  C   UNK N   1      31.020  17.260   8.275  0.00  0.00     0.058 C 
BRANCH  24  25
HETATM   25  C   UNK N   1      30.341  16.543   7.089  0.00  0.00     0.128 C 
BRANCH  25  26
HETATM   26  N   UNK N   1      30.524  17.290   5.861  0.00  0.00    -0.356 N 
HETATM   27  C   UNK N   1      31.461  17.190   4.968  0.00  0.00     0.222 C 
ATOM     28  HN  UNK N   1      29.813  17.996   5.671  1.00  0.00     0.163 HD
BRANCH  27  29
HETATM   29  N   UNK N   1      32.513  16.201   4.973  0.00  0.00    -0.276 N 
HETATM   30  C   UNK N   1      32.197  14.816   4.662  0.00  0.00     0.170 A 
HETATM   31  C   UNK N   1      33.535  14.137   4.853  0.00  0.00    -0.054 A 
HETATM   32  C   UNK N   1      33.728  12.669   4.660  0.00  0.00     0.046 C 
HETATM   33  C   UNK N   1      34.469  15.020   5.221  0.00  0.00     0.013 A 
HETATM   34  C   UNK N   1      33.825  16.300   5.297  0.00  0.00     0.257 A 
HETATM   35  O   UNK N   1      34.394  17.309   5.670  0.00  0.00    -0.267 OA
BRANCH  33  36
HETATM   36  C   UNK N   1      35.932  14.822   5.544  0.00  0.00     0.040 C 
HETATM   37  C   UNK N   1      36.229  14.173   6.880  0.00  0.00     0.010 C 
ENDBRANCH  33  36
ENDBRANCH  27  29
BRANCH  27  38
HETATM   38  O   UNK N   1      31.463  18.104   3.976  0.00  0.00    -0.332 OA
HETATM   39  H   UNK N   1      30.957  18.891   4.029  0.00  0.00     0.220 HD
ENDBRANCH  27  38
ENDBRANCH  25  26
ENDBRANCH  24  25
ENDBRANCH   5  24
TORSDOF 11
ENDMDL
