MODEL 1
REMARK VINA RESULT:      -7.1      0.000      0.000
REMARK  1 active torsions:
REMARK  status: ('A' for Active; 'I' for Inactive)
REMARK    1  A    between atoms: C_1  and  N_17 
ROOT
HETATM    1  C   UNK N   1      28.559  23.913  -5.012  0.00  0.00     0.116 C 
HETATM    2  C   UNK N   1      27.865  23.148  -6.123  0.00  0.00     0.035 A 
HETATM    3  C   UNK N   1      26.569  23.418  -6.655  0.00  0.00     0.046 A 
HETATM    4  N   UNK N   1      25.713  24.467  -6.259  0.00  0.00    -0.354 N 
HETATM    5  N   UNK N   1      28.162  25.055  -4.570  0.00  0.00    -0.340 N 
ATOM      6  HN  UNK N   1      28.803  25.422  -3.866  1.00  0.00     0.167 HD
HETATM    7  C   UNK N   1      25.926  25.648  -5.528  0.00  0.00     0.059 A 
HETATM    8  C   UNK N   1      27.087  25.940  -4.790  0.00  0.00     0.062 A 
HETATM    9  C   UNK N   1      26.052  22.588  -7.663  0.00  0.00     0.030 A 
HETATM   10  C   UNK N   1      26.775  21.524  -8.183  0.00  0.00     0.002 A 
HETATM   11  C   UNK N   1      28.044  21.264  -7.699  0.00  0.00     0.001 A 
HETATM   12  C   UNK N   1      28.567  22.063  -6.687  0.00  0.00     0.017 A 
HETATM   13  C   UNK N   1      27.178  27.170  -4.126  0.00  0.00     0.055 A 
HETATM   14  C   UNK N   1      26.151  28.105  -4.181  0.00  0.00     0.036 A 
HETATM   15  C   UNK N   1      24.995  27.812  -4.894  0.00  0.00     0.026 A 
HETATM   16  C   UNK N   1      24.889  26.594  -5.562  0.00  0.00     0.033 A 
HETATM   17 Cl   UNK N   1      26.313  29.631  -3.342  0.00  0.00    -0.084 Cl
HETATM   18  H   UNK N   1      24.781  24.348  -6.554  0.00  0.00     0.166 HD
ENDROOT
BRANCH   1  19
HETATM   19  N   UNK N   1      29.735  23.375  -4.359  0.00  0.00    -0.363 N 
HETATM   20  C   UNK N   1      29.688  22.503  -3.203  0.00  0.00     0.154 C 
HETATM   21  C   UNK N   1      30.628  21.304  -3.394  0.00  0.00     0.291 C 
HETATM   22  N   UNK N   1      31.486  21.445  -4.576  0.00  0.00     0.087 N 
HETATM   23  C   UNK N   1      32.107  22.768  -4.588  0.00  0.00     0.291 C 
HETATM   24  C   UNK N   1      32.555  20.476  -4.438  0.00  0.00     0.310 C 
HETATM   25  C   UNK N   1      31.046  23.860  -4.756  0.00  0.00     0.154 C 
ENDBRANCH   1  19
TORSDOF 1
ENDMDL
MODEL 2
REMARK VINA RESULT:      -7.0     12.193     13.639
REMARK  1 active torsions:
REMARK  status: ('A' for Active; 'I' for Inactive)
REMARK    1  A    between atoms: C_1  and  N_17 
ROOT
HETATM    1  C   UNK N   1      22.652  17.701   4.813  0.00  0.00     0.116 C 
HETATM    2  C   UNK N   1      21.979  18.633   3.821  0.00  0.00     0.035 A 
HETATM    3  C   UNK N   1      22.561  19.785   3.214  0.00  0.00     0.046 A 
HETATM    4  N   UNK N   1      23.880  20.247   3.407  0.00  0.00    -0.354 N 
HETATM    5  N   UNK N   1      23.917  17.698   5.050  0.00  0.00    -0.340 N 
ATOM      6  HN  UNK N   1      24.168  16.956   5.704  1.00  0.00     0.167 HD
HETATM    7  C   UNK N   1      25.033  19.646   3.941  0.00  0.00     0.059 A 
HETATM    8  C   UNK N   1      25.052  18.436   4.656  0.00  0.00     0.062 A 
HETATM    9  C   UNK N   1      21.788  20.566   2.339  0.00  0.00     0.030 A 
HETATM   10  C   UNK N   1      20.477  20.238   2.023  0.00  0.00     0.002 A 
HETATM   11  C   UNK N   1      19.906  19.109   2.581  0.00  0.00     0.001 A 
HETATM   12  C   UNK N   1      20.649  18.332   3.464  0.00  0.00     0.017 A 
HETATM   13  C   UNK N   1      26.279  17.937   5.113  0.00  0.00     0.055 A 
HETATM   14  C   UNK N   1      27.472  18.608   4.874  0.00  0.00     0.036 A 
HETATM   15  C   UNK N   1      27.455  19.814   4.184  0.00  0.00     0.026 A 
HETATM   16  C   UNK N   1      26.243  20.324   3.721  0.00  0.00     0.033 A 
HETATM   17 Cl   UNK N   1      28.981  17.942   5.457  0.00  0.00    -0.084 Cl
HETATM   18  H   UNK N   1      24.020  21.174   3.107  0.00  0.00     0.166 HD
ENDROOT
BRANCH   1  19
HETATM   19  N   UNK N   1      21.879  16.746   5.581  0.00  0.00    -0.363 N 
HETATM   20  C   UNK N   1      21.602  15.394   5.142  0.00  0.00     0.154 C 
HETATM   21  C   UNK N   1      21.861  14.395   6.279  0.00  0.00     0.291 C 
HETATM   22  N   UNK N   1      22.109  15.058   7.563  0.00  0.00     0.087 N 
HETATM   23  C   UNK N   1      21.086  16.074   7.809  0.00  0.00     0.291 C 
HETATM   24  C   UNK N   1      21.960  14.049   8.594  0.00  0.00     0.310 C 
HETATM   25  C   UNK N   1      21.185  17.199   6.776  0.00  0.00     0.154 C 
ENDBRANCH   1  19
TORSDOF 1
ENDMDL
MODEL 3
REMARK VINA RESULT:      -6.9     22.938     26.285
REMARK  1 active torsions:
REMARK  status: ('A' for Active; 'I' for Inactive)
REMARK    1  A    between atoms: C_1  and  N_17 
ROOT
HETATM    1  C   UNK N   1      35.980  12.398  15.747  0.00  0.00     0.116 C 
HETATM    2  C   UNK N   1      36.339  13.779  16.264  0.00  0.00     0.035 A 
HETATM    3  C   UNK N   1      36.064  14.292  17.567  0.00  0.00     0.046 A 
HETATM    4  N   UNK N   1      35.434  13.592  18.617  0.00  0.00    -0.354 N 
HETATM    5  N   UNK N   1      35.594  11.428  16.499  0.00  0.00    -0.340 N 
ATOM      6  HN  UNK N   1      35.462  10.572  15.959  1.00  0.00     0.167 HD
HETATM    7  C   UNK N   1      35.174  12.228  18.834  0.00  0.00     0.059 A 
HETATM    8  C   UNK N   1      35.302  11.220  17.863  0.00  0.00     0.062 A 
HETATM    9  C   UNK N   1      36.431  15.612  17.878  0.00  0.00     0.030 A 
HETATM   10  C   UNK N   1      37.081  16.430  16.964  0.00  0.00     0.002 A 
HETATM   11  C   UNK N   1      37.380  15.940  15.707  0.00  0.00     0.001 A 
HETATM   12  C   UNK N   1      37.009  14.642  15.372  0.00  0.00     0.017 A 
HETATM   13  C   UNK N   1      35.033   9.893  18.222  0.00  0.00     0.055 A 
HETATM   14  C   UNK N   1      34.646   9.553  19.513  0.00  0.00     0.036 A 
HETATM   15  C   UNK N   1      34.501  10.549  20.470  0.00  0.00     0.026 A 
HETATM   16  C   UNK N   1      34.766  11.874  20.130  0.00  0.00     0.033 A 
HETATM   17 Cl   UNK N   1      34.329   7.881  19.918  0.00  0.00    -0.084 Cl
HETATM   18  H   UNK N   1      35.114  14.176  19.342  0.00  0.00     0.166 HD
ENDROOT
BRANCH   1  19
HETATM   19  N   UNK N   1      36.043  12.093  14.331  0.00  0.00    -0.363 N 
HETATM   20  C   UNK N   1      34.935  12.276  13.418  0.00  0.00     0.154 C 
HETATM   21  C   UNK N   1      35.402  12.981  12.137  0.00  0.00     0.291 C 
HETATM   22  N   UNK N   1      36.862  13.100  12.063  0.00  0.00     0.087 N 
HETATM   23  C   UNK N   1      37.485  11.812  12.360  0.00  0.00     0.291 C 
HETATM   24  C   UNK N   1      37.189  13.421  10.686  0.00  0.00     0.310 C 
HETATM   25  C   UNK N   1      37.212  11.403  13.810  0.00  0.00     0.154 C 
ENDBRANCH   1  19
TORSDOF 1
ENDMDL
MODEL 4
REMARK VINA RESULT:      -6.9     10.694     13.053
REMARK  1 active torsions:
REMARK  status: ('A' for Active; 'I' for Inactive)
REMARK    1  A    between atoms: C_1  and  N_17 
ROOT
HETATM    1  C   UNK N   1      29.959  17.590   5.185  0.00  0.00     0.116 C 
HETATM    2  C   UNK N   1      29.991  17.497   6.700  0.00  0.00     0.035 A 
HETATM    3  C   UNK N   1      29.212  18.270   7.611  0.00  0.00     0.046 A 
HETATM    4  N   UNK N   1      28.249  19.240   7.262  0.00  0.00    -0.354 N 
HETATM    5  N   UNK N   1      29.049  18.213   4.523  0.00  0.00    -0.340 N 
ATOM      6  HN  UNK N   1      29.182  18.102   3.518  1.00  0.00     0.167 HD
HETATM    7  C   UNK N   1      27.576  19.529   6.063  0.00  0.00     0.059 A 
HETATM    8  C   UNK N   1      27.918  19.007   4.803  0.00  0.00     0.062 A 
HETATM    9  C   UNK N   1      29.386  18.087   8.993  0.00  0.00     0.030 A 
HETATM   10  C   UNK N   1      30.278  17.154   9.505  0.00  0.00     0.002 A 
HETATM   11  C   UNK N   1      31.021  16.377   8.636  0.00  0.00     0.001 A 
HETATM   12  C   UNK N   1      30.876  16.555   7.264  0.00  0.00     0.017 A 
HETATM   13  C   UNK N   1      27.144  19.360   3.690  0.00  0.00     0.055 A 
HETATM   14  C   UNK N   1      26.049  20.209   3.804  0.00  0.00     0.036 A 
HETATM   15  C   UNK N   1      25.721  20.742   5.044  0.00  0.00     0.026 A 
HETATM   16  C   UNK N   1      26.479  20.400   6.162  0.00  0.00     0.033 A 
HETATM   17 Cl   UNK N   1      25.107  20.616   2.387  0.00  0.00    -0.084 Cl
HETATM   18  H   UNK N   1      28.000  19.833   8.008  0.00  0.00     0.166 HD
ENDROOT
BRANCH   1  19
HETATM   19  N   UNK N   1      30.994  16.974   4.379  0.00  0.00    -0.363 N 
HETATM   20  C   UNK N   1      32.303  17.555   4.165  0.00  0.00     0.154 C 
HETATM   21  C   UNK N   1      33.401  16.501   4.363  0.00  0.00     0.291 C 
HETATM   22  N   UNK N   1      32.858  15.145   4.503  0.00  0.00     0.087 N 
HETATM   23  C   UNK N   1      31.886  14.882   3.443  0.00  0.00     0.291 C 
HETATM   24  C   UNK N   1      33.963  14.226   4.303  0.00  0.00     0.310 C 
HETATM   25  C   UNK N   1      30.667  15.796   3.592  0.00  0.00     0.154 C 
ENDBRANCH   1  19
TORSDOF 1
ENDMDL
MODEL 5
REMARK VINA RESULT:      -6.7     12.116     13.959
REMARK  1 active torsions:
REMARK  status: ('A' for Active; 'I' for Inactive)
REMARK    1  A    between atoms: C_1  and  N_17 
ROOT
HETATM    1  C   UNK N   1      30.032  16.688   5.633  0.00  0.00     0.116 C 
HETATM    2  C   UNK N   1      29.636  17.357   6.937  0.00  0.00     0.035 A 
HETATM    3  C   UNK N   1      28.392  17.996   7.215  0.00  0.00     0.046 A 
HETATM    4  N   UNK N   1      27.294  18.094   6.334  0.00  0.00    -0.354 N 
HETATM    5  N   UNK N   1      29.203  16.404   4.691  0.00  0.00    -0.340 N 
ATOM      6  HN  UNK N   1      29.665  15.905   3.930  1.00  0.00     0.167 HD
HETATM    7  C   UNK N   1      26.959  17.417   5.149  0.00  0.00     0.059 A 
HETATM    8  C   UNK N   1      27.832  16.590   4.419  0.00  0.00     0.062 A 
HETATM    9  C   UNK N   1      28.194  18.603   8.467  0.00  0.00     0.030 A 
HETATM   10  C   UNK N   1      29.166  18.577   9.458  0.00  0.00     0.002 A 
HETATM   11  C   UNK N   1      30.367  17.938   9.214  0.00  0.00     0.001 A 
HETATM   12  C   UNK N   1      30.589  17.347   7.975  0.00  0.00     0.017 A 
HETATM   13  C   UNK N   1      27.358  15.955   3.264  0.00  0.00     0.055 A 
HETATM   14  C   UNK N   1      26.050  16.122   2.826  0.00  0.00     0.036 A 
HETATM   15  C   UNK N   1      25.190  16.952   3.534  0.00  0.00     0.026 A 
HETATM   16  C   UNK N   1      25.645  17.591   4.686  0.00  0.00     0.033 A 
HETATM   17 Cl   UNK N   1      25.500  15.301   1.382  0.00  0.00    -0.084 Cl
HETATM   18  H   UNK N   1      26.632  18.771   6.604  0.00  0.00     0.166 HD
ENDROOT
BRANCH   1  19
HETATM   19  N   UNK N   1      31.412  16.337   5.366  0.00  0.00    -0.363 N 
HETATM   20  C   UNK N   1      32.423  17.290   4.957  0.00  0.00     0.154 C 
HETATM   21  C   UNK N   1      33.710  17.095   5.771  0.00  0.00     0.291 C 
HETATM   22  N   UNK N   1      33.675  15.880   6.592  0.00  0.00     0.087 N 
HETATM   23  C   UNK N   1      33.237  14.742   5.785  0.00  0.00     0.291 C 
HETATM   24  C   UNK N   1      35.040  15.608   7.000  0.00  0.00     0.310 C 
HETATM   25  C   UNK N   1      31.787  14.932   5.329  0.00  0.00     0.154 C 
ENDBRANCH   1  19
TORSDOF 1
ENDMDL
MODEL 6
REMARK VINA RESULT:      -6.7     12.787     15.114
REMARK  1 active torsions:
REMARK  status: ('A' for Active; 'I' for Inactive)
REMARK    1  A    between atoms: C_1  and  N_17 
ROOT
HETATM    1  C   UNK N   1      31.484  16.409   6.622  0.00  0.00     0.116 C 
HETATM    2  C   UNK N   1      30.406  17.192   7.348  0.00  0.00     0.035 A 
HETATM    3  C   UNK N   1      29.109  17.510   6.846  0.00  0.00     0.046 A 
HETATM    4  N   UNK N   1      28.587  17.124   5.593  0.00  0.00    -0.354 N 
HETATM    5  N   UNK N   1      31.278  15.725   5.552  0.00  0.00    -0.340 N 
ATOM      6  HN  UNK N   1      32.121  15.228   5.263  1.00  0.00     0.167 HD
HETATM    7  C   UNK N   1      28.981  16.157   4.652  0.00  0.00     0.059 A 
HETATM    8  C   UNK N   1      30.208  15.471   4.669  0.00  0.00     0.062 A 
HETATM    9  C   UNK N   1      28.235  18.278   7.633  0.00  0.00     0.030 A 
HETATM   10  C   UNK N   1      28.584  18.719   8.902  0.00  0.00     0.002 A 
HETATM   11  C   UNK N   1      29.827  18.397   9.415  0.00  0.00     0.001 A 
HETATM   12  C   UNK N   1      30.713  17.653   8.645  0.00  0.00     0.017 A 
HETATM   13  C   UNK N   1      30.463  14.512   3.680  0.00  0.00     0.055 A 
HETATM   14  C   UNK N   1      29.532  14.223   2.690  0.00  0.00     0.036 A 
HETATM   15  C   UNK N   1      28.326  14.912   2.659  0.00  0.00     0.026 A 
HETATM   16  C   UNK N   1      28.056  15.869   3.636  0.00  0.00     0.033 A 
HETATM   17 Cl   UNK N   1      29.890  13.010   1.480  0.00  0.00    -0.084 Cl
HETATM   18  H   UNK N   1      27.789  17.634   5.325  0.00  0.00     0.166 HD
ENDROOT
BRANCH   1  19
HETATM   19  N   UNK N   1      32.851  16.401   7.105  0.00  0.00    -0.363 N 
HETATM   20  C   UNK N   1      33.751  17.529   6.993  0.00  0.00     0.154 C 
HETATM   21  C   UNK N   1      34.474  17.777   8.325  0.00  0.00     0.291 C 
HETATM   22  N   UNK N   1      34.242  16.703   9.297  0.00  0.00     0.087 N 
HETATM   23  C   UNK N   1      34.464  15.402   8.668  0.00  0.00     0.291 C 
HETATM   24  C   UNK N   1      35.246  16.849  10.333  0.00  0.00     0.310 C 
HETATM   25  C   UNK N   1      33.426  15.150   7.570  0.00  0.00     0.154 C 
ENDBRANCH   1  19
TORSDOF 1
ENDMDL
MODEL 7
REMARK VINA RESULT:      -6.5     19.779     23.152
REMARK  1 active torsions:
REMARK  status: ('A' for Active; 'I' for Inactive)
REMARK    1  A    between atoms: C_1  and  N_17 
ROOT
HETATM    1  C   UNK N   1      35.126  12.660  12.394  0.00  0.00     0.116 C 
HETATM    2  C   UNK N   1      34.774  11.285  11.858  0.00  0.00     0.035 A 
HETATM    3  C   UNK N   1      34.745  10.068  12.603  0.00  0.00     0.046 A 
HETATM    4  N   UNK N   1      35.010   9.934  13.982  0.00  0.00    -0.354 N 
HETATM    5  N   UNK N   1      35.210  12.942  13.647  0.00  0.00    -0.340 N 
ATOM      6  HN  UNK N   1      35.399  13.934  13.790  1.00  0.00     0.167 HD
HETATM    7  C   UNK N   1      35.077  10.862  15.036  0.00  0.00     0.059 A 
HETATM    8  C   UNK N   1      35.115  12.259  14.877  0.00  0.00     0.062 A 
HETATM    9  C   UNK N   1      34.433   8.866  11.947  0.00  0.00     0.030 A 
HETATM   10  C   UNK N   1      34.123   8.826  10.594  0.00  0.00     0.002 A 
HETATM   11  C   UNK N   1      34.120   9.999   9.863  0.00  0.00     0.001 A 
HETATM   12  C   UNK N   1      34.444  11.197  10.490  0.00  0.00     0.017 A 
HETATM   13  C   UNK N   1      35.156  13.070  16.017  0.00  0.00     0.055 A 
HETATM   14  C   UNK N   1      35.159  12.528  17.297  0.00  0.00     0.036 A 
HETATM   15  C   UNK N   1      35.140  11.148  17.457  0.00  0.00     0.026 A 
HETATM   16  C   UNK N   1      35.097  10.326  16.333  0.00  0.00     0.033 A 
HETATM   17 Cl   UNK N   1      35.203  13.582  18.693  0.00  0.00    -0.084 Cl
HETATM   18  H   UNK N   1      35.183   9.006  14.261  0.00  0.00     0.166 HD
ENDROOT
BRANCH   1  19
HETATM   19  N   UNK N   1      35.408  13.761  11.495  0.00  0.00    -0.363 N 
HETATM   20  C   UNK N   1      36.695  13.982  10.870  0.00  0.00     0.154 C 
HETATM   21  C   UNK N   1      36.525  14.281   9.374  0.00  0.00     0.291 C 
HETATM   22  N   UNK N   1      35.121  14.479   8.997  0.00  0.00     0.087 N 
HETATM   23  C   UNK N   1      34.480  15.410   9.924  0.00  0.00     0.291 C 
HETATM   24  C   UNK N   1      35.120  15.112   7.693  0.00  0.00     0.310 C 
HETATM   25  C   UNK N   1      34.414  14.810  11.332  0.00  0.00     0.154 C 
ENDBRANCH   1  19
TORSDOF 1
ENDMDL
MODEL 8
REMARK VINA RESULT:      -6.4     12.550     15.990
REMARK  1 active torsions:
REMARK  status: ('A' for Active; 'I' for Inactive)
REMARK    1  A    between atoms: C_1  and  N_17 
ROOT
HETATM    1  C   UNK N   1      30.774  15.935   6.199  0.00  0.00     0.116 C 
HETATM    2  C   UNK N   1      30.139  16.887   7.197  0.00  0.00     0.035 A 
HETATM    3  C   UNK N   1      30.624  17.188   8.504  0.00  0.00     0.046 A 
HETATM    4  N   UNK N   1      31.800  16.674   9.091  0.00  0.00    -0.354 N 
HETATM    5  N   UNK N   1      31.964  15.459   6.317  0.00  0.00    -0.340 N 
ATOM      6  HN  UNK N   1      32.216  14.889   5.509  1.00  0.00     0.167 HD
HETATM    7  C   UNK N   1      32.926  16.023   8.560  0.00  0.00     0.059 A 
HETATM    8  C   UNK N   1      33.017  15.509   7.254  0.00  0.00     0.062 A 
HETATM    9  C   UNK N   1      29.897  18.068   9.322  0.00  0.00     0.030 A 
HETATM   10  C   UNK N   1      28.729  18.680   8.888  0.00  0.00     0.002 A 
HETATM   11  C   UNK N   1      28.259  18.420   7.614  0.00  0.00     0.001 A 
HETATM   12  C   UNK N   1      28.955  17.538   6.795  0.00  0.00     0.017 A 
HETATM   13  C   UNK N   1      34.211  14.902   6.845  0.00  0.00     0.055 A 
HETATM   14  C   UNK N   1      35.305  14.800   7.697  0.00  0.00     0.036 A 
HETATM   15  C   UNK N   1      35.212  15.290   8.993  0.00  0.00     0.026 A 
HETATM   16  C   UNK N   1      34.031  15.898   9.416  0.00  0.00     0.033 A 
HETATM   17 Cl   UNK N   1      36.779  14.042   7.139  0.00  0.00    -0.084 Cl
HETATM   18  H   UNK N   1      31.839  16.798  10.067  0.00  0.00     0.166 HD
ENDROOT
BRANCH   1  19
HETATM   19  N   UNK N   1      30.044  15.486   5.030  0.00  0.00    -0.363 N 
HETATM   20  C   UNK N   1      29.201  14.308   5.009  0.00  0.00     0.154 C 
HETATM   21  C   UNK N   1      27.857  14.620   4.337  0.00  0.00     0.291 C 
HETATM   22  N   UNK N   1      27.839  15.942   3.702  0.00  0.00     0.087 N 
HETATM   23  C   UNK N   1      29.035  16.118   2.879  0.00  0.00     0.291 C 
HETATM   24  C   UNK N   1      26.700  15.964   2.805  0.00  0.00     0.310 C 
HETATM   25  C   UNK N   1      30.292  16.133   3.753  0.00  0.00     0.154 C 
ENDBRANCH   1  19
TORSDOF 1
ENDMDL
MODEL 9
REMARK VINA RESULT:      -6.4     11.832     13.365
REMARK  1 active torsions:
REMARK  status: ('A' for Active; 'I' for Inactive)
REMARK    1  A    between atoms: C_1  and  N_17 
ROOT
HETATM    1  C   UNK N   1      25.396  17.126   5.127  0.00  0.00     0.116 C 
HETATM    2  C   UNK N   1      25.100  18.387   4.336  0.00  0.00     0.035 A 
HETATM    3  C   UNK N   1      23.812  18.854   3.939  0.00  0.00     0.046 A 
HETATM    4  N   UNK N   1      22.579  18.239   4.239  0.00  0.00    -0.354 N 
HETATM    5  N   UNK N   1      24.500  16.441   5.748  0.00  0.00    -0.340 N 
ATOM      6  HN  UNK N   1      24.918  15.668   6.264  1.00  0.00     0.167 HD
HETATM    7  C   UNK N   1      22.203  17.259   5.173  0.00  0.00     0.059 A 
HETATM    8  C   UNK N   1      23.099  16.465   5.911  0.00  0.00     0.062 A 
HETATM    9  C   UNK N   1      23.711  20.028   3.174  0.00  0.00     0.030 A 
HETATM   10  C   UNK N   1      24.828  20.769   2.812  0.00  0.00     0.002 A 
HETATM   11  C   UNK N   1      26.082  20.345   3.211  0.00  0.00     0.001 A 
HETATM   12  C   UNK N   1      26.205  19.176   3.954  0.00  0.00     0.017 A 
HETATM   13  C   UNK N   1      22.588  15.540   6.830  0.00  0.00     0.055 A 
HETATM   14  C   UNK N   1      21.221  15.391   7.029  0.00  0.00     0.036 A 
HETATM   15  C   UNK N   1      20.332  16.161   6.289  0.00  0.00     0.026 A 
HETATM   16  C   UNK N   1      20.824  17.087   5.371  0.00  0.00     0.033 A 
HETATM   17 Cl   UNK N   1      20.628  14.228   8.194  0.00  0.00    -0.084 Cl
HETATM   18  H   UNK N   1      21.832  18.561   3.683  0.00  0.00     0.166 HD
ENDROOT
BRANCH   1  19
HETATM   19  N   UNK N   1      26.743  16.602   5.217  0.00  0.00    -0.363 N 
HETATM   20  C   UNK N   1      27.363  15.791   4.190  0.00  0.00     0.154 C 
HETATM   21  C   UNK N   1      28.784  16.290   3.892  0.00  0.00     0.291 C 
HETATM   22  N   UNK N   1      29.234  17.305   4.851  0.00  0.00     0.087 N 
HETATM   23  C   UNK N   1      28.975  16.854   6.217  0.00  0.00     0.291 C 
HETATM   24  C   UNK N   1      30.673  17.413   4.706  0.00  0.00     0.310 C 
HETATM   25  C   UNK N   1      27.470  16.736   6.469  0.00  0.00     0.154 C 
ENDBRANCH   1  19
TORSDOF 1
ENDMDL
