MODEL 1
REMARK VINA RESULT:      -6.5      0.000      0.000
REMARK WARNING: 32 MAX_TORS EXCEEDED!!!
REMARK  45 active torsions:
REMARK  status: ('A' for Active; 'I' for Inactive)
REMARK    1  A    between atoms: S_3  and  C_99 
REMARK    2  A    between atoms: O_4  and  C_47 
REMARK    3  A    between atoms: O_4  and  C_51 
REMARK    4  A    between atoms: O_7  and  C_50 
REMARK    5  A    between atoms: C_58  and  O_7 
REMARK    6  A    between atoms: O_8  and  C_48 
REMARK    7  A    between atoms: O_9  and  C_49 
REMARK    8  A    between atoms: O_10  and  C_54 
REMARK    9  A    between atoms: O_10  and  C_63 
REMARK   10  A    between atoms: O_12  and  C_55 
REMARK   11  A    between atoms: O_13  and  C_57 
REMARK   12  A    between atoms: O_14  and  C_59 
REMARK   13  A    between atoms: C_66  and  O_17 
REMARK   14  A    between atoms: C_78  and  O_20 
REMARK   15  A    between atoms: C_60  and  N_25 
REMARK       I    between atoms: N_25  and  C_67 
REMARK       I    between atoms: N_27  and  C_62 
REMARK   16  A    between atoms: C_65  and  N_27 
REMARK       I    between atoms: N_30  and  C_63 
REMARK       I    between atoms: N_31  and  C_73 
REMARK   17  A    between atoms: C_75  and  N_31 
REMARK   18  A    between atoms: C_80  and  N_36 
REMARK   19  A    between atoms: N_36  and  C_84 
REMARK   20  A    between atoms: N_37  and  C_77 
REMARK       I    between atoms: N_38  and  C_81 
REMARK   21  A    between atoms: N_38  and  C_85 
REMARK       I    between atoms: N_39  and  C_86 
REMARK   22  A    between atoms: C_87  and  N_40 
REMARK       I    between atoms: N_41  and  C_89 
REMARK       I    between atoms: N_46  and  C_96 
REMARK   23  A    between atoms: N_46  and  C_97 
REMARK   24  A    between atoms: C_52  and  C_57 
REMARK   25  A    between atoms: C_56  and  C_59 
REMARK   26  A    between atoms: C_58  and  C_60 
REMARK   27  A    between atoms: C_58  and  C_61 
REMARK   28  A    between atoms: C_60  and  C_62 
REMARK   29  A    between atoms: C_65  and  C_66 
REMARK   30  A    between atoms: C_66  and  C_69 
REMARK   31  A    between atoms: C_67  and  C_71 
REMARK   32  A    between atoms: C_69  and  C_73 
REMARK   33  A    between atoms: C_75  and  C_78 
REMARK   34  A    between atoms: C_75  and  C_81 
REMARK   35  A    between atoms: C_76  and  C_80 
REMARK   36  A    between atoms: C_80  and  C_82 
REMARK   37  A    between atoms: C_82  and  C_86 
REMARK   38  A    between atoms: C_84  and  C_87 
REMARK   39  A    between atoms: C_85  and  C_88 
REMARK   40  A    between atoms: C_87  and  C_89 
REMARK   41  A    between atoms: C_88  and  C_90 
REMARK   42  A    between atoms: C_91  and  C_93 
REMARK   43  A    between atoms: C_94  and  C_96 
REMARK   44  A    between atoms: C_97  and  C_98 
REMARK   45  A    between atoms: C_98  and  C_99 
ROOT
HETATM    1  O   UNK N   1      21.337  17.118   6.024  0.00  0.00    -0.348 OA
HETATM    2  O   UNK N   1      22.953  16.729   2.851  0.00  0.00    -0.388 OA
HETATM    3  C   UNK N   1      22.492  16.859   5.247  0.00  0.00     0.292 C 
HETATM    4  C   UNK N   1      22.469  17.559   3.867  0.00  0.00     0.205 C 
HETATM    5  C   UNK N   1      21.076  18.102   3.555  0.00  0.00     0.198 C 
HETATM    6  C   UNK N   1      20.040  17.021   3.849  0.00  0.00     0.181 C 
HETATM    7  C   UNK N   1      20.147  16.708   5.360  0.00  0.00     0.179 C 
HETATM    8  H   UNK N   1      23.282  16.211   2.100  0.00  0.00     0.210 HD
ENDROOT
BRANCH   3   9
HETATM    9  O   UNK N   1      22.807  15.489   5.222  0.00  0.00    -0.346 OA
BRANCH   9  10
HETATM   10  C   UNK N   1      23.364  15.212   6.483  0.00  0.00     0.211 C 
HETATM   11  C   UNK N   1      22.778  13.939   7.091  0.00  0.00     0.183 C 
HETATM   12  C   UNK N   1      23.795  12.798   7.069  0.00  0.00     0.180 C 
HETATM   13  C   UNK N   1      25.083  13.221   7.792  0.00  0.00     0.179 C 
HETATM   14  O   UNK N   1      25.538  14.532   7.505  0.00  0.00    -0.348 OA
HETATM   15  C   UNK N   1      24.910  15.174   6.403  0.00  0.00     0.293 C 
BRANCH  11  16
HETATM   16  O   UNK N   1      22.370  14.208   8.399  0.00  0.00    -0.390 OA
HETATM   17  H   UNK N   1      22.536  14.260   9.353  0.00  0.00     0.210 HD
ENDBRANCH  11  16
BRANCH  12  18
HETATM   18  O   UNK N   1      24.100  12.465   5.748  0.00  0.00    -0.390 OA
HETATM   19  H   UNK N   1      24.265  11.763   5.101  0.00  0.00     0.210 HD
ENDBRANCH  12  18
BRANCH  13  20
HETATM   20  C   UNK N   1      24.899  13.097   9.301  0.00  0.00     0.198 C 
BRANCH  20  21
HETATM   21  O   UNK N   1      25.620  14.094   9.961  0.00  0.00    -0.398 OA
HETATM   22  H   UNK N   1      25.314  14.482  10.795  0.00  0.00     0.209 HD
ENDBRANCH  20  21
ENDBRANCH  13  20
BRANCH  15  23
HETATM   23  O   UNK N   1      25.429  16.477   6.267  0.00  0.00    -0.345 OA
BRANCH  23  24
HETATM   24  C   UNK N   1      25.842  16.604   4.927  0.00  0.00     0.207 C 
BRANCH  24  25
HETATM   25  C   UNK N   1      26.465  15.335   4.379  0.00  0.00     0.212 C 
BRANCH  25  26
HETATM   26  N   UNK N   1      27.862  15.556   4.179  0.00  0.00    -0.340 N 
HETATM   27  C   UNK N   1      28.808  14.697   4.596  0.00  0.00     0.269 C 
HETATM   28  O   UNK N   1      28.507  13.595   5.022  0.00  0.00    -0.266 OA
HETATM   29  H   UNK N   1      28.145  16.377   3.714  0.00  0.00     0.163 HD
BRANCH  27  30
HETATM   30  C   UNK N   1      30.189  15.178   4.614  0.00  0.00     0.111 A 
HETATM   31  N   UNK N   1      30.589  15.846   5.726  0.00  0.00    -0.339 N 
HETATM   32  C   UNK N   1      31.865  16.255   5.892  0.00  0.00     0.106 A 
ATOM     33  HN  UNK N   1      29.905  16.047   6.455  1.00  0.00     0.167 HD
HETATM   34  N   UNK N   1      32.772  16.025   4.905  0.00  0.00    -0.330 N 
HETATM   35  C   UNK N   1      32.426  15.374   3.766  0.00  0.00     0.108 A 
ATOM     36  HN  UNK N   1      33.732  16.351   5.022  1.00  0.00     0.168 HD
HETATM   37  C   UNK N   1      31.117  14.911   3.594  0.00  0.00     0.014 A 
HETATM   38  C   UNK N   1      30.741  14.170   2.349  0.00  0.00     0.055 C 
BRANCH  32  39
HETATM   39  C   UNK N   1      32.280  16.843   7.219  0.00  0.00     0.153 C 
BRANCH  39  40
HETATM   40  N   UNK N   1      31.183  17.573   7.865  0.00  0.00    -0.408 N 
HETATM   41  H   UNK N   1      30.841  18.491   7.581  0.00  0.00     0.154 HD
BRANCH  40  42
HETATM   42  C   UNK N   1      30.650  16.788   8.974  0.00  0.00     0.148 C 
BRANCH  42  43
HETATM   43  C   UNK N   1      29.583  17.576   9.694  0.00  0.00     0.184 C 
BRANCH  43  44
HETATM   44  N   UNK N   1      29.140  16.815  10.849  0.00  0.00    -0.417 N 
HETATM   45  H   UNK N   1      28.879  17.067  11.802  0.00  0.00     0.150 HD
HETATM   46  H   UNK N   1      29.077  15.814  10.667  0.00  0.00     0.150 HD
ENDBRANCH  43  44
BRANCH  43  47
HETATM   47  C   UNK N   1      28.419  17.870   8.793  0.00  0.00     0.239 C 
HETATM   48  O   UNK N   1      28.332  18.939   8.205  0.00  0.00    -0.271 OA
HETATM   49  N   UNK N   1      27.452  16.946   8.636  0.00  0.00    -0.368 N 
HETATM   50  H   UNK N   1      27.591  16.023   8.952  0.00  0.00     0.159 HD
HETATM   51  H   UNK N   1      26.603  17.193   8.203  0.00  0.00     0.159 HD
ENDBRANCH  43  47
ENDBRANCH  42  43
ENDBRANCH  40  42
ENDBRANCH  39  40
BRANCH  39  52
HETATM   52  C   UNK N   1      33.500  17.758   6.997  0.00  0.00     0.135 C 
BRANCH  52  53
HETATM   53  C   UNK N   1      34.269  18.133   8.234  0.00  0.00     0.217 C 
HETATM   54  O   UNK N   1      34.949  19.147   8.270  0.00  0.00    -0.274 OA
HETATM   55  N   UNK N   1      34.209  17.335   9.317  0.00  0.00    -0.370 N 
HETATM   56  H   UNK N   1      34.846  16.702   9.719  0.00  0.00     0.159 HD
HETATM   57  H   UNK N   1      33.355  17.397   9.804  0.00  0.00     0.159 HD
ENDBRANCH  52  53
ENDBRANCH  39  52
ENDBRANCH  32  39
BRANCH  35  58
HETATM   58  N   UNK N   1      33.404  15.123   2.786  0.00  0.00    -0.385 N 
HETATM   59  H   UNK N   1      34.360  15.015   2.993  0.00  0.00     0.157 HD
HETATM   60  H   UNK N   1      33.118  15.053   1.847  0.00  0.00     0.157 HD
ENDBRANCH  35  58
ENDBRANCH  27  30
ENDBRANCH  25  26
BRANCH  25  61
HETATM   61  C   UNK N   1      25.856  14.896   3.095  0.00  0.00     0.243 C 
HETATM   62  O   UNK N   1      25.857  15.637   2.123  0.00  0.00    -0.271 OA
HETATM   63  N   UNK N   1      25.465  13.603   3.004  0.00  0.00    -0.352 N 
HETATM   64  H   UNK N   1      25.297  13.141   3.857  0.00  0.00     0.163 HD
BRANCH  63  65
HETATM   65  C   UNK N   1      25.261  12.811   1.798  0.00  0.00     0.110 C 
HETATM   66  C   UNK N   1      26.325  11.756   1.520  0.00  0.00     0.035 C 
BRANCH  65  67
HETATM   67  C   UNK N   1      23.897  12.142   1.946  0.00  0.00     0.153 C 
BRANCH  67  68
HETATM   68  O   UNK N   1      24.082  10.758   1.902  0.00  0.00    -0.393 OA
HETATM   69  H   UNK N   1      23.762   9.881   1.635  0.00  0.00     0.210 HD
ENDBRANCH  67  68
BRANCH  67  70
HETATM   70  C   UNK N   1      22.982  12.584   0.784  0.00  0.00     0.104 C 
HETATM   71  C   UNK N   1      23.369  12.223  -0.648  0.00  0.00     0.022 C 
BRANCH  70  72
HETATM   72  C   UNK N   1      22.083  13.754   1.004  0.00  0.00     0.224 C 
HETATM   73  O   UNK N   1      22.492  14.880   0.774  0.00  0.00    -0.273 OA
HETATM   74  N   UNK N   1      20.817  13.588   1.420  0.00  0.00    -0.345 N 
HETATM   75  H   UNK N   1      20.230  14.377   1.467  0.00  0.00     0.163 HD
BRANCH  74  76
HETATM   76  C   UNK N   1      20.279  12.308   1.802  0.00  0.00     0.205 C 
BRANCH  76  77
HETATM   77  C   UNK N   1      19.363  11.781   0.700  0.00  0.00     0.146 C 
HETATM   78  C   UNK N   1      19.884  10.420   0.277  0.00  0.00     0.042 C 
BRANCH  77  79
HETATM   79  O   UNK N   1      18.048  11.634   1.144  0.00  0.00    -0.393 OA
HETATM   80  H   UNK N   1      17.490  12.231   1.666  0.00  0.00     0.210 HD
ENDBRANCH  77  79
ENDBRANCH  76  77
BRANCH  76  81
HETATM   81  C   UNK N   1      19.639  12.459   3.147  0.00  0.00     0.243 C 
HETATM   82  O   UNK N   1      18.664  13.182   3.262  0.00  0.00    -0.271 OA
HETATM   83  N   UNK N   1      20.108  11.792   4.226  0.00  0.00    -0.359 N 
HETATM   84  H   UNK N   1      19.673  11.944   5.096  0.00  0.00     0.162 HD
BRANCH  83  85
HETATM   85  C   UNK N   1      21.223  10.865   4.162  0.00  0.00     0.129 C 
BRANCH  85  86
HETATM   86  C   UNK N   1      21.279   9.959   5.396  0.00  0.00     0.084 C 
BRANCH  86  87
HETATM   87  C   UNK N   1      22.657   9.433   5.626  0.00  0.00     0.052 A 
HETATM   88  S   UNK N   1      23.280   8.793   7.010  0.00  0.00    -0.086 SA
HETATM   89  C   UNK N   1      24.798   8.408   6.429  0.00  0.00     0.083 A 
HETATM   90  C   UNK N   1      24.765   8.813   5.079  0.00  0.00     0.073 A 
HETATM   91  N   UNK N   1      23.590   9.370   4.660  0.00  0.00    -0.351 N 
ATOM     92  HN  UNK N   1      23.435   9.705   3.709  1.00  0.00     0.166 HD
BRANCH  90  93
HETATM   93  C   UNK N   1      25.814   8.601   4.093  0.00  0.00     0.102 A 
HETATM   94  S   UNK N   1      27.415   8.270   4.308  0.00  0.00    -0.080 SA
HETATM   95  C   UNK N   1      27.810   7.997   2.709  0.00  0.00     0.087 A 
HETATM   96  C   UNK N   1      26.600   8.184   2.007  0.00  0.00     0.108 A 
HETATM   97  N   UNK N   1      25.520   8.523   2.779  0.00  0.00    -0.344 N 
ATOM     98  HN  UNK N   1      24.589   8.699   2.399  1.00  0.00     0.167 HD
BRANCH  96  99
HETATM   99  C   UNK N   1      26.412   7.929   0.573  0.00  0.00     0.268 C 
HETATM  100  O   UNK N   1      27.271   7.303  -0.031  0.00  0.00    -0.266 OA
HETATM  101  N   UNK N   1      25.361   8.451  -0.097  0.00  0.00    -0.356 N 
HETATM  102  H   UNK N   1      24.669   8.952   0.393  0.00  0.00     0.162 HD
BRANCH 101 103
HETATM  103  C   UNK N   1      25.243   8.278  -1.527  0.00  0.00     0.123 C 
BRANCH 103 104
HETATM  104  C   UNK N   1      23.835   7.886  -1.909  0.00  0.00     0.029 C 
BRANCH 104 105
HETATM  105  C   UNK N   1      22.820   8.532  -0.990  0.00  0.00     0.064 C 
BRANCH 105 106
HETATM  106  S   UNK N   1      21.966   7.194  -0.106  0.00  0.00    -0.228 SA
HETATM  107  C   UNK N   1      20.900   6.051  -1.044  0.00  0.00     0.078 C 
HETATM  108  C   UNK N   1      22.557   6.723   1.552  0.00  0.00     0.078 C 
ENDBRANCH 105 106
ENDBRANCH 104 105
ENDBRANCH 103 104
ENDBRANCH 101 103
ENDBRANCH  96  99
ENDBRANCH  90  93
ENDBRANCH  86  87
ENDBRANCH  85  86
ENDBRANCH  83  85
ENDBRANCH  76  81
ENDBRANCH  74  76
ENDBRANCH  70  72
ENDBRANCH  67  70
ENDBRANCH  65  67
ENDBRANCH  63  65
ENDBRANCH  25  61
ENDBRANCH  24  25
BRANCH  24 109
HETATM  109  C   UNK N   1      26.524  17.913   4.614  0.00  0.00     0.057 A 
HETATM  110  N   UNK N   1      27.482  18.476   5.366  0.00  0.00    -0.352 N 
HETATM  111  C   UNK N   1      27.691  19.683   4.808  0.00  0.00     0.180 A 
HETATM  112  H   UNK N   1      27.933  18.091   6.151  0.00  0.00     0.166 HD
HETATM  113  N   UNK N   1      26.886  19.891   3.742  0.00  0.00    -0.360 N 
HETATM  114  C   UNK N   1      26.142  18.780   3.621  0.00  0.00     0.116 A 
ATOM    115  HN  UNK N   1      26.851  20.722   3.152  1.00  0.00     0.166 HD
ENDBRANCH  24 109
ENDBRANCH  23  24
ENDBRANCH  15  23
ENDBRANCH   9  10
ENDBRANCH   3   9
BRANCH   5 116
HETATM  116  O   UNK N   1      21.036  18.757   2.328  0.00  0.00    -0.293 OA
BRANCH 116 117
HETATM  117  C   UNK N   1      21.089  20.091   2.069  0.00  0.00     0.358 C 
HETATM  118  O   UNK N   1      21.452  20.518   0.984  0.00  0.00    -0.239 OA
HETATM  119  N   UNK N   1      20.708  20.960   3.025  0.00  0.00    -0.346 N 
HETATM  120  H   UNK N   1      20.576  21.920   2.851  0.00  0.00     0.161 HD
HETATM  121  H   UNK N   1      20.557  20.622   3.937  0.00  0.00     0.161 HD
ENDBRANCH 116 117
ENDBRANCH   5 116
BRANCH   6 122
HETATM  122  O   UNK N   1      20.305  15.884   3.079  0.00  0.00    -0.390 OA
HETATM  123  H   UNK N   1      20.192  15.140   2.466  0.00  0.00     0.210 HD
ENDBRANCH   6 122
BRANCH   7 124
HETATM  124  C   UNK N   1      19.591  15.368   5.831  0.00  0.00     0.198 C 
BRANCH 124 125
HETATM  125  O   UNK N   1      18.312  15.145   5.318  0.00  0.00    -0.398 OA
HETATM  126  H   UNK N   1      17.388  14.885   5.454  0.00  0.00     0.209 HD
ENDBRANCH 124 125
ENDBRANCH   7 124
TORSDOF 45
ENDMDL
MODEL 2
REMARK VINA RESULT:      -6.4      2.755      6.543
REMARK WARNING: 32 MAX_TORS EXCEEDED!!!
REMARK  45 active torsions:
REMARK  status: ('A' for Active; 'I' for Inactive)
REMARK    1  A    between atoms: S_3  and  C_99 
REMARK    2  A    between atoms: O_4  and  C_47 
REMARK    3  A    between atoms: O_4  and  C_51 
REMARK    4  A    between atoms: O_7  and  C_50 
REMARK    5  A    between atoms: C_58  and  O_7 
REMARK    6  A    between atoms: O_8  and  C_48 
REMARK    7  A    between atoms: O_9  and  C_49 
REMARK    8  A    between atoms: O_10  and  C_54 
REMARK    9  A    between atoms: O_10  and  C_63 
REMARK   10  A    between atoms: O_12  and  C_55 
REMARK   11  A    between atoms: O_13  and  C_57 
REMARK   12  A    between atoms: O_14  and  C_59 
REMARK   13  A    between atoms: C_66  and  O_17 
REMARK   14  A    between atoms: C_78  and  O_20 
REMARK   15  A    between atoms: C_60  and  N_25 
REMARK       I    between atoms: N_25  and  C_67 
REMARK       I    between atoms: N_27  and  C_62 
REMARK   16  A    between atoms: C_65  and  N_27 
REMARK       I    between atoms: N_30  and  C_63 
REMARK       I    between atoms: N_31  and  C_73 
REMARK   17  A    between atoms: C_75  and  N_31 
REMARK   18  A    between atoms: C_80  and  N_36 
REMARK   19  A    between atoms: N_36  and  C_84 
REMARK   20  A    between atoms: N_37  and  C_77 
REMARK       I    between atoms: N_38  and  C_81 
REMARK   21  A    between atoms: N_38  and  C_85 
REMARK       I    between atoms: N_39  and  C_86 
REMARK   22  A    between atoms: C_87  and  N_40 
REMARK       I    between atoms: N_41  and  C_89 
REMARK       I    between atoms: N_46  and  C_96 
REMARK   23  A    between atoms: N_46  and  C_97 
REMARK   24  A    between atoms: C_52  and  C_57 
REMARK   25  A    between atoms: C_56  and  C_59 
REMARK   26  A    between atoms: C_58  and  C_60 
REMARK   27  A    between atoms: C_58  and  C_61 
REMARK   28  A    between atoms: C_60  and  C_62 
REMARK   29  A    between atoms: C_65  and  C_66 
REMARK   30  A    between atoms: C_66  and  C_69 
REMARK   31  A    between atoms: C_67  and  C_71 
REMARK   32  A    between atoms: C_69  and  C_73 
REMARK   33  A    between atoms: C_75  and  C_78 
REMARK   34  A    between atoms: C_75  and  C_81 
REMARK   35  A    between atoms: C_76  and  C_80 
REMARK   36  A    between atoms: C_80  and  C_82 
REMARK   37  A    between atoms: C_82  and  C_86 
REMARK   38  A    between atoms: C_84  and  C_87 
REMARK   39  A    between atoms: C_85  and  C_88 
REMARK   40  A    between atoms: C_87  and  C_89 
REMARK   41  A    between atoms: C_88  and  C_90 
REMARK   42  A    between atoms: C_91  and  C_93 
REMARK   43  A    between atoms: C_94  and  C_96 
REMARK   44  A    between atoms: C_97  and  C_98 
REMARK   45  A    between atoms: C_98  and  C_99 
ROOT
HETATM    1  O   UNK N   1      20.518  16.368   6.271  0.00  0.00    -0.348 OA
HETATM    2  O   UNK N   1      22.528  16.965   3.367  0.00  0.00    -0.388 OA
HETATM    3  C   UNK N   1      21.781  16.546   5.655  0.00  0.00     0.292 C 
HETATM    4  C   UNK N   1      21.726  17.453   4.402  0.00  0.00     0.205 C 
HETATM    5  C   UNK N   1      20.283  17.681   3.957  0.00  0.00     0.198 C 
HETATM    6  C   UNK N   1      19.550  16.342   3.929  0.00  0.00     0.181 C 
HETATM    7  C   UNK N   1      19.566  15.801   5.377  0.00  0.00     0.179 C 
HETATM    8  H   UNK N   1      23.068  16.687   2.610  0.00  0.00     0.210 HD
ENDROOT
BRANCH   3   9
HETATM    9  O   UNK N   1      22.455  15.324   5.485  0.00  0.00    -0.346 OA
BRANCH   9  10
HETATM   10  C   UNK N   1      22.960  14.997   6.755  0.00  0.00     0.211 C 
HETATM   11  C   UNK N   1      22.249  13.783   7.350  0.00  0.00     0.183 C 
HETATM   12  C   UNK N   1      23.157  12.554   7.345  0.00  0.00     0.180 C 
HETATM   13  C   UNK N   1      24.465  12.857   8.092  0.00  0.00     0.179 C 
HETATM   14  O   UNK N   1      25.044  14.121   7.816  0.00  0.00    -0.348 OA
HETATM   15  C   UNK N   1      24.497  14.818   6.704  0.00  0.00     0.293 C 
BRANCH  11  16
HETATM   16  O   UNK N   1      21.843  14.088   8.650  0.00  0.00    -0.390 OA
HETATM   17  H   UNK N   1      21.856  14.650   9.440  0.00  0.00     0.210 HD
ENDBRANCH  11  16
BRANCH  12  18
HETATM   18  O   UNK N   1      23.455  12.194   6.029  0.00  0.00    -0.390 OA
HETATM   19  H   UNK N   1      23.994  12.355   5.240  0.00  0.00     0.210 HD
ENDBRANCH  12  18
BRANCH  13  20
HETATM   20  C   UNK N   1      24.243  12.750   9.597  0.00  0.00     0.198 C 
BRANCH  20  21
HETATM   21  O   UNK N   1      23.347  11.719   9.883  0.00  0.00    -0.398 OA
HETATM   22  H   UNK N   1      22.821  11.288   9.191  0.00  0.00     0.209 HD
ENDBRANCH  20  21
ENDBRANCH  13  20
BRANCH  15  23
HETATM   23  O   UNK N   1      25.136  16.068   6.579  0.00  0.00    -0.345 OA
BRANCH  23  24
HETATM   24  C   UNK N   1      25.277  16.308   5.200  0.00  0.00     0.207 C 
BRANCH  24  25
HETATM   25  C   UNK N   1      26.058  15.222   4.488  0.00  0.00     0.212 C 
BRANCH  25  26
HETATM   26  N   UNK N   1      27.382  15.696   4.234  0.00  0.00    -0.340 N 
HETATM   27  C   UNK N   1      28.480  15.122   4.755  0.00  0.00     0.269 C 
HETATM   28  O   UNK N   1      28.408  14.055   5.341  0.00  0.00    -0.266 OA
HETATM   29  H   UNK N   1      27.494  16.481   3.650  0.00  0.00     0.163 HD
BRANCH  27  30
HETATM   30  C   UNK N   1      29.730  15.876   4.679  0.00  0.00     0.111 A 
HETATM   31  N   UNK N   1      30.318  16.204   5.858  0.00  0.00    -0.339 N 
HETATM   32  C   UNK N   1      31.520  16.818   5.910  0.00  0.00     0.106 A 
ATOM     33  HN  UNK N   1      29.837  15.983   6.729  1.00  0.00     0.167 HD
HETATM   34  N   UNK N   1      32.147  17.153   4.749  0.00  0.00    -0.330 N 
HETATM   35  C   UNK N   1      31.601  16.862   3.543  0.00  0.00     0.108 A 
ATOM     36  HN  UNK N   1      33.046  17.634   4.788  1.00  0.00     0.168 HD
HETATM   37  C   UNK N   1      30.374  16.193   3.471  0.00  0.00     0.014 A 
HETATM   38  C   UNK N   1      29.783  15.849   2.140  0.00  0.00     0.055 C 
BRANCH  32  39
HETATM   39  C   UNK N   1      32.192  17.004   7.248  0.00  0.00     0.153 C 
BRANCH  39  40
HETATM   40  N   UNK N   1      31.359  17.774   8.179  0.00  0.00    -0.408 N 
HETATM   41  H   UNK N   1      31.266  18.790   8.180  0.00  0.00     0.154 HD
BRANCH  40  42
HETATM   42  C   UNK N   1      30.682  16.870   9.104  0.00  0.00     0.148 C 
BRANCH  42  43
HETATM   43  C   UNK N   1      29.469  17.550   9.689  0.00  0.00     0.184 C 
BRANCH  43  44
HETATM   44  N   UNK N   1      28.907  16.696  10.720  0.00  0.00    -0.417 N 
HETATM   45  H   UNK N   1      28.347  16.871  11.555  0.00  0.00     0.150 HD
HETATM   46  H   UNK N   1      29.117  15.708  10.579  0.00  0.00     0.150 HD
ENDBRANCH  43  44
BRANCH  43  47
HETATM   47  C   UNK N   1      28.438  17.832   8.634  0.00  0.00     0.239 C 
HETATM   48  O   UNK N   1      28.297  17.086   7.676  0.00  0.00    -0.271 OA
HETATM   49  N   UNK N   1      27.661  18.926   8.743  0.00  0.00    -0.368 N 
HETATM   50  H   UNK N   1      27.634  19.435   9.586  0.00  0.00     0.159 HD
HETATM   51  H   UNK N   1      27.117  19.220   7.976  0.00  0.00     0.159 HD
ENDBRANCH  43  47
ENDBRANCH  42  43
ENDBRANCH  40  42
ENDBRANCH  39  40
BRANCH  39  52
HETATM   52  C   UNK N   1      33.557  17.686   7.029  0.00  0.00     0.135 C 
BRANCH  52  53
HETATM   53  C   UNK N   1      34.281  18.115   8.275  0.00  0.00     0.217 C 
HETATM   54  O   UNK N   1      34.905  19.163   8.312  0.00  0.00    -0.274 OA
HETATM   55  N   UNK N   1      34.241  17.326   9.366  0.00  0.00    -0.370 N 
HETATM   56  H   UNK N   1      34.904  16.732   9.788  0.00  0.00     0.159 HD
HETATM   57  H   UNK N   1      33.377  17.349   9.837  0.00  0.00     0.159 HD
ENDBRANCH  52  53
ENDBRANCH  39  52
ENDBRANCH  32  39
BRANCH  35  58
HETATM   58  N   UNK N   1      32.301  17.191   2.367  0.00  0.00    -0.385 N 
HETATM   59  H   UNK N   1      33.073  17.801   2.352  0.00  0.00     0.157 HD
HETATM   60  H   UNK N   1      32.002  16.792   1.518  0.00  0.00     0.157 HD
ENDBRANCH  35  58
ENDBRANCH  27  30
ENDBRANCH  25  26
BRANCH  25  61
HETATM   61  C   UNK N   1      25.438  14.807   3.201  0.00  0.00     0.243 C 
HETATM   62  O   UNK N   1      26.105  14.763   2.177  0.00  0.00    -0.271 OA
HETATM   63  N   UNK N   1      24.174  14.324   3.248  0.00  0.00    -0.352 N 
HETATM   64  H   UNK N   1      23.643  14.582   4.036  0.00  0.00     0.163 HD
BRANCH  63  65
HETATM   65  C   UNK N   1      23.504  13.470   2.276  0.00  0.00     0.110 C 
HETATM   66  C   UNK N   1      22.937  14.187   1.056  0.00  0.00     0.035 C 
BRANCH  65  67
HETATM   67  C   UNK N   1      24.530  12.431   1.834  0.00  0.00     0.153 C 
BRANCH  67  68
HETATM   68  O   UNK N   1      24.827  12.654   0.487  0.00  0.00    -0.393 OA
HETATM   69  H   UNK N   1      25.351  13.117  -0.186  0.00  0.00     0.210 HD
ENDBRANCH  67  68
BRANCH  67  70
HETATM   70  C   UNK N   1      23.935  11.018   2.010  0.00  0.00     0.104 C 
HETATM   71  C   UNK N   1      23.282  10.329   0.815  0.00  0.00     0.022 C 
BRANCH  70  72
HETATM   72  C   UNK N   1      23.533  10.591   3.383  0.00  0.00     0.224 C 
HETATM   73  O   UNK N   1      22.374  10.726   3.741  0.00  0.00    -0.273 OA
HETATM   74  N   UNK N   1      24.418  10.029   4.222  0.00  0.00    -0.345 N 
HETATM   75  H   UNK N   1      24.093   9.680   5.083  0.00  0.00     0.163 HD
BRANCH  74  76
HETATM   76  C   UNK N   1      25.821   9.913   3.919  0.00  0.00     0.205 C 
BRANCH  76  77
HETATM   77  C   UNK N   1      26.382   8.637   4.541  0.00  0.00     0.146 C 
HETATM   78  C   UNK N   1      25.398   8.166   5.595  0.00  0.00     0.042 C 
BRANCH  77  79
HETATM   79  O   UNK N   1      26.537   7.623   3.594  0.00  0.00    -0.393 OA
HETATM   80  H   UNK N   1      26.500   6.659   3.693  0.00  0.00     0.210 HD
ENDBRANCH  77  79
ENDBRANCH  76  77
BRANCH  76  81
HETATM   81  C   UNK N   1      26.491  11.182   4.348  0.00  0.00     0.243 C 
HETATM   82  O   UNK N   1      26.138  11.717   5.386  0.00  0.00    -0.271 OA
HETATM   83  N   UNK N   1      27.492  11.728   3.621  0.00  0.00    -0.359 N 
HETATM   84  H   UNK N   1      27.884  12.577   3.927  0.00  0.00     0.162 HD
BRANCH  83  85
HETATM   85  C   UNK N   1      28.014  11.121   2.410  0.00  0.00     0.129 C 
BRANCH  85  86
HETATM   86  C   UNK N   1      28.579  12.171   1.447  0.00  0.00     0.084 C 
BRANCH  86  87
HETATM   87  C   UNK N   1      30.071  12.193   1.477  0.00  0.00     0.052 A 
HETATM   88  S   UNK N   1      31.114  11.851   0.248  0.00  0.00    -0.086 SA
HETATM   89  C   UNK N   1      32.542  12.158   1.059  0.00  0.00     0.083 A 
HETATM   90  C   UNK N   1      32.129  12.551   2.348  0.00  0.00     0.073 A 
HETATM   91  N   UNK N   1      30.779  12.563   2.557  0.00  0.00    -0.351 N 
ATOM     92  HN  UNK N   1      30.351  12.826   3.445  1.00  0.00     0.166 HD
BRANCH  90  93
HETATM   93  C   UNK N   1      32.993  13.030   3.418  0.00  0.00     0.102 A 
HETATM   94  S   UNK N   1      34.215  14.137   3.374  0.00  0.00    -0.080 SA
HETATM   95  C   UNK N   1      34.511  14.218   5.015  0.00  0.00     0.087 A 
HETATM   96  C   UNK N   1      33.587  13.319   5.587  0.00  0.00     0.108 A 
HETATM   97  N   UNK N   1      32.770  12.671   4.698  0.00  0.00    -0.344 N 
ATOM     98  HN  UNK N   1      32.066  11.986   4.976  1.00  0.00     0.167 HD
BRANCH  96  99
HETATM   99  C   UNK N   1      33.375  13.135   7.029  0.00  0.00     0.268 C 
HETATM  100  O   UNK N   1      32.740  12.164   7.411  0.00  0.00    -0.266 OA
HETATM  101  N   UNK N   1      33.790  14.063   7.920  0.00  0.00    -0.356 N 
HETATM  102  H   UNK N   1      34.305  14.843   7.610  0.00  0.00     0.162 HD
BRANCH 101 103
HETATM  103  C   UNK N   1      33.484  13.919   9.326  0.00  0.00     0.123 C 
BRANCH 103 104
HETATM  104  C   UNK N   1      34.679  13.393  10.086  0.00  0.00     0.029 C 
BRANCH 104 105
HETATM  105  C   UNK N   1      35.043  14.309  11.235  0.00  0.00     0.064 C 
BRANCH 105 106
HETATM  106  S   UNK N   1      36.271  13.437  12.252  0.00  0.00    -0.228 SA
HETATM  107  C   UNK N   1      37.729  12.700  11.443  0.00  0.00     0.078 C 
HETATM  108  C   UNK N   1      36.290  13.736  14.049  0.00  0.00     0.078 C 
ENDBRANCH 105 106
ENDBRANCH 104 105
ENDBRANCH 103 104
ENDBRANCH 101 103
ENDBRANCH  96  99
ENDBRANCH  90  93
ENDBRANCH  86  87
ENDBRANCH  85  86
ENDBRANCH  83  85
ENDBRANCH  76  81
ENDBRANCH  74  76
ENDBRANCH  70  72
ENDBRANCH  67  70
ENDBRANCH  65  67
ENDBRANCH  63  65
ENDBRANCH  25  61
ENDBRANCH  24  25
BRANCH  24 109
HETATM  109  C   UNK N   1      25.593  17.742   4.853  0.00  0.00     0.057 A 
HETATM  110  N   UNK N   1      26.169  18.622   5.687  0.00  0.00    -0.352 N 
HETATM  111  C   UNK N   1      26.124  19.797   5.031  0.00  0.00     0.180 A 
HETATM  112  H   UNK N   1      26.543  18.447   6.581  0.00  0.00     0.166 HD
HETATM  113  N   UNK N   1      25.529  19.677   3.824  0.00  0.00    -0.360 N 
HETATM  114  C   UNK N   1      25.185  18.383   3.711  0.00  0.00     0.116 A 
ATOM    115  HN  UNK N   1      25.372  20.417   3.140  1.00  0.00     0.166 HD
ENDBRANCH  24 109
ENDBRANCH  23  24
ENDBRANCH  15  23
ENDBRANCH   9  10
ENDBRANCH   3   9
BRANCH   5 116
HETATM  116  O   UNK N   1      20.206  18.514   2.845  0.00  0.00    -0.293 OA
BRANCH 116 117
HETATM  117  C   UNK N   1      20.303  19.869   2.784  0.00  0.00     0.358 C 
HETATM  118  O   UNK N   1      20.347  20.552   3.795  0.00  0.00    -0.239 OA
HETATM  119  N   UNK N   1      20.377  20.468   1.580  0.00  0.00    -0.346 N 
HETATM  120  H   UNK N   1      20.604  21.419   1.470  0.00  0.00     0.161 HD
HETATM  121  H   UNK N   1      20.196  19.931   0.775  0.00  0.00     0.161 HD
ENDBRANCH 116 117
ENDBRANCH   5 116
BRANCH   6 122
HETATM  122  O   UNK N   1      20.199  15.463   3.055  0.00  0.00    -0.390 OA
HETATM  123  H   UNK N   1      20.665  14.685   2.710  0.00  0.00     0.210 HD
ENDBRANCH   6 122
BRANCH   7 124
HETATM  124  C   UNK N   1      19.343  14.303   5.560  0.00  0.00     0.198 C 
BRANCH 124 125
HETATM  125  O   UNK N   1      18.177  13.886   4.918  0.00  0.00    -0.398 OA
HETATM  126  H   UNK N   1      17.216  13.751   4.928  0.00  0.00     0.209 HD
ENDBRANCH 124 125
ENDBRANCH   7 124
TORSDOF 45
ENDMDL
MODEL 3
REMARK VINA RESULT:      -6.2      2.078      3.335
REMARK WARNING: 32 MAX_TORS EXCEEDED!!!
REMARK  45 active torsions:
REMARK  status: ('A' for Active; 'I' for Inactive)
REMARK    1  A    between atoms: S_3  and  C_99 
REMARK    2  A    between atoms: O_4  and  C_47 
REMARK    3  A    between atoms: O_4  and  C_51 
REMARK    4  A    between atoms: O_7  and  C_50 
REMARK    5  A    between atoms: C_58  and  O_7 
REMARK    6  A    between atoms: O_8  and  C_48 
REMARK    7  A    between atoms: O_9  and  C_49 
REMARK    8  A    between atoms: O_10  and  C_54 
REMARK    9  A    between atoms: O_10  and  C_63 
REMARK   10  A    between atoms: O_12  and  C_55 
REMARK   11  A    between atoms: O_13  and  C_57 
REMARK   12  A    between atoms: O_14  and  C_59 
REMARK   13  A    between atoms: C_66  and  O_17 
REMARK   14  A    between atoms: C_78  and  O_20 
REMARK   15  A    between atoms: C_60  and  N_25 
REMARK       I    between atoms: N_25  and  C_67 
REMARK       I    between atoms: N_27  and  C_62 
REMARK   16  A    between atoms: C_65  and  N_27 
REMARK       I    between atoms: N_30  and  C_63 
REMARK       I    between atoms: N_31  and  C_73 
REMARK   17  A    between atoms: C_75  and  N_31 
REMARK   18  A    between atoms: C_80  and  N_36 
REMARK   19  A    between atoms: N_36  and  C_84 
REMARK   20  A    between atoms: N_37  and  C_77 
REMARK       I    between atoms: N_38  and  C_81 
REMARK   21  A    between atoms: N_38  and  C_85 
REMARK       I    between atoms: N_39  and  C_86 
REMARK   22  A    between atoms: C_87  and  N_40 
REMARK       I    between atoms: N_41  and  C_89 
REMARK       I    between atoms: N_46  and  C_96 
REMARK   23  A    between atoms: N_46  and  C_97 
REMARK   24  A    between atoms: C_52  and  C_57 
REMARK   25  A    between atoms: C_56  and  C_59 
REMARK   26  A    between atoms: C_58  and  C_60 
REMARK   27  A    between atoms: C_58  and  C_61 
REMARK   28  A    between atoms: C_60  and  C_62 
REMARK   29  A    between atoms: C_65  and  C_66 
REMARK   30  A    between atoms: C_66  and  C_69 
REMARK   31  A    between atoms: C_67  and  C_71 
REMARK   32  A    between atoms: C_69  and  C_73 
REMARK   33  A    between atoms: C_75  and  C_78 
REMARK   34  A    between atoms: C_75  and  C_81 
REMARK   35  A    between atoms: C_76  and  C_80 
REMARK   36  A    between atoms: C_80  and  C_82 
REMARK   37  A    between atoms: C_82  and  C_86 
REMARK   38  A    between atoms: C_84  and  C_87 
REMARK   39  A    between atoms: C_85  and  C_88 
REMARK   40  A    between atoms: C_87  and  C_89 
REMARK   41  A    between atoms: C_88  and  C_90 
REMARK   42  A    between atoms: C_91  and  C_93 
REMARK   43  A    between atoms: C_94  and  C_96 
REMARK   44  A    between atoms: C_97  and  C_98 
REMARK   45  A    between atoms: C_98  and  C_99 
ROOT
HETATM    1  O   UNK N   1      21.419  16.947   6.749  0.00  0.00    -0.348 OA
HETATM    2  O   UNK N   1      23.466  17.246   3.826  0.00  0.00    -0.388 OA
HETATM    3  C   UNK N   1      22.664  16.803   6.090  0.00  0.00     0.292 C 
HETATM    4  C   UNK N   1      22.873  17.828   4.949  0.00  0.00     0.205 C 
HETATM    5  C   UNK N   1      21.564  18.538   4.609  0.00  0.00     0.198 C 
HETATM    6  C   UNK N   1      20.452  17.500   4.473  0.00  0.00     0.181 C 
HETATM    7  C   UNK N   1      20.323  16.810   5.851  0.00  0.00     0.179 C 
HETATM    8  H   UNK N   1      23.881  16.909   3.016  0.00  0.00     0.210 HD
ENDROOT
BRANCH   3   9
HETATM    9  O   UNK N   1      22.923  15.464   5.752  0.00  0.00    -0.346 OA
BRANCH   9  10
HETATM   10  C   UNK N   1      23.338  14.851   6.947  0.00  0.00     0.211 C 
HETATM   11  C   UNK N   1      22.395  13.722   7.360  0.00  0.00     0.183 C 
HETATM   12  C   UNK N   1      23.044  12.355   7.149  0.00  0.00     0.180 C 
HETATM   13  C   UNK N   1      24.376  12.277   7.910  0.00  0.00     0.179 C 
HETATM   14  O   UNK N   1      25.195  13.430   7.822  0.00  0.00    -0.348 OA
HETATM   15  C   UNK N   1      24.811  14.384   6.842  0.00  0.00     0.293 C 
BRANCH  11  16
HETATM   16  O   UNK N   1      22.040  13.895   8.699  0.00  0.00    -0.390 OA
HETATM   17  H   UNK N   1      21.781  13.548   9.567  0.00  0.00     0.210 HD
ENDBRANCH  11  16
BRANCH  12  18
HETATM   18  O   UNK N   1      23.282  12.152   5.788  0.00  0.00    -0.390 OA
HETATM   19  H   UNK N   1      23.814  11.710   5.109  0.00  0.00     0.210 HD
ENDBRANCH  12  18
BRANCH  13  20
HETATM   20  C   UNK N   1      24.118  11.983   9.384  0.00  0.00     0.198 C 
BRANCH  20  21
HETATM   21  O   UNK N   1      24.483  13.079  10.169  0.00  0.00    -0.398 OA
HETATM   22  H   UNK N   1      25.399  13.229  10.448  0.00  0.00     0.209 HD
ENDBRANCH  20  21
ENDBRANCH  13  20
BRANCH  15  23
HETATM   23  O   UNK N   1      25.684  15.489   6.900  0.00  0.00    -0.345 OA
BRANCH  23  24
HETATM   24  C   UNK N   1      26.124  15.720   5.584  0.00  0.00     0.207 C 
BRANCH  24  25
HETATM   25  C   UNK N   1      26.621  14.462   4.898  0.00  0.00     0.212 C 
BRANCH  25  26
HETATM   26  N   UNK N   1      27.957  14.682   4.442  0.00  0.00    -0.340 N 
HETATM   27  C   UNK N   1      28.948  13.791   4.616  0.00  0.00     0.269 C 
HETATM   28  O   UNK N   1      28.711  12.668   5.028  0.00  0.00    -0.266 OA
HETATM   29  H   UNK N   1      28.160  15.527   3.979  0.00  0.00     0.163 HD
BRANCH  27  30
HETATM   30  C   UNK N   1      30.315  14.257   4.392  0.00  0.00     0.111 A 
HETATM   31  N   UNK N   1      30.858  15.045   5.354  0.00  0.00    -0.339 N 
HETATM   32  C   UNK N   1      32.142  15.458   5.299  0.00  0.00     0.106 A 
ATOM     33  HN  UNK N   1      30.278  15.336   6.141  1.00  0.00     0.167 HD
HETATM   34  N   UNK N   1      32.909  15.107   4.231  0.00  0.00    -0.330 N 
HETATM   35  C   UNK N   1      32.416  14.332   3.233  0.00  0.00     0.108 A 
ATOM     36  HN  UNK N   1      33.874  15.434   4.179  1.00  0.00     0.168 HD
HETATM   37  C   UNK N   1      31.099  13.865   3.293  0.00  0.00     0.014 A 
HETATM   38  C   UNK N   1      30.563  12.989   2.205  0.00  0.00     0.055 C 
BRANCH  32  39
HETATM   39  C   UNK N   1      32.729  16.191   6.480  0.00  0.00     0.153 C 
BRANCH  39  40
HETATM   40  N   UNK N   1      33.830  15.445   7.099  0.00  0.00    -0.408 N 
HETATM   41  H   UNK N   1      34.821  15.588   6.901  0.00  0.00     0.154 HD
BRANCH  40  42
HETATM   42  C   UNK N   1      33.298  14.467   8.044  0.00  0.00     0.148 C 
BRANCH  42  43
HETATM   43  C   UNK N   1      34.335  14.152   9.093  0.00  0.00     0.184 C 
BRANCH  43  44
HETATM   44  N   UNK N   1      33.868  13.030   9.889  0.00  0.00    -0.417 N 
HETATM   45  H   UNK N   1      32.998  12.499   9.918  0.00  0.00     0.150 HD
HETATM   46  H   UNK N   1      34.559  12.704  10.564  0.00  0.00     0.150 HD
ENDBRANCH  43  44
BRANCH  43  47
HETATM   47  C   UNK N   1      34.597  15.337   9.978  0.00  0.00     0.239 C 
HETATM   48  O   UNK N   1      35.101  16.357   9.530  0.00  0.00    -0.271 OA
HETATM   49  N   UNK N   1      34.278  15.272  11.284  0.00  0.00    -0.368 N 
HETATM   50  H   UNK N   1      33.714  14.539  11.622  0.00  0.00     0.159 HD
HETATM   51  H   UNK N   1      34.610  15.961  11.905  0.00  0.00     0.159 HD
ENDBRANCH  43  47
ENDBRANCH  42  43
ENDBRANCH  40  42
ENDBRANCH  39  40
BRANCH  39  52
HETATM   52  C   UNK N   1      31.607  16.473   7.499  0.00  0.00     0.135 C 
BRANCH  52  53
HETATM   53  C   UNK N   1      31.761  17.730   8.310  0.00  0.00     0.217 C 
HETATM   54  O   UNK N   1      32.823  18.331   8.345  0.00  0.00    -0.274 OA
HETATM   55  N   UNK N   1      30.710  18.197   9.011  0.00  0.00    -0.370 N 
HETATM   56  H   UNK N   1      30.493  18.200   9.972  0.00  0.00     0.159 HD
HETATM   57  H   UNK N   1      30.020  18.619   8.450  0.00  0.00     0.159 HD
ENDBRANCH  52  53
ENDBRANCH  39  52
ENDBRANCH  32  39
BRANCH  35  58
HETATM   58  N   UNK N   1      33.254  13.960   2.165  0.00  0.00    -0.385 N 
HETATM   59  H   UNK N   1      34.115  14.398   1.978  0.00  0.00     0.157 HD
HETATM   60  H   UNK N   1      32.964  13.226   1.577  0.00  0.00     0.157 HD
ENDBRANCH  35  58
ENDBRANCH  27  30
ENDBRANCH  25  26
BRANCH  25  61
HETATM   61  C   UNK N   1      25.776  14.057   3.743  0.00  0.00     0.243 C 
HETATM   62  O   UNK N   1      25.106  14.887   3.144  0.00  0.00    -0.271 OA
HETATM   63  N   UNK N   1      25.914  12.791   3.286  0.00  0.00    -0.352 N 
HETATM   64  H   UNK N   1      26.290  12.141   3.922  0.00  0.00     0.163 HD
BRANCH  63  65
HETATM   65  C   UNK N   1      25.573  12.271   1.968  0.00  0.00     0.110 C 
HETATM   66  C   UNK N   1      26.550  11.251   1.395  0.00  0.00     0.035 C 
BRANCH  65  67
HETATM   67  C   UNK N   1      24.188  11.644   2.096  0.00  0.00     0.153 C 
BRANCH  67  68
HETATM   68  O   UNK N   1      24.338  10.256   2.139  0.00  0.00    -0.393 OA
HETATM   69  H   UNK N   1      23.935   9.373   2.164  0.00  0.00     0.210 HD
ENDBRANCH  67  68
BRANCH  67  70
HETATM   70  C   UNK N   1      23.333  12.039   0.873  0.00  0.00     0.104 C 
HETATM   71  C   UNK N   1      23.217  11.070  -0.301  0.00  0.00     0.022 C 
BRANCH  70  72
HETATM   72  C   UNK N   1      23.096  13.492   0.621  0.00  0.00     0.224 C 
HETATM   73  O   UNK N   1      23.980  14.168   0.121  0.00  0.00    -0.273 OA
HETATM   74  N   UNK N   1      21.915  14.061   0.905  0.00  0.00    -0.345 N 
HETATM   75  H   UNK N   1      21.770  14.999   0.642  0.00  0.00     0.163 HD
BRANCH  74  76
HETATM   76  C   UNK N   1      20.849  13.363   1.578  0.00  0.00     0.205 C 
BRANCH  76  77
HETATM   77  C   UNK N   1      19.523  14.075   1.325  0.00  0.00     0.146 C 
HETATM   78  C   UNK N   1      18.658  13.152   0.485  0.00  0.00     0.042 C 
BRANCH  77  79
HETATM   79  O   UNK N   1      18.848  14.354   2.514  0.00  0.00    -0.393 OA
HETATM   80  H   UNK N   1      18.965  13.988   3.405  0.00  0.00     0.210 HD
ENDBRANCH  77  79
ENDBRANCH  76  77
BRANCH  76  81
HETATM   81  C   UNK N   1      21.232  13.218   3.018  0.00  0.00     0.243 C 
HETATM   82  O   UNK N   1      21.873  14.106   3.555  0.00  0.00    -0.271 OA
HETATM   83  N   UNK N   1      20.860  12.134   3.738  0.00  0.00    -0.359 N 
HETATM   84  H   UNK N   1      21.157  12.069   4.673  0.00  0.00     0.162 HD
BRANCH  83  85
HETATM   85  C   UNK N   1      20.043  11.065   3.194  0.00  0.00     0.129 C 
BRANCH  85  86
HETATM   86  C   UNK N   1      19.134  10.446   4.261  0.00  0.00     0.084 C 
BRANCH  86  87
HETATM   87  C   UNK N   1      19.762   9.245   4.885  0.00  0.00     0.052 A 
HETATM   88  S   UNK N   1      19.027   7.850   5.363  0.00  0.00    -0.086 SA
HETATM   89  C   UNK N   1      20.389   7.031   5.877  0.00  0.00     0.083 A 
HETATM   90  C   UNK N   1      21.446   7.932   5.636  0.00  0.00     0.073 A 
HETATM   91  N   UNK N   1      21.084   9.133   5.096  0.00  0.00    -0.351 N 
ATOM     92  HN  UNK N   1      21.752   9.873   4.875  1.00  0.00     0.166 HD
BRANCH  90  93
HETATM   93  C   UNK N   1      22.865   7.659   5.816  0.00  0.00     0.102 A 
HETATM   94  S   UNK N   1      23.621   6.280   6.309  0.00  0.00    -0.080 SA
HETATM   95  C   UNK N   1      25.194   6.773   6.046  0.00  0.00     0.087 A 
HETATM   96  C   UNK N   1      25.075   8.088   5.547  0.00  0.00     0.108 A 
HETATM   97  N   UNK N   1      23.793   8.560   5.436  0.00  0.00    -0.344 N 
ATOM     98  HN  UNK N   1      23.565   9.497   5.101  1.00  0.00     0.167 HD
BRANCH  96  99
HETATM   99  C   UNK N   1      26.191   8.901   5.047  0.00  0.00     0.268 C 
HETATM  100  O   UNK N   1      25.964  10.041   4.669  0.00  0.00    -0.266 OA
HETATM  101  N   UNK N   1      27.431   8.381   4.915  0.00  0.00    -0.356 N 
HETATM  102  H   UNK N   1      27.612   7.463   5.223  0.00  0.00     0.162 HD
BRANCH 101 103
HETATM  103  C   UNK N   1      28.495   9.161   4.325  0.00  0.00     0.123 C 
BRANCH 103 104
HETATM  104  C   UNK N   1      29.461   8.274   3.575  0.00  0.00     0.029 C 
BRANCH 104 105
HETATM  105  C   UNK N   1      29.106   8.201   2.105  0.00  0.00     0.064 C 
BRANCH 105 106
HETATM  106  S   UNK N   1      30.338   9.186   1.202  0.00  0.00    -0.228 SA
HETATM  107  C   UNK N   1      29.792  10.227  -0.191  0.00  0.00     0.078 C 
HETATM  108  C   UNK N   1      31.953   9.500   1.986  0.00  0.00     0.078 C 
ENDBRANCH 105 106
ENDBRANCH 104 105
ENDBRANCH 103 104
ENDBRANCH 101 103
ENDBRANCH  96  99
ENDBRANCH  90  93
ENDBRANCH  86  87
ENDBRANCH  85  86
ENDBRANCH  83  85
ENDBRANCH  76  81
ENDBRANCH  74  76
ENDBRANCH  70  72
ENDBRANCH  67  70
ENDBRANCH  65  67
ENDBRANCH  63  65
ENDBRANCH  25  61
ENDBRANCH  24  25
BRANCH  24 109
HETATM  109  C   UNK N   1      26.940  16.978   5.419  0.00  0.00     0.057 A 
HETATM  110  N   UNK N   1      27.759  17.487   6.352  0.00  0.00    -0.352 N 
HETATM  111  C   UNK N   1      28.156  18.672   5.851  0.00  0.00     0.180 A 
HETATM  112  H   UNK N   1      28.014  17.083   7.213  0.00  0.00     0.166 HD
HETATM  113  N   UNK N   1      27.602  18.919   4.643  0.00  0.00    -0.360 N 
HETATM  114  C   UNK N   1      26.827  17.856   4.370  0.00  0.00     0.116 A 
ATOM    115  HN  UNK N   1      27.743  19.743   4.060  1.00  0.00     0.166 HD
ENDBRANCH  24 109
ENDBRANCH  23  24
ENDBRANCH  15  23
ENDBRANCH   9  10
ENDBRANCH   3   9
BRANCH   5 116
HETATM  116  O   UNK N   1      21.731  19.482   3.600  0.00  0.00    -0.293 OA
BRANCH 116 117
HETATM  117  C   UNK N   1      20.816  20.337   3.071  0.00  0.00     0.358 C 
HETATM  118  O   UNK N   1      20.081  21.006   3.781  0.00  0.00    -0.239 OA
HETATM  119  N   UNK N   1      20.737  20.468   1.733  0.00  0.00    -0.346 N 
HETATM  120  H   UNK N   1      20.211  21.177   1.296  0.00  0.00     0.161 HD
HETATM  121  H   UNK N   1      21.225  19.827   1.167  0.00  0.00     0.161 HD
ENDBRANCH 116 117
ENDBRANCH   5 116
BRANCH   6 122
HETATM  122  O   UNK N   1      20.782  16.577   3.475  0.00  0.00    -0.390 OA
HETATM  123  H   UNK N   1      21.230  16.150   2.728  0.00  0.00     0.210 HD
ENDBRANCH   6 122
BRANCH   7 124
HETATM  124  C   UNK N   1      19.650  15.441   5.880  0.00  0.00     0.198 C 
BRANCH 124 125
HETATM  125  O   UNK N   1      18.438  15.462   5.188  0.00  0.00    -0.398 OA
HETATM  126  H   UNK N   1      17.785  15.015   4.629  0.00  0.00     0.209 HD
ENDBRANCH 124 125
ENDBRANCH   7 124
TORSDOF 45
ENDMDL
MODEL 4
REMARK VINA RESULT:      -6.0      4.918     12.269
REMARK WARNING: 32 MAX_TORS EXCEEDED!!!
REMARK  45 active torsions:
REMARK  status: ('A' for Active; 'I' for Inactive)
REMARK    1  A    between atoms: S_3  and  C_99 
REMARK    2  A    between atoms: O_4  and  C_47 
REMARK    3  A    between atoms: O_4  and  C_51 
REMARK    4  A    between atoms: O_7  and  C_50 
REMARK    5  A    between atoms: C_58  and  O_7 
REMARK    6  A    between atoms: O_8  and  C_48 
REMARK    7  A    between atoms: O_9  and  C_49 
REMARK    8  A    between atoms: O_10  and  C_54 
REMARK    9  A    between atoms: O_10  and  C_63 
REMARK   10  A    between atoms: O_12  and  C_55 
REMARK   11  A    between atoms: O_13  and  C_57 
REMARK   12  A    between atoms: O_14  and  C_59 
REMARK   13  A    between atoms: C_66  and  O_17 
REMARK   14  A    between atoms: C_78  and  O_20 
REMARK   15  A    between atoms: C_60  and  N_25 
REMARK       I    between atoms: N_25  and  C_67 
REMARK       I    between atoms: N_27  and  C_62 
REMARK   16  A    between atoms: C_65  and  N_27 
REMARK       I    between atoms: N_30  and  C_63 
REMARK       I    between atoms: N_31  and  C_73 
REMARK   17  A    between atoms: C_75  and  N_31 
REMARK   18  A    between atoms: C_80  and  N_36 
REMARK   19  A    between atoms: N_36  and  C_84 
REMARK   20  A    between atoms: N_37  and  C_77 
REMARK       I    between atoms: N_38  and  C_81 
REMARK   21  A    between atoms: N_38  and  C_85 
REMARK       I    between atoms: N_39  and  C_86 
REMARK   22  A    between atoms: C_87  and  N_40 
REMARK       I    between atoms: N_41  and  C_89 
REMARK       I    between atoms: N_46  and  C_96 
REMARK   23  A    between atoms: N_46  and  C_97 
REMARK   24  A    between atoms: C_52  and  C_57 
REMARK   25  A    between atoms: C_56  and  C_59 
REMARK   26  A    between atoms: C_58  and  C_60 
REMARK   27  A    between atoms: C_58  and  C_61 
REMARK   28  A    between atoms: C_60  and  C_62 
REMARK   29  A    between atoms: C_65  and  C_66 
REMARK   30  A    between atoms: C_66  and  C_69 
REMARK   31  A    between atoms: C_67  and  C_71 
REMARK   32  A    between atoms: C_69  and  C_73 
REMARK   33  A    between atoms: C_75  and  C_78 
REMARK   34  A    between atoms: C_75  and  C_81 
REMARK   35  A    between atoms: C_76  and  C_80 
REMARK   36  A    between atoms: C_80  and  C_82 
REMARK   37  A    between atoms: C_82  and  C_86 
REMARK   38  A    between atoms: C_84  and  C_87 
REMARK   39  A    between atoms: C_85  and  C_88 
REMARK   40  A    between atoms: C_87  and  C_89 
REMARK   41  A    between atoms: C_88  and  C_90 
REMARK   42  A    between atoms: C_91  and  C_93 
REMARK   43  A    between atoms: C_94  and  C_96 
REMARK   44  A    between atoms: C_97  and  C_98 
REMARK   45  A    between atoms: C_98  and  C_99 
ROOT
HETATM    1  O   UNK N   1      21.997  12.100   7.868  0.00  0.00    -0.348 OA
HETATM    2  O   UNK N   1      22.356  11.793   4.317  0.00  0.00    -0.388 OA
HETATM    3  C   UNK N   1      21.724  12.549   6.553  0.00  0.00     0.292 C 
HETATM    4  C   UNK N   1      21.729  11.409   5.506  0.00  0.00     0.205 C 
HETATM    5  C   UNK N   1      22.331  10.134   6.092  0.00  0.00     0.198 C 
HETATM    6  C   UNK N   1      23.633  10.479   6.810  0.00  0.00     0.181 C 
HETATM    7  C   UNK N   1      23.260  11.449   7.955  0.00  0.00     0.179 C 
HETATM    8  H   UNK N   1      22.772  11.994   3.464  0.00  0.00     0.210 HD
ENDROOT
BRANCH   3   9
HETATM    9  O   UNK N   1      22.490  13.678   6.217  0.00  0.00    -0.346 OA
BRANCH   9  10
HETATM   10  C   UNK N   1      21.592  14.759   6.245  0.00  0.00     0.211 C 
HETATM   11  C   UNK N   1      20.375  14.460   7.119  0.00  0.00     0.183 C 
HETATM   12  C   UNK N   1      20.422  15.255   8.422  0.00  0.00     0.180 C 
HETATM   13  C   UNK N   1      20.539  16.757   8.124  0.00  0.00     0.179 C 
HETATM   14  O   UNK N   1      21.449  17.103   7.094  0.00  0.00    -0.348 OA
HETATM   15  C   UNK N   1      22.316  16.062   6.665  0.00  0.00     0.293 C 
BRANCH  11  16
HETATM   16  O   UNK N   1      19.217  14.763   6.400  0.00  0.00    -0.390 OA
HETATM   17  H   UNK N   1      18.758  15.014   5.583  0.00  0.00     0.210 HD
ENDBRANCH  11  16
BRANCH  12  18
HETATM   18  O   UNK N   1      21.522  14.851   9.181  0.00  0.00    -0.390 OA
HETATM   19  H   UNK N   1      21.845  14.442   9.998  0.00  0.00     0.210 HD
ENDBRANCH  12  18
BRANCH  13  20
HETATM   20  C   UNK N   1      19.171  17.327   7.766  0.00  0.00     0.198 C 
BRANCH  20  21
HETATM   21  O   UNK N   1      18.163  16.618   8.423  0.00  0.00    -0.398 OA
HETATM   22  H   UNK N   1      17.461  17.066   8.921  0.00  0.00     0.209 HD
ENDBRANCH  20  21
ENDBRANCH  13  20
BRANCH  15  23
HETATM   23  O   UNK N   1      23.127  16.537   5.614  0.00  0.00    -0.345 OA
BRANCH  23  24
HETATM   24  C   UNK N   1      22.392  16.350   4.428  0.00  0.00     0.207 C 
BRANCH  24  25
HETATM   25  C   UNK N   1      23.139  15.531   3.394  0.00  0.00     0.212 C 
BRANCH  25  26
HETATM   26  N   UNK N   1      22.281  14.489   2.923  0.00  0.00    -0.340 N 
HETATM   27  C   UNK N   1      22.044  14.267   1.619  0.00  0.00     0.269 C 
HETATM   28  O   UNK N   1      22.688  14.846   0.760  0.00  0.00    -0.266 OA
HETATM   29  H   UNK N   1      21.845  13.907   3.586  0.00  0.00     0.163 HD
BRANCH  27  30
HETATM   30  C   UNK N   1      20.923  13.392   1.282  0.00  0.00     0.111 A 
HETATM   31  N   UNK N   1      21.067  12.074   1.575  0.00  0.00    -0.339 N 
HETATM   32  C   UNK N   1      20.063  11.189   1.394  0.00  0.00     0.106 A 
ATOM     33  HN  UNK N   1      21.959  11.743   1.941  1.00  0.00     0.167 HD
HETATM   34  N   UNK N   1      18.884  11.618   0.868  0.00  0.00    -0.330 N 
HETATM   35  C   UNK N   1      18.688  12.920   0.544  0.00  0.00     0.108 A 
ATOM     36  HN  UNK N   1      18.131  10.946   0.712  1.00  0.00     0.168 HD
HETATM   37  C   UNK N   1      19.704  13.857   0.760  0.00  0.00     0.014 A 
HETATM   38  C   UNK N   1      19.479  15.298   0.427  0.00  0.00     0.055 C 
BRANCH  32  39
HETATM   39  C   UNK N   1      20.232   9.775   1.894  0.00  0.00     0.153 C 
BRANCH  39  40
HETATM   40  N   UNK N   1      21.610   9.503   2.320  0.00  0.00    -0.408 N 
HETATM   41  H   UNK N   1      22.059   9.902   3.144  0.00  0.00     0.154 HD
BRANCH  40  42
HETATM   42  C   UNK N   1      22.244   8.575   1.387  0.00  0.00     0.148 C 
BRANCH  42  43
HETATM   43  C   UNK N   1      23.677   8.985   1.153  0.00  0.00     0.184 C 
BRANCH  43  44
HETATM   44  N   UNK N   1      24.529   7.822   1.331  0.00  0.00    -0.417 N 
HETATM   45  H   UNK N   1      25.539   7.687   1.383  0.00  0.00     0.150 HD
HETATM   46  H   UNK N   1      24.005   6.952   1.423  0.00  0.00     0.150 HD
ENDBRANCH  43  44
BRANCH  43  47
HETATM   47  C   UNK N   1      24.095  10.078   2.093  0.00  0.00     0.239 C 
HETATM   48  O   UNK N   1      23.906  11.253   1.815  0.00  0.00    -0.271 OA
HETATM   49  N   UNK N   1      24.694   9.759   3.256  0.00  0.00    -0.368 N 
HETATM   50  H   UNK N   1      24.692   8.828   3.577  0.00  0.00     0.159 HD
HETATM   51  H   UNK N   1      25.135  10.460   3.789  0.00  0.00     0.159 HD
ENDBRANCH  43  47
ENDBRANCH  42  43
ENDBRANCH  40  42
ENDBRANCH  39  40
BRANCH  39  52
HETATM   52  C   UNK N   1      19.791   8.799   0.786  0.00  0.00     0.135 C 
BRANCH  52  53
HETATM   53  C   UNK N   1      18.641   7.894   1.132  0.00  0.00     0.217 C 
HETATM   54  O   UNK N   1      18.425   6.877   0.493  0.00  0.00    -0.274 OA
HETATM   55  N   UNK N   1      17.835   8.214   2.163  0.00  0.00    -0.370 N 
HETATM   56  H   UNK N   1      16.918   8.569   2.212  0.00  0.00     0.159 HD
HETATM   57  H   UNK N   1      18.246   8.064   3.045  0.00  0.00     0.159 HD
ENDBRANCH  52  53
ENDBRANCH  39  52
ENDBRANCH  32  39
BRANCH  35  58
HETATM   58  N   UNK N   1      17.439  13.329   0.038  0.00  0.00    -0.385 N 
HETATM   59  H   UNK N   1      17.218  14.268  -0.157  0.00  0.00     0.157 HD
HETATM   60  H   UNK N   1      16.755  12.642  -0.129  0.00  0.00     0.157 HD
ENDBRANCH  35  58
ENDBRANCH  27  30
ENDBRANCH  25  26
BRANCH  25  61
HETATM   61  C   UNK N   1      24.390  14.926   3.923  0.00  0.00     0.243 C 
HETATM   62  O   UNK N   1      24.526  13.711   3.955  0.00  0.00    -0.271 OA
HETATM   63  N   UNK N   1      25.416  15.764   4.199  0.00  0.00    -0.352 N 
HETATM   64  H   UNK N   1      25.176  16.706   4.352  0.00  0.00     0.163 HD
BRANCH  63  65
HETATM   65  C   UNK N   1      26.835  15.443   4.297  0.00  0.00     0.110 C 
HETATM   66  C   UNK N   1      27.722  16.067   3.227  0.00  0.00     0.035 C 
BRANCH  65  67
HETATM   67  C   UNK N   1      27.287  15.907   5.679  0.00  0.00     0.153 C 
BRANCH  67  68
HETATM   68  O   UNK N   1      26.289  16.726   6.214  0.00  0.00    -0.393 OA
HETATM   69  H   UNK N   1      25.347  16.930   6.321  0.00  0.00     0.210 HD
ENDBRANCH  67  68
BRANCH  67  70
HETATM   70  C   UNK N   1      28.601  16.707   5.544  0.00  0.00     0.104 C 
HETATM   71  C   UNK N   1      29.933  15.961   5.556  0.00  0.00     0.022 C 
BRANCH  70  72
HETATM   72  C   UNK N   1      28.589  18.148   5.933  0.00  0.00     0.224 C 
HETATM   73  O   UNK N   1      28.256  18.990   5.115  0.00  0.00    -0.273 OA
HETATM   74  N   UNK N   1      28.908  18.533   7.179  0.00  0.00    -0.345 N 
HETATM   75  H   UNK N   1      28.801  19.481   7.420  0.00  0.00     0.163 HD
BRANCH  74  76
HETATM   76  C   UNK N   1      29.398  17.620   8.180  0.00  0.00     0.205 C 
BRANCH  76  77
HETATM   77  C   UNK N   1      28.254  17.189   9.094  0.00  0.00     0.146 C 
HETATM   78  C   UNK N   1      28.863  16.686  10.390  0.00  0.00     0.042 C 
BRANCH  77  79
HETATM   79  O   UNK N   1      27.397  18.251   9.389  0.00  0.00    -0.393 OA
HETATM   80  H   UNK N   1      26.910  18.848   8.801  0.00  0.00     0.210 HD
ENDBRANCH  77  79
ENDBRANCH  76  77
BRANCH  76  81
HETATM   81  C   UNK N   1      30.556  18.273   8.870  0.00  0.00     0.243 C 
HETATM   82  O   UNK N   1      30.384  19.337   9.440  0.00  0.00    -0.271 OA
HETATM   83  N   UNK N   1      31.778  17.692   8.892  0.00  0.00    -0.359 N 
HETATM   84  H   UNK N   1      32.515  18.170   9.333  0.00  0.00     0.162 HD
BRANCH  83  85
HETATM   85  C   UNK N   1      32.051  16.399   8.293  0.00  0.00     0.129 C 
BRANCH  85  86
HETATM   86  C   UNK N   1      32.115  15.288   9.347  0.00  0.00     0.084 C 
BRANCH  86  87
HETATM   87  C   UNK N   1      33.523  14.979   9.731  0.00  0.00     0.052 A 
HETATM   88  S   UNK N   1      34.909  15.582   9.075  0.00  0.00    -0.086 SA
HETATM   89  C   UNK N   1      36.000  14.807  10.075  0.00  0.00     0.083 A 
HETATM   90  C   UNK N   1      35.192  14.057  10.953  0.00  0.00     0.073 A 
HETATM   91  N   UNK N   1      33.845  14.162  10.749  0.00  0.00    -0.351 N 
ATOM     92  HN  UNK N   1      33.152  13.671  11.314  1.00  0.00     0.166 HD
BRANCH  90  93
HETATM   93  C   UNK N   1      35.655  13.279  12.092  0.00  0.00     0.102 A 
HETATM   94  S   UNK N   1      37.054  12.430  12.294  0.00  0.00    -0.080 SA
HETATM   95  C   UNK N   1      36.853  12.032  13.903  0.00  0.00     0.087 A 
HETATM   96  C   UNK N   1      35.617  12.613  14.260  0.00  0.00     0.108 A 
HETATM   97  N   UNK N   1      34.971  13.283  13.254  0.00  0.00    -0.344 N 
ATOM     98  HN  UNK N   1      34.065  13.739  13.373  1.00  0.00     0.167 HD
BRANCH  96  99
HETATM   99  C   UNK N   1      35.064  12.642  15.620  0.00  0.00     0.268 C 
HETATM  100  O   UNK N   1      33.980  13.175  15.802  0.00  0.00    -0.266 OA
HETATM  101  N   UNK N   1      35.772  12.176  16.673  0.00  0.00    -0.356 N 
HETATM  102  H   UNK N   1      36.645  11.745  16.523  0.00  0.00     0.162 HD
BRANCH 101 103
HETATM  103  C   UNK N   1      35.259  12.306  18.018  0.00  0.00     0.123 C 
BRANCH 103 104
HETATM  104  C   UNK N   1      35.562  11.069  18.832  0.00  0.00     0.029 C 
BRANCH 104 105
HETATM  105  C   UNK N   1      35.067   9.821  18.133  0.00  0.00     0.064 C 
BRANCH 105 106
HETATM  106  S   UNK N   1      34.064   8.894  19.332  0.00  0.00    -0.228 SA
HETATM  107  C   UNK N   1      33.872   7.093  19.122  0.00  0.00     0.078 C 
HETATM  108  C   UNK N   1      33.698   9.659  20.945  0.00  0.00     0.078 C 
ENDBRANCH 105 106
ENDBRANCH 104 105
ENDBRANCH 103 104
ENDBRANCH 101 103
ENDBRANCH  96  99
ENDBRANCH  90  93
ENDBRANCH  86  87
ENDBRANCH  85  86
ENDBRANCH  83  85
ENDBRANCH  76  81
ENDBRANCH  74  76
ENDBRANCH  70  72
ENDBRANCH  67  70
ENDBRANCH  65  67
ENDBRANCH  63  65
ENDBRANCH  25  61
ENDBRANCH  24  25
BRANCH  24 109
HETATM  109  C   UNK N   1      21.663  17.583   3.954  0.00  0.00     0.057 A 
HETATM  110  N   UNK N   1      22.070  18.843   4.171  0.00  0.00    -0.352 N 
HETATM  111  C   UNK N   1      21.062  19.612   3.717  0.00  0.00     0.180 A 
HETATM  112  H   UNK N   1      22.919  19.140   4.572  0.00  0.00     0.166 HD
HETATM  113  N   UNK N   1      20.040  18.871   3.237  0.00  0.00    -0.360 N 
HETATM  114  C   UNK N   1      20.411  17.589   3.392  0.00  0.00     0.116 A 
ATOM    115  HN  UNK N   1      19.166  19.213   2.840  1.00  0.00     0.166 HD
ENDBRANCH  24 109
ENDBRANCH  23  24
ENDBRANCH  15  23
ENDBRANCH   9  10
ENDBRANCH   3   9
BRANCH   5 116
HETATM  116  O   UNK N   1      22.325   9.086   5.176  0.00  0.00    -0.293 OA
BRANCH 116 117
HETATM  117  C   UNK N   1      21.785   7.845   5.301  0.00  0.00     0.358 C 
HETATM  118  O   UNK N   1      20.923   7.443   4.535  0.00  0.00    -0.239 OA
HETATM  119  N   UNK N   1      22.230   7.031   6.276  0.00  0.00    -0.346 N 
HETATM  120  H   UNK N   1      21.996   6.075   6.323  0.00  0.00     0.161 HD
HETATM  121  H   UNK N   1      22.815   7.406   6.974  0.00  0.00     0.161 HD
ENDBRANCH 116 117
ENDBRANCH   5 116
BRANCH   6 122
HETATM  122  O   UNK N   1      24.527  11.076   5.915  0.00  0.00    -0.390 OA
HETATM  123  H   UNK N   1      24.919  11.701   5.284  0.00  0.00     0.210 HD
ENDBRANCH   6 122
BRANCH   7 124
HETATM  124  C   UNK N   1      24.380  12.317   8.521  0.00  0.00     0.198 C 
BRANCH 124 125
HETATM  125  O   UNK N   1      24.280  12.425   9.909  0.00  0.00    -0.398 OA
HETATM  126  H   UNK N   1      24.484  12.083  10.793  0.00  0.00     0.209 HD
ENDBRANCH 124 125
ENDBRANCH   7 124
TORSDOF 45
ENDMDL
MODEL 5
REMARK VINA RESULT:      -6.0      1.726      2.547
REMARK WARNING: 32 MAX_TORS EXCEEDED!!!
REMARK  45 active torsions:
REMARK  status: ('A' for Active; 'I' for Inactive)
REMARK    1  A    between atoms: S_3  and  C_99 
REMARK    2  A    between atoms: O_4  and  C_47 
REMARK    3  A    between atoms: O_4  and  C_51 
REMARK    4  A    between atoms: O_7  and  C_50 
REMARK    5  A    between atoms: C_58  and  O_7 
REMARK    6  A    between atoms: O_8  and  C_48 
REMARK    7  A    between atoms: O_9  and  C_49 
REMARK    8  A    between atoms: O_10  and  C_54 
REMARK    9  A    between atoms: O_10  and  C_63 
REMARK   10  A    between atoms: O_12  and  C_55 
REMARK   11  A    between atoms: O_13  and  C_57 
REMARK   12  A    between atoms: O_14  and  C_59 
REMARK   13  A    between atoms: C_66  and  O_17 
REMARK   14  A    between atoms: C_78  and  O_20 
REMARK   15  A    between atoms: C_60  and  N_25 
REMARK       I    between atoms: N_25  and  C_67 
REMARK       I    between atoms: N_27  and  C_62 
REMARK   16  A    between atoms: C_65  and  N_27 
REMARK       I    between atoms: N_30  and  C_63 
REMARK       I    between atoms: N_31  and  C_73 
REMARK   17  A    between atoms: C_75  and  N_31 
REMARK   18  A    between atoms: C_80  and  N_36 
REMARK   19  A    between atoms: N_36  and  C_84 
REMARK   20  A    between atoms: N_37  and  C_77 
REMARK       I    between atoms: N_38  and  C_81 
REMARK   21  A    between atoms: N_38  and  C_85 
REMARK       I    between atoms: N_39  and  C_86 
REMARK   22  A    between atoms: C_87  and  N_40 
REMARK       I    between atoms: N_41  and  C_89 
REMARK       I    between atoms: N_46  and  C_96 
REMARK   23  A    between atoms: N_46  and  C_97 
REMARK   24  A    between atoms: C_52  and  C_57 
REMARK   25  A    between atoms: C_56  and  C_59 
REMARK   26  A    between atoms: C_58  and  C_60 
REMARK   27  A    between atoms: C_58  and  C_61 
REMARK   28  A    between atoms: C_60  and  C_62 
REMARK   29  A    between atoms: C_65  and  C_66 
REMARK   30  A    between atoms: C_66  and  C_69 
REMARK   31  A    between atoms: C_67  and  C_71 
REMARK   32  A    between atoms: C_69  and  C_73 
REMARK   33  A    between atoms: C_75  and  C_78 
REMARK   34  A    between atoms: C_75  and  C_81 
REMARK   35  A    between atoms: C_76  and  C_80 
REMARK   36  A    between atoms: C_80  and  C_82 
REMARK   37  A    between atoms: C_82  and  C_86 
REMARK   38  A    between atoms: C_84  and  C_87 
REMARK   39  A    between atoms: C_85  and  C_88 
REMARK   40  A    between atoms: C_87  and  C_89 
REMARK   41  A    between atoms: C_88  and  C_90 
REMARK   42  A    between atoms: C_91  and  C_93 
REMARK   43  A    between atoms: C_94  and  C_96 
REMARK   44  A    between atoms: C_97  and  C_98 
REMARK   45  A    between atoms: C_98  and  C_99 
ROOT
HETATM    1  O   UNK N   1      21.866  17.098   6.408  0.00  0.00    -0.348 OA
HETATM    2  O   UNK N   1      23.335  16.855   3.150  0.00  0.00    -0.388 OA
HETATM    3  C   UNK N   1      22.959  16.788   5.563  0.00  0.00     0.292 C 
HETATM    4  C   UNK N   1      22.983  17.626   4.262  0.00  0.00     0.205 C 
HETATM    5  C   UNK N   1      21.657  18.357   4.062  0.00  0.00     0.198 C 
HETATM    6  C   UNK N   1      20.506  17.379   4.288  0.00  0.00     0.181 C 
HETATM    7  C   UNK N   1      20.617  16.901   5.754  0.00  0.00     0.179 C 
HETATM    8  H   UNK N   1      23.579  16.383   2.339  0.00  0.00     0.210 HD
ENDROOT
BRANCH   3   9
HETATM    9  O   UNK N   1      23.107  15.401   5.390  0.00  0.00    -0.346 OA
BRANCH   9  10
HETATM   10  C   UNK N   1      23.489  14.907   6.649  0.00  0.00     0.211 C 
HETATM   11  C   UNK N   1      22.730  13.630   7.008  0.00  0.00     0.183 C 
HETATM   12  C   UNK N   1      23.641  12.406   6.929  0.00  0.00     0.180 C 
HETATM   13  C   UNK N   1      24.868  12.598   7.833  0.00  0.00     0.179 C 
HETATM   14  O   UNK N   1      25.464  13.883   7.782  0.00  0.00    -0.348 OA
HETATM   15  C   UNK N   1      25.025  14.724   6.724  0.00  0.00     0.293 C 
BRANCH  11  16
HETATM   16  O   UNK N   1      22.199  13.765   8.292  0.00  0.00    -0.390 OA
HETATM   17  H   UNK N   1      22.180  13.548   9.237  0.00  0.00     0.210 HD
ENDBRANCH  11  16
BRANCH  12  18
HETATM   18  O   UNK N   1      24.066  12.219   5.613  0.00  0.00    -0.390 OA
HETATM   19  H   UNK N   1      24.501  11.639   4.970  0.00  0.00     0.210 HD
ENDBRANCH  12  18
BRANCH  13  20
HETATM   20  C   UNK N   1      24.502  12.297   9.282  0.00  0.00     0.198 C 
BRANCH  20  21
HETATM   21  O   UNK N   1      24.703  13.426  10.079  0.00  0.00    -0.398 OA
HETATM   22  H   UNK N   1      23.989  14.054  10.268  0.00  0.00     0.209 HD
ENDBRANCH  20  21
ENDBRANCH  13  20
BRANCH  15  23
HETATM   23  O   UNK N   1      25.666  15.974   6.827  0.00  0.00    -0.345 OA
BRANCH  23  24
HETATM   24  C   UNK N   1      26.079  16.319   5.526  0.00  0.00     0.207 C 
BRANCH  24  25
HETATM   25  C   UNK N   1      26.777  15.182   4.807  0.00  0.00     0.212 C 
BRANCH  25  26
HETATM   26  N   UNK N   1      28.175  15.470   4.736  0.00  0.00    -0.340 N 
HETATM   27  C   UNK N   1      29.126  14.583   5.078  0.00  0.00     0.269 C 
HETATM   28  O   UNK N   1      28.840  13.420   5.309  0.00  0.00    -0.266 OA
HETATM   29  H   UNK N   1      28.454  16.360   4.422  0.00  0.00     0.163 HD
BRANCH  27  30
HETATM   30  C   UNK N   1      30.483  15.093   5.260  0.00  0.00     0.111 A 
HETATM   31  N   UNK N   1      30.744  15.733   6.429  0.00  0.00    -0.339 N 
HETATM   32  C   UNK N   1      31.984  16.163   6.746  0.00  0.00     0.106 A 
ATOM     33  HN  UNK N   1      29.981  15.894   7.086  1.00  0.00     0.167 HD
HETATM   34  N   UNK N   1      32.998  15.987   5.855  0.00  0.00    -0.330 N 
HETATM   35  C   UNK N   1      32.793  15.367   4.666  0.00  0.00     0.108 A 
ATOM     36  HN  UNK N   1      33.931  16.330   6.086  1.00  0.00     0.168 HD
HETATM   37  C   UNK N   1      31.523  14.882   4.339  0.00  0.00     0.014 A 
HETATM   38  C   UNK N   1      31.302  14.175   3.039  0.00  0.00     0.055 C 
BRANCH  32  39
HETATM   39  C   UNK N   1      32.239  16.716   8.127  0.00  0.00     0.153 C 
BRANCH  39  40
HETATM   40  N   UNK N   1      31.960  15.728   9.175  0.00  0.00    -0.408 N 
HETATM   41  H   UNK N   1      31.030  15.465   9.501  0.00  0.00     0.154 HD
BRANCH  40  42
HETATM   42  C   UNK N   1      33.213  15.175   9.681  0.00  0.00     0.148 C 
BRANCH  42  43
HETATM   43  C   UNK N   1      33.433  13.797   9.107  0.00  0.00     0.184 C 
BRANCH  43  44
HETATM   44  N   UNK N   1      33.736  12.882  10.194  0.00  0.00    -0.417 N 
HETATM   45  H   UNK N   1      33.287  12.672  11.086  0.00  0.00     0.150 HD
HETATM   46  H   UNK N   1      34.578  12.331  10.030  0.00  0.00     0.150 HD
ENDBRANCH  43  44
BRANCH  43  47
HETATM   47  C   UNK N   1      34.551  13.794   8.105  0.00  0.00     0.239 C 
HETATM   48  O   UNK N   1      35.148  14.823   7.824  0.00  0.00    -0.271 OA
HETATM   49  N   UNK N   1      34.896  12.641   7.501  0.00  0.00    -0.368 N 
HETATM   50  H   UNK N   1      34.556  11.781   7.840  0.00  0.00     0.159 HD
HETATM   51  H   UNK N   1      35.492  12.657   6.717  0.00  0.00     0.159 HD
ENDBRANCH  43  47
ENDBRANCH  42  43
ENDBRANCH  40  42
ENDBRANCH  39  40
BRANCH  39  52
HETATM   52  C   UNK N   1      31.387  17.986   8.320  0.00  0.00     0.135 C 
BRANCH  52  53
HETATM   53  C   UNK N   1      30.061  17.786   9.002  0.00  0.00     0.217 C 
HETATM   54  O   UNK N   1      29.175  17.131   8.477  0.00  0.00    -0.274 OA
HETATM   55  N   UNK N   1      29.850  18.343  10.210  0.00  0.00    -0.370 N 
HETATM   56  H   UNK N   1      29.320  19.118  10.507  0.00  0.00     0.159 HD
HETATM   57  H   UNK N   1      30.320  17.883  10.943  0.00  0.00     0.159 HD
ENDBRANCH  52  53
ENDBRANCH  39  52
ENDBRANCH  32  39
BRANCH  35  58
HETATM   58  N   UNK N   1      33.877  15.171   3.790  0.00  0.00    -0.385 N 
HETATM   59  H   UNK N   1      34.302  14.295   3.646  0.00  0.00     0.157 HD
HETATM   60  H   UNK N   1      34.228  15.948   3.299  0.00  0.00     0.157 HD
ENDBRANCH  35  58
ENDBRANCH  27  30
ENDBRANCH  25  26
BRANCH  25  61
HETATM   61  C   UNK N   1      26.259  14.958   3.432  0.00  0.00     0.243 C 
HETATM   62  O   UNK N   1      26.808  15.477   2.470  0.00  0.00    -0.271 OA
HETATM   63  N   UNK N   1      25.280  14.035   3.280  0.00  0.00    -0.352 N 
HETATM   64  H   UNK N   1      24.756  13.825   4.086  0.00  0.00     0.163 HD
BRANCH  63  65
HETATM   65  C   UNK N   1      24.907  13.315   2.069  0.00  0.00     0.110 C 
HETATM   66  C   UNK N   1      25.897  12.251   1.609  0.00  0.00     0.035 C 
BRANCH  65  67
HETATM   67  C   UNK N   1      23.551  12.672   2.350  0.00  0.00     0.153 C 
BRANCH  67  68
HETATM   68  O   UNK N   1      23.748  11.302   2.542  0.00  0.00    -0.393 OA
HETATM   69  H   UNK N   1      23.686  10.524   3.118  0.00  0.00     0.210 HD
ENDBRANCH  67  68
BRANCH  67  70
HETATM   70  C   UNK N   1      22.618  12.901   1.142  0.00  0.00     0.104 C 
HETATM   71  C   UNK N   1      22.992  12.306  -0.213  0.00  0.00     0.022 C 
BRANCH  70  72
HETATM   72  C   UNK N   1      21.707  14.083   1.172  0.00  0.00     0.224 C 
HETATM   73  O   UNK N   1      22.130  15.178   0.838  0.00  0.00    -0.273 OA
HETATM   74  N   UNK N   1      20.419  13.957   1.528  0.00  0.00    -0.345 N 
HETATM   75  H   UNK N   1      19.831  14.743   1.448  0.00  0.00     0.163 HD
BRANCH  74  76
HETATM   76  C   UNK N   1      19.858  12.726   2.021  0.00  0.00     0.205 C 
BRANCH  76  77
HETATM   77  C   UNK N   1      18.813  12.202   1.038  0.00  0.00     0.146 C 
HETATM   78  C   UNK N   1      19.154  10.756   0.729  0.00  0.00     0.042 C 
BRANCH  77  79
HETATM   79  O   UNK N   1      17.526  12.249   1.576  0.00  0.00    -0.393 OA
HETATM   80  H   UNK N   1      17.182  12.730   2.345  0.00  0.00     0.210 HD
ENDBRANCH  77  79
ENDBRANCH  76  77
BRANCH  76  81
HETATM   81  C   UNK N   1      19.362  12.970   3.412  0.00  0.00     0.243 C 
HETATM   82  O   UNK N   1      18.482  13.794   3.592  0.00  0.00    -0.271 OA
HETATM   83  N   UNK N   1      19.855  12.277   4.464  0.00  0.00    -0.359 N 
HETATM   84  H   UNK N   1      19.519  12.491   5.364  0.00  0.00     0.162 HD
BRANCH  83  85
HETATM   85  C   UNK N   1      20.857  11.236   4.328  0.00  0.00     0.129 C 
BRANCH  85  86
HETATM   86  C   UNK N   1      20.738  10.186   5.439  0.00  0.00     0.084 C 
BRANCH  86  87
HETATM   87  C   UNK N   1      21.820   9.163   5.341  0.00  0.00     0.052 A 
HETATM   88  S   UNK N   1      21.774   7.589   5.825  0.00  0.00    -0.086 SA
HETATM   89  C   UNK N   1      23.303   7.142   5.323  0.00  0.00     0.083 A 
HETATM   90  C   UNK N   1      23.834   8.315   4.748  0.00  0.00     0.073 A 
HETATM   91  N   UNK N   1      23.011   9.406   4.768  0.00  0.00    -0.351 N 
ATOM     92  HN  UNK N   1      23.275  10.314   4.386  1.00  0.00     0.166 HD
BRANCH  90  93
HETATM   93  C   UNK N   1      25.112   8.432   4.061  0.00  0.00     0.102 A 
HETATM   94  S   UNK N   1      26.641   8.192   4.628  0.00  0.00    -0.080 SA
HETATM   95  C   UNK N   1      27.452   8.341   3.176  0.00  0.00     0.087 A 
HETATM   96  C   UNK N   1      26.437   8.590   2.228  0.00  0.00     0.108 A 
HETATM   97  N   UNK N   1      25.164   8.646   2.731  0.00  0.00    -0.344 N 
ATOM     98  HN  UNK N   1      24.340   8.830   2.158  1.00  0.00     0.167 HD
BRANCH  96  99
HETATM   99  C   UNK N   1      26.645   8.671   0.776  0.00  0.00     0.268 C 
HETATM  100  O   UNK N   1      25.775   9.180   0.085  0.00  0.00    -0.266 OA
HETATM  101  N   UNK N   1      27.730   8.113   0.194  0.00  0.00    -0.356 N 
HETATM  102  H   UNK N   1      28.430   7.706   0.753  0.00  0.00     0.162 HD
BRANCH 101 103
HETATM  103  C   UNK N   1      27.869   8.109  -1.245  0.00  0.00     0.123 C 
BRANCH 103 104
HETATM  104  C   UNK N   1      27.415   6.791  -1.827  0.00  0.00     0.029 C 
BRANCH 104 105
HETATM  105  C   UNK N   1      26.179   6.969  -2.683  0.00  0.00     0.064 C 
BRANCH 105 106
HETATM  106  S   UNK N   1      26.663   6.643  -4.404  0.00  0.00    -0.228 SA
HETATM  107  C   UNK N   1      26.253   5.030  -5.149  0.00  0.00     0.078 C 
HETATM  108  C   UNK N   1      27.084   8.053  -5.478  0.00  0.00     0.078 C 
ENDBRANCH 105 106
ENDBRANCH 104 105
ENDBRANCH 103 104
ENDBRANCH 101 103
ENDBRANCH  96  99
ENDBRANCH  90  93
ENDBRANCH  86  87
ENDBRANCH  85  86
ENDBRANCH  83  85
ENDBRANCH  76  81
ENDBRANCH  74  76
ENDBRANCH  70  72
ENDBRANCH  67  70
ENDBRANCH  65  67
ENDBRANCH  63  65
ENDBRANCH  25  61
ENDBRANCH  24  25
BRANCH  24 109
HETATM  109  C   UNK N   1      26.686  17.696   5.418  0.00  0.00     0.057 A 
HETATM  110  N   UNK N   1      27.284  18.351   6.424  0.00  0.00    -0.352 N 
HETATM  111  C   UNK N   1      27.537  19.579   5.934  0.00  0.00     0.180 A 
HETATM  112  H   UNK N   1      27.493  18.009   7.324  0.00  0.00     0.166 HD
HETATM  113  N   UNK N   1      27.105  19.711   4.660  0.00  0.00    -0.360 N 
HETATM  114  C   UNK N   1      26.560  18.527   4.332  0.00  0.00     0.116 A 
ATOM    115  HN  UNK N   1      27.177  20.539   4.069  1.00  0.00     0.166 HD
ENDBRANCH  24 109
ENDBRANCH  23  24
ENDBRANCH  15  23
ENDBRANCH   9  10
ENDBRANCH   3   9
BRANCH   5 116
HETATM  116  O   UNK N   1      21.661  19.136   2.909  0.00  0.00    -0.293 OA
BRANCH 116 117
HETATM  117  C   UNK N   1      21.861  20.475   2.783  0.00  0.00     0.358 C 
HETATM  118  O   UNK N   1      22.983  20.955   2.771  0.00  0.00    -0.239 OA
HETATM  119  N   UNK N   1      20.795  21.287   2.644  0.00  0.00    -0.346 N 
HETATM  120  H   UNK N   1      20.876  22.236   2.395  0.00  0.00     0.161 HD
HETATM  121  H   UNK N   1      19.897  20.916   2.799  0.00  0.00     0.161 HD
ENDBRANCH 116 117
ENDBRANCH   5 116
BRANCH   6 122
HETATM  122  O   UNK N   1      20.612  16.305   3.397  0.00  0.00    -0.390 OA
HETATM  123  H   UNK N   1      20.828  15.779   2.611  0.00  0.00     0.210 HD
ENDBRANCH   6 122
BRANCH   7 124
HETATM  124  C   UNK N   1      19.917  15.593   6.111  0.00  0.00     0.198 C 
BRANCH 124 125
HETATM  125  O   UNK N   1      18.587  15.602   5.690  0.00  0.00    -0.398 OA
HETATM  126  H   UNK N   1      17.914  15.867   5.044  0.00  0.00     0.209 HD
ENDBRANCH 124 125
ENDBRANCH   7 124
TORSDOF 45
ENDMDL
MODEL 6
REMARK VINA RESULT:      -6.0      5.966     12.197
REMARK WARNING: 32 MAX_TORS EXCEEDED!!!
REMARK  45 active torsions:
REMARK  status: ('A' for Active; 'I' for Inactive)
REMARK    1  A    between atoms: S_3  and  C_99 
REMARK    2  A    between atoms: O_4  and  C_47 
REMARK    3  A    between atoms: O_4  and  C_51 
REMARK    4  A    between atoms: O_7  and  C_50 
REMARK    5  A    between atoms: C_58  and  O_7 
REMARK    6  A    between atoms: O_8  and  C_48 
REMARK    7  A    between atoms: O_9  and  C_49 
REMARK    8  A    between atoms: O_10  and  C_54 
REMARK    9  A    between atoms: O_10  and  C_63 
REMARK   10  A    between atoms: O_12  and  C_55 
REMARK   11  A    between atoms: O_13  and  C_57 
REMARK   12  A    between atoms: O_14  and  C_59 
REMARK   13  A    between atoms: C_66  and  O_17 
REMARK   14  A    between atoms: C_78  and  O_20 
REMARK   15  A    between atoms: C_60  and  N_25 
REMARK       I    between atoms: N_25  and  C_67 
REMARK       I    between atoms: N_27  and  C_62 
REMARK   16  A    between atoms: C_65  and  N_27 
REMARK       I    between atoms: N_30  and  C_63 
REMARK       I    between atoms: N_31  and  C_73 
REMARK   17  A    between atoms: C_75  and  N_31 
REMARK   18  A    between atoms: C_80  and  N_36 
REMARK   19  A    between atoms: N_36  and  C_84 
REMARK   20  A    between atoms: N_37  and  C_77 
REMARK       I    between atoms: N_38  and  C_81 
REMARK   21  A    between atoms: N_38  and  C_85 
REMARK       I    between atoms: N_39  and  C_86 
REMARK   22  A    between atoms: C_87  and  N_40 
REMARK       I    between atoms: N_41  and  C_89 
REMARK       I    between atoms: N_46  and  C_96 
REMARK   23  A    between atoms: N_46  and  C_97 
REMARK   24  A    between atoms: C_52  and  C_57 
REMARK   25  A    between atoms: C_56  and  C_59 
REMARK   26  A    between atoms: C_58  and  C_60 
REMARK   27  A    between atoms: C_58  and  C_61 
REMARK   28  A    between atoms: C_60  and  C_62 
REMARK   29  A    between atoms: C_65  and  C_66 
REMARK   30  A    between atoms: C_66  and  C_69 
REMARK   31  A    between atoms: C_67  and  C_71 
REMARK   32  A    between atoms: C_69  and  C_73 
REMARK   33  A    between atoms: C_75  and  C_78 
REMARK   34  A    between atoms: C_75  and  C_81 
REMARK   35  A    between atoms: C_76  and  C_80 
REMARK   36  A    between atoms: C_80  and  C_82 
REMARK   37  A    between atoms: C_82  and  C_86 
REMARK   38  A    between atoms: C_84  and  C_87 
REMARK   39  A    between atoms: C_85  and  C_88 
REMARK   40  A    between atoms: C_87  and  C_89 
REMARK   41  A    between atoms: C_88  and  C_90 
REMARK   42  A    between atoms: C_91  and  C_93 
REMARK   43  A    between atoms: C_94  and  C_96 
REMARK   44  A    between atoms: C_97  and  C_98 
REMARK   45  A    between atoms: C_98  and  C_99 
ROOT
HETATM    1  O   UNK N   1      34.800  13.107  14.145  0.00  0.00    -0.348 OA
HETATM    2  O   UNK N   1      35.963  10.388  12.124  0.00  0.00    -0.388 OA
HETATM    3  C   UNK N   1      34.900  12.448  12.895  0.00  0.00     0.292 C 
HETATM    4  C   UNK N   1      35.031  10.912  13.025  0.00  0.00     0.205 C 
HETATM    5  C   UNK N   1      35.333  10.511  14.467  0.00  0.00     0.198 C 
HETATM    6  C   UNK N   1      36.455  11.393  15.008  0.00  0.00     0.181 C 
HETATM    7  C   UNK N   1      35.926  12.846  14.975  0.00  0.00     0.179 C 
HETATM    8  H   UNK N   1      36.590   9.958  11.522  0.00  0.00     0.210 HD
ENDROOT
BRANCH   3   9
HETATM    9  O   UNK N   1      35.843  13.065  12.054  0.00  0.00    -0.346 OA
BRANCH   9  10
HETATM   10  C   UNK N   1      35.091  13.671  11.033  0.00  0.00     0.211 C 
HETATM   11  C   UNK N   1      34.606  15.062  11.439  0.00  0.00     0.183 C 
HETATM   12  C   UNK N   1      35.368  16.153  10.690  0.00  0.00     0.180 C 
HETATM   13  C   UNK N   1      35.247  15.940   9.173  0.00  0.00     0.179 C 
HETATM   14  O   UNK N   1      35.389  14.601   8.735  0.00  0.00    -0.348 OA
HETATM   15  C   UNK N   1      35.884  13.685   9.703  0.00  0.00     0.293 C 
BRANCH  11  16
HETATM   16  O   UNK N   1      33.236  15.156  11.184  0.00  0.00    -0.390 OA
HETATM   17  H   UNK N   1      32.322  14.855  11.300  0.00  0.00     0.210 HD
ENDBRANCH  11  16
BRANCH  12  18
HETATM   18  O   UNK N   1      36.717  16.118  11.051  0.00  0.00    -0.390 OA
HETATM   19  H   UNK N   1      37.611  15.809  10.840  0.00  0.00     0.210 HD
ENDBRANCH  12  18
BRANCH  13  20
HETATM   20  C   UNK N   1      33.904  16.467   8.678  0.00  0.00     0.198 C 
BRANCH  20  21
HETATM   21  O   UNK N   1      33.031  15.408   8.425  0.00  0.00    -0.398 OA
HETATM   22  H   UNK N   1      32.073  15.489   8.556  0.00  0.00     0.209 HD
ENDBRANCH  20  21
ENDBRANCH  13  20
BRANCH  15  23
HETATM   23  O   UNK N   1      35.929  12.394   9.142  0.00  0.00    -0.345 OA
BRANCH  23  24
HETATM   24  C   UNK N   1      35.829  12.561   7.748  0.00  0.00     0.207 C 
BRANCH  24  25
HETATM   25  C   UNK N   1      34.492  12.108   7.194  0.00  0.00     0.212 C 
BRANCH  25  26
HETATM   26  N   UNK N   1      33.772  13.252   6.732  0.00  0.00    -0.340 N 
HETATM   27  C   UNK N   1      32.870  13.198   5.737  0.00  0.00     0.269 C 
HETATM   28  O   UNK N   1      32.496  12.127   5.290  0.00  0.00    -0.266 OA
HETATM   29  H   UNK N   1      33.947  14.120   7.162  0.00  0.00     0.163 HD
BRANCH  27  30
HETATM   30  C   UNK N   1      32.441  14.468   5.153  0.00  0.00     0.111 A 
HETATM   31  N   UNK N   1      31.505  15.171   5.839  0.00  0.00    -0.339 N 
HETATM   32  C   UNK N   1      31.102  16.398   5.444  0.00  0.00     0.106 A 
ATOM     33  HN  UNK N   1      31.092  14.761   6.677  1.00  0.00     0.167 HD
HETATM   34  N   UNK N   1      31.618  16.934   4.305  0.00  0.00    -0.330 N 
HETATM   35  C   UNK N   1      32.547  16.271   3.571  0.00  0.00     0.108 A 
ATOM     36  HN  UNK N   1      31.300  17.852   3.995  1.00  0.00     0.168 HD
HETATM   37  C   UNK N   1      33.003  15.015   3.987  0.00  0.00     0.014 A 
HETATM   38  C   UNK N   1      34.046  14.295   3.192  0.00  0.00     0.055 C 
BRANCH  32  39
HETATM   39  C   UNK N   1      30.184  17.193   6.340  0.00  0.00     0.153 C 
BRANCH  39  40
HETATM   40  N   UNK N   1      30.271  16.761   7.740  0.00  0.00    -0.408 N 
HETATM   41  H   UNK N   1      30.186  15.797   8.063  0.00  0.00     0.154 HD
BRANCH  40  42
HETATM   42  C   UNK N   1      30.500  17.917   8.602  0.00  0.00     0.148 C 
BRANCH  42  43
HETATM   43  C   UNK N   1      29.504  17.914   9.736  0.00  0.00     0.184 C 
BRANCH  43  44
HETATM   44  N   UNK N   1      29.776  16.773  10.593  0.00  0.00    -0.417 N 
HETATM   45  H   UNK N   1      29.810  16.642  11.604  0.00  0.00     0.150 HD
HETATM   46  H   UNK N   1      29.977  15.921  10.072  0.00  0.00     0.150 HD
ENDBRANCH  43  44
BRANCH  43  47
HETATM   47  C   UNK N   1      28.094  17.850   9.226  0.00  0.00     0.239 C 
HETATM   48  O   UNK N   1      27.462  16.804   9.251  0.00  0.00    -0.271 OA
HETATM   49  N   UNK N   1      27.519  18.961   8.728  0.00  0.00    -0.368 N 
HETATM   50  H   UNK N   1      27.938  19.842   8.864  0.00  0.00     0.159 HD
HETATM   51  H   UNK N   1      26.674  18.893   8.226  0.00  0.00     0.159 HD
ENDBRANCH  43  47
ENDBRANCH  42  43
ENDBRANCH  40  42
ENDBRANCH  39  40
BRANCH  39  52
HETATM   52  C   UNK N   1      28.742  17.071   5.810  0.00  0.00     0.135 C 
BRANCH  52  53
HETATM   53  C   UNK N   1      28.495  17.656   4.446  0.00  0.00     0.217 C 
HETATM   54  O   UNK N   1      28.458  16.947   3.453  0.00  0.00    -0.274 OA
HETATM   55  N   UNK N   1      28.315  18.985   4.321  0.00  0.00    -0.370 N 
HETATM   56  H   UNK N   1      28.887  19.710   3.978  0.00  0.00     0.159 HD
HETATM   57  H   UNK N   1      27.434  19.294   4.636  0.00  0.00     0.159 HD
ENDBRANCH  52  53
ENDBRANCH  39  52
ENDBRANCH  32  39
BRANCH  35  58
HETATM   58  N   UNK N   1      33.084  16.877   2.420  0.00  0.00    -0.385 N 
HETATM   59  H   UNK N   1      34.004  16.721   2.107  0.00  0.00     0.157 HD
HETATM   60  H   UNK N   1      32.511  17.487   1.903  0.00  0.00     0.157 HD
ENDBRANCH  35  58
ENDBRANCH  27  30
ENDBRANCH  25  26
BRANCH  25  61
HETATM   61  C   UNK N   1      33.662  11.386   8.196  0.00  0.00     0.243 C 
HETATM   62  O   UNK N   1      32.655  11.905   8.656  0.00  0.00    -0.271 OA
HETATM   63  N   UNK N   1      33.968  10.090   8.437  0.00  0.00    -0.352 N 
HETATM   64  H   UNK N   1      34.884   9.812   8.208  0.00  0.00     0.163 HD
BRANCH  63  65
HETATM   65  C   UNK N   1      33.108   9.055   8.997  0.00  0.00     0.110 C 
HETATM   66  C   UNK N   1      32.709   9.252  10.454  0.00  0.00     0.035 C 
BRANCH  65  67
HETATM   67  C   UNK N   1      31.859   9.011   8.120  0.00  0.00     0.153 C 
BRANCH  67  68
HETATM   68  O   UNK N   1      30.742   8.930   8.955  0.00  0.00    -0.393 OA
HETATM   69  H   UNK N   1      30.196   9.317   9.658  0.00  0.00     0.210 HD
ENDBRANCH  67  68
BRANCH  67  70
HETATM   70  C   UNK N   1      31.919   7.769   7.207  0.00  0.00     0.104 C 
HETATM   71  C   UNK N   1      30.862   7.590   6.120  0.00  0.00     0.022 C 
BRANCH  70  72
HETATM   72  C   UNK N   1      32.629   6.558   7.714  0.00  0.00     0.224 C 
HETATM   73  O   UNK N   1      32.264   6.038   8.756  0.00  0.00    -0.273 OA
HETATM   74  N   UNK N   1      33.642   6.008   7.025  0.00  0.00    -0.345 N 
HETATM   75  H   UNK N   1      34.023   5.160   7.348  0.00  0.00     0.163 HD
BRANCH  74  76
HETATM   76  C   UNK N   1      34.196   6.603   5.836  0.00  0.00     0.205 C 
BRANCH  76  77
HETATM   77  C   UNK N   1      34.576   5.511   4.839  0.00  0.00     0.146 C 
HETATM   78  C   UNK N   1      33.552   5.532   3.719  0.00  0.00     0.042 C 
BRANCH  77  79
HETATM   79  O   UNK N   1      35.840   5.728   4.289  0.00  0.00    -0.393 OA
HETATM   80  H   UNK N   1      36.108   6.241   3.511  0.00  0.00     0.210 HD
ENDBRANCH  77  79
ENDBRANCH  76  77
BRANCH  76  81
HETATM   81  C   UNK N   1      35.314   7.507   6.252  0.00  0.00     0.243 C 
HETATM   82  O   UNK N   1      36.137   7.102   7.056  0.00  0.00    -0.271 OA
HETATM   83  N   UNK N   1      35.440   8.751   5.735  0.00  0.00    -0.359 N 
HETATM   84  H   UNK N   1      36.175   9.320   6.058  0.00  0.00     0.162 HD
BRANCH  83  85
HETATM   85  C   UNK N   1      34.543   9.285   4.727  0.00  0.00     0.129 C 
BRANCH  85  86
HETATM   86  C   UNK N   1      35.301  10.064   3.647  0.00  0.00     0.084 C 
BRANCH  86  87
HETATM   87  C   UNK N   1      34.375  10.591   2.602  0.00  0.00     0.052 A 
HETATM   88  S   UNK N   1      34.684  10.835   1.003  0.00  0.00    -0.086 SA
HETATM   89  C   UNK N   1      33.167  11.362   0.546  0.00  0.00     0.083 A 
HETATM   90  C   UNK N   1      32.414  11.322   1.737  0.00  0.00     0.073 A 
HETATM   91  N   UNK N   1      33.090  10.900   2.847  0.00  0.00    -0.351 N 
ATOM     92  HN  UNK N   1      32.662  10.827   3.771  1.00  0.00     0.166 HD
BRANCH  90  93
HETATM   93  C   UNK N   1      30.988  11.589   1.862  0.00  0.00     0.102 A 
HETATM   94  S   UNK N   1      29.712  10.900   1.079  0.00  0.00    -0.080 SA
HETATM   95  C   UNK N   1      28.487  11.632   1.944  0.00  0.00     0.087 A 
HETATM   96  C   UNK N   1      29.154  12.448   2.882  0.00  0.00     0.108 A 
HETATM   97  N   UNK N   1      30.523  12.419   2.817  0.00  0.00    -0.344 N 
ATOM     98  HN  UNK N   1      31.127  12.970   3.428  1.00  0.00     0.167 HD
BRANCH  96  99
HETATM   99  C   UNK N   1      28.498  13.202   3.958  0.00  0.00     0.268 C 
HETATM  100  O   UNK N   1      29.165  13.560   4.917  0.00  0.00    -0.266 OA
HETATM  101  N   UNK N   1      27.164  13.421   3.944  0.00  0.00    -0.356 N 
HETATM  102  H   UNK N   1      26.629  13.134   3.169  0.00  0.00     0.162 HD
BRANCH 101 103
HETATM  103  C   UNK N   1      26.516  14.074   5.060  0.00  0.00     0.123 C 
BRANCH 103 104
HETATM  104  C   UNK N   1      25.655  15.221   4.586  0.00  0.00     0.029 C 
BRANCH 104 105
HETATM  105  C   UNK N   1      24.905  15.853   5.739  0.00  0.00     0.064 C 
BRANCH 105 106
HETATM  106  S   UNK N   1      23.234  16.249   5.144  0.00  0.00    -0.228 SA
HETATM  107  C   UNK N   1      22.447  17.803   5.682  0.00  0.00     0.078 C 
HETATM  108  C   UNK N   1      22.596  15.374   3.679  0.00  0.00     0.078 C 
ENDBRANCH 105 106
ENDBRANCH 104 105
ENDBRANCH 103 104
ENDBRANCH 101 103
ENDBRANCH  96  99
ENDBRANCH  90  93
ENDBRANCH  86  87
ENDBRANCH  85  86
ENDBRANCH  83  85
ENDBRANCH  76  81
ENDBRANCH  74  76
ENDBRANCH  70  72
ENDBRANCH  67  70
ENDBRANCH  65  67
ENDBRANCH  63  65
ENDBRANCH  25  61
ENDBRANCH  24  25
BRANCH  24 109
HETATM  109  C   UNK N   1      37.072  12.168   6.989  0.00  0.00     0.057 A 
HETATM  110  N   UNK N   1      38.188  11.678   7.550  0.00  0.00    -0.352 N 
HETATM  111  C   UNK N   1      39.079  11.613   6.542  0.00  0.00     0.180 A 
HETATM  112  H   UNK N   1      38.326  11.421   8.490  0.00  0.00     0.166 HD
HETATM  113  N   UNK N   1      38.555  12.057   5.378  0.00  0.00    -0.360 N 
HETATM  114  C   UNK N   1      37.291  12.417   5.657  0.00  0.00     0.116 A 
ATOM    115  HN  UNK N   1      39.023  12.110   4.474  1.00  0.00     0.166 HD
ENDBRANCH  24 109
ENDBRANCH  23  24
ENDBRANCH  15  23
ENDBRANCH   9  10
ENDBRANCH   3   9
BRANCH   5 116
HETATM  116  O   UNK N   1      35.432   9.130  14.614  0.00  0.00    -0.293 OA
BRANCH 116 117
HETATM  117  C   UNK N   1      36.053   8.228  13.807  0.00  0.00     0.358 C 
HETATM  118  O   UNK N   1      35.420   7.481  13.078  0.00  0.00    -0.239 OA
HETATM  119  N   UNK N   1      37.399   8.176  13.795  0.00  0.00    -0.346 N 
HETATM  120  H   UNK N   1      37.907   7.661  13.127  0.00  0.00     0.161 HD
HETATM  121  H   UNK N   1      37.896   8.674  14.484  0.00  0.00     0.161 HD
ENDBRANCH 116 117
ENDBRANCH   5 116
BRANCH   6 122
HETATM  122  O   UNK N   1      37.597  11.254  14.212  0.00  0.00    -0.390 OA
HETATM  123  H   UNK N   1      38.524  11.172  13.939  0.00  0.00     0.210 HD
ENDBRANCH   6 122
BRANCH   7 124
HETATM  124  C   UNK N   1      36.966  13.963  14.998  0.00  0.00     0.198 C 
BRANCH 124 125
HETATM  125  O   UNK N   1      36.802  14.826  13.914  0.00  0.00    -0.398 OA
HETATM  126  H   UNK N   1      36.528  14.976  12.996  0.00  0.00     0.209 HD
ENDBRANCH 124 125
ENDBRANCH   7 124
TORSDOF 45
ENDMDL
MODEL 7
REMARK VINA RESULT:      -6.0      2.897      5.602
REMARK WARNING: 32 MAX_TORS EXCEEDED!!!
REMARK  45 active torsions:
REMARK  status: ('A' for Active; 'I' for Inactive)
REMARK    1  A    between atoms: S_3  and  C_99 
REMARK    2  A    between atoms: O_4  and  C_47 
REMARK    3  A    between atoms: O_4  and  C_51 
REMARK    4  A    between atoms: O_7  and  C_50 
REMARK    5  A    between atoms: C_58  and  O_7 
REMARK    6  A    between atoms: O_8  and  C_48 
REMARK    7  A    between atoms: O_9  and  C_49 
REMARK    8  A    between atoms: O_10  and  C_54 
REMARK    9  A    between atoms: O_10  and  C_63 
REMARK   10  A    between atoms: O_12  and  C_55 
REMARK   11  A    between atoms: O_13  and  C_57 
REMARK   12  A    between atoms: O_14  and  C_59 
REMARK   13  A    between atoms: C_66  and  O_17 
REMARK   14  A    between atoms: C_78  and  O_20 
REMARK   15  A    between atoms: C_60  and  N_25 
REMARK       I    between atoms: N_25  and  C_67 
REMARK       I    between atoms: N_27  and  C_62 
REMARK   16  A    between atoms: C_65  and  N_27 
REMARK       I    between atoms: N_30  and  C_63 
REMARK       I    between atoms: N_31  and  C_73 
REMARK   17  A    between atoms: C_75  and  N_31 
REMARK   18  A    between atoms: C_80  and  N_36 
REMARK   19  A    between atoms: N_36  and  C_84 
REMARK   20  A    between atoms: N_37  and  C_77 
REMARK       I    between atoms: N_38  and  C_81 
REMARK   21  A    between atoms: N_38  and  C_85 
REMARK       I    between atoms: N_39  and  C_86 
REMARK   22  A    between atoms: C_87  and  N_40 
REMARK       I    between atoms: N_41  and  C_89 
REMARK       I    between atoms: N_46  and  C_96 
REMARK   23  A    between atoms: N_46  and  C_97 
REMARK   24  A    between atoms: C_52  and  C_57 
REMARK   25  A    between atoms: C_56  and  C_59 
REMARK   26  A    between atoms: C_58  and  C_60 
REMARK   27  A    between atoms: C_58  and  C_61 
REMARK   28  A    between atoms: C_60  and  C_62 
REMARK   29  A    between atoms: C_65  and  C_66 
REMARK   30  A    between atoms: C_66  and  C_69 
REMARK   31  A    between atoms: C_67  and  C_71 
REMARK   32  A    between atoms: C_69  and  C_73 
REMARK   33  A    between atoms: C_75  and  C_78 
REMARK   34  A    between atoms: C_75  and  C_81 
REMARK   35  A    between atoms: C_76  and  C_80 
REMARK   36  A    between atoms: C_80  and  C_82 
REMARK   37  A    between atoms: C_82  and  C_86 
REMARK   38  A    between atoms: C_84  and  C_87 
REMARK   39  A    between atoms: C_85  and  C_88 
REMARK   40  A    between atoms: C_87  and  C_89 
REMARK   41  A    between atoms: C_88  and  C_90 
REMARK   42  A    between atoms: C_91  and  C_93 
REMARK   43  A    between atoms: C_94  and  C_96 
REMARK   44  A    between atoms: C_97  and  C_98 
REMARK   45  A    between atoms: C_98  and  C_99 
ROOT
HETATM    1  O   UNK N   1      27.892  20.429   4.823  0.00  0.00    -0.348 OA
HETATM    2  O   UNK N   1      26.062  17.684   3.430  0.00  0.00    -0.388 OA
HETATM    3  C   UNK N   1      27.851  19.168   4.180  0.00  0.00     0.292 C 
HETATM    4  C   UNK N   1      26.592  18.971   3.303  0.00  0.00     0.205 C 
HETATM    5  C   UNK N   1      25.554  20.054   3.589  0.00  0.00     0.198 C 
HETATM    6  C   UNK N   1      25.384  20.199   5.099  0.00  0.00     0.181 C 
HETATM    7  C   UNK N   1      26.758  20.638   5.657  0.00  0.00     0.179 C 
HETATM    8  H   UNK N   1      25.645  16.809   3.465  0.00  0.00     0.210 HD
ENDROOT
BRANCH   3   9
HETATM    9  O   UNK N   1      28.135  18.119   5.072  0.00  0.00    -0.346 OA
BRANCH   9  10
HETATM   10  C   UNK N   1      29.198  17.410   4.487  0.00  0.00     0.211 C 
HETATM   11  C   UNK N   1      30.540  17.790   5.111  0.00  0.00     0.183 C 
HETATM   12  C   UNK N   1      31.077  16.664   5.993  0.00  0.00     0.180 C 
HETATM   13  C   UNK N   1      31.186  15.362   5.185  0.00  0.00     0.179 C 
HETATM   14  O   UNK N   1      30.089  15.082   4.333  0.00  0.00    -0.348 OA
HETATM   15  C   UNK N   1      28.933  15.885   4.535  0.00  0.00     0.293 C 
BRANCH  11  16
HETATM   16  O   UNK N   1      31.446  18.089   4.091  0.00  0.00    -0.390 OA
HETATM   17  H   UNK N   1      31.969  17.842   3.313  0.00  0.00     0.210 HD
ENDBRANCH  11  16
BRANCH  12  18
HETATM   18  O   UNK N   1      30.217  16.461   7.074  0.00  0.00    -0.390 OA
HETATM   19  H   UNK N   1      30.010  15.944   7.867  0.00  0.00     0.210 HD
ENDBRANCH  12  18
BRANCH  13  20
HETATM   20  C   UNK N   1      32.456  15.376   4.341  0.00  0.00     0.198 C 
BRANCH  20  21
HETATM   21  O   UNK N   1      32.141  15.239   2.987  0.00  0.00    -0.398 OA
HETATM   22  H   UNK N   1      32.251  15.969   2.358  0.00  0.00     0.209 HD
ENDBRANCH  20  21
ENDBRANCH  13  20
BRANCH  15  23
HETATM   23  O   UNK N   1      27.947  15.526   3.594  0.00  0.00    -0.345 OA
BRANCH  23  24
HETATM   24  C   UNK N   1      27.299  14.388   4.110  0.00  0.00     0.207 C 
BRANCH  24  25
HETATM   25  C   UNK N   1      26.697  13.511   3.030  0.00  0.00     0.212 C 
BRANCH  25  26
HETATM   26  N   UNK N   1      27.755  12.906   2.284  0.00  0.00    -0.340 N 
HETATM   27  C   UNK N   1      28.336  11.748   2.641  0.00  0.00     0.269 C 
HETATM   28  O   UNK N   1      27.868  11.065   3.537  0.00  0.00    -0.266 OA
HETATM   29  H   UNK N   1      28.073  13.360   1.470  0.00  0.00     0.163 HD
BRANCH  27  30
HETATM   30  C   UNK N   1      29.595  11.400   1.985  0.00  0.00     0.111 A 
HETATM   31  N   UNK N   1      30.732  11.601   2.700  0.00  0.00    -0.339 N 
HETATM   32  C   UNK N   1      31.943  11.231   2.233  0.00  0.00     0.106 A 
ATOM     33  HN  UNK N   1      30.669  12.047   3.615  1.00  0.00     0.167 HD
HETATM   34  N   UNK N   1      32.038  10.673   0.996  0.00  0.00    -0.330 N 
HETATM   35  C   UNK N   1      30.938  10.460   0.231  0.00  0.00     0.108 A 
ATOM     36  HN  UNK N   1      32.956  10.411   0.634  1.00  0.00     0.168 HD
HETATM   37  C   UNK N   1      29.671  10.804   0.715  0.00  0.00     0.014 A 
HETATM   38  C   UNK N   1      28.455  10.546  -0.117  0.00  0.00     0.055 C 
BRANCH  32  39
HETATM   39  C   UNK N   1      33.143  11.331   3.144  0.00  0.00     0.153 C 
BRANCH  39  40
HETATM   40  N   UNK N   1      32.928  12.289   4.234  0.00  0.00    -0.408 N 
HETATM   41  H   UNK N   1      32.803  13.295   4.115  0.00  0.00     0.154 HD
BRANCH  40  42
HETATM   42  C   UNK N   1      32.918  11.590   5.515  0.00  0.00     0.148 C 
BRANCH  42  43
HETATM   43  C   UNK N   1      33.399  12.515   6.607  0.00  0.00     0.184 C 
BRANCH  43  44
HETATM   44  N   UNK N   1      34.671  13.088   6.205  0.00  0.00    -0.417 N 
HETATM   45  H   UNK N   1      35.639  12.771   6.264  0.00  0.00     0.150 HD
HETATM   46  H   UNK N   1      34.577  14.006   5.771  0.00  0.00     0.150 HD
ENDBRANCH  43  44
BRANCH  43  47
HETATM   47  C   UNK N   1      33.550  11.789   7.912  0.00  0.00     0.239 C 
HETATM   48  O   UNK N   1      32.792  12.009   8.846  0.00  0.00    -0.271 OA
HETATM   49  N   UNK N   1      34.539  10.887   8.058  0.00  0.00    -0.368 N 
HETATM   50  H   UNK N   1      35.039  10.567   7.272  0.00  0.00     0.159 HD
HETATM   51  H   UNK N   1      34.763  10.545   8.954  0.00  0.00     0.159 HD
ENDBRANCH  43  47
ENDBRANCH  42  43
ENDBRANCH  40  42
ENDBRANCH  39  40
BRANCH  39  52
HETATM   52  C   UNK N   1      34.376  11.713   2.302  0.00  0.00     0.135 C 
BRANCH  52  53
HETATM   53  C   UNK N   1      34.819  13.147   2.406  0.00  0.00     0.217 C 
HETATM   54  O   UNK N   1      35.495  13.531   3.347  0.00  0.00    -0.274 OA
HETATM   55  N   UNK N   1      34.461  14.020   1.446  0.00  0.00    -0.370 N 
HETATM   56  H   UNK N   1      33.800  14.750   1.416  0.00  0.00     0.159 HD
HETATM   57  H   UNK N   1      34.959  13.905   0.604  0.00  0.00     0.159 HD
ENDBRANCH  52  53
ENDBRANCH  39  52
ENDBRANCH  32  39
BRANCH  35  58
HETATM   58  N   UNK N   1      31.076   9.846  -1.027  0.00  0.00    -0.385 N 
HETATM   59  H   UNK N   1      31.357  10.331  -1.836  0.00  0.00     0.157 HD
HETATM   60  H   UNK N   1      30.881   8.884  -1.102  0.00  0.00     0.157 HD
ENDBRANCH  35  58
ENDBRANCH  27  30
ENDBRANCH  25  26
BRANCH  25  61
HETATM   61  C   UNK N   1      25.814  14.261   2.097  0.00  0.00     0.243 C 
HETATM   62  O   UNK N   1      26.285  14.841   1.129  0.00  0.00    -0.271 OA
HETATM   63  N   UNK N   1      24.478  14.129   2.266  0.00  0.00    -0.352 N 
HETATM   64  H   UNK N   1      24.182  13.838   3.159  0.00  0.00     0.163 HD
BRANCH  63  65
HETATM   65  C   UNK N   1      23.422  14.366   1.289  0.00  0.00     0.110 C 
HETATM   66  C   UNK N   1      23.371  13.379   0.130  0.00  0.00     0.035 C 
BRANCH  65  67
HETATM   67  C   UNK N   1      22.105  14.328   2.060  0.00  0.00     0.153 C 
BRANCH  67  68
HETATM   68  O   UNK N   1      21.071  14.111   1.146  0.00  0.00    -0.393 OA
HETATM   69  H   UNK N   1      20.122  14.127   0.941  0.00  0.00     0.210 HD
ENDBRANCH  67  68
BRANCH  67  70
HETATM   70  C   UNK N   1      21.894  15.679   2.776  0.00  0.00     0.104 C 
HETATM   71  C   UNK N   1      22.772  16.034   3.974  0.00  0.00     0.022 C 
BRANCH  70  72
HETATM   72  C   UNK N   1      20.561  16.339   2.652  0.00  0.00     0.224 C 
HETATM   73  O   UNK N   1      20.382  17.176   1.782  0.00  0.00    -0.273 OA
HETATM   74  N   UNK N   1      19.542  16.003   3.460  0.00  0.00    -0.345 N 
HETATM   75  H   UNK N   1      18.656  16.396   3.287  0.00  0.00     0.163 HD
BRANCH  74  76
HETATM   76  C   UNK N   1      19.687  15.095   4.568  0.00  0.00     0.205 C 
BRANCH  76  77
HETATM   77  C   UNK N   1      19.189  13.708   4.169  0.00  0.00     0.146 C 
HETATM   78  C   UNK N   1      20.122  12.686   4.792  0.00  0.00     0.042 C 
BRANCH  77  79
HETATM   79  O   UNK N   1      17.895  13.467   4.633  0.00  0.00    -0.393 OA
HETATM   80  H   UNK N   1      17.184  14.086   4.864  0.00  0.00     0.210 HD
ENDBRANCH  77  79
ENDBRANCH  76  77
BRANCH  76  81
HETATM   81  C   UNK N   1      19.005  15.702   5.754  0.00  0.00     0.243 C 
HETATM   82  O   UNK N   1      17.843  16.060   5.652  0.00  0.00    -0.271 OA
HETATM   83  N   UNK N   1      19.645  15.839   6.938  0.00  0.00    -0.359 N 
HETATM   84  H   UNK N   1      19.166  16.269   7.682  0.00  0.00     0.162 HD
BRANCH  83  85
HETATM   85  C   UNK N   1      21.004  15.382   7.161  0.00  0.00     0.129 C 
BRANCH  85  86
HETATM   86  C   UNK N   1      21.262  15.071   8.639  0.00  0.00     0.084 C 
BRANCH  86  87
HETATM   87  C   UNK N   1      21.982  13.774   8.807  0.00  0.00     0.052 A 
HETATM   88  S   UNK N   1      22.276  12.951  10.203  0.00  0.00    -0.086 SA
HETATM   89  C   UNK N   1      23.047  11.626   9.537  0.00  0.00     0.083 A 
HETATM   90  C   UNK N   1      23.044  11.885   8.152  0.00  0.00     0.073 A 
HETATM   91  N   UNK N   1      22.460  13.060   7.773  0.00  0.00    -0.351 N 
ATOM     92  HN  UNK N   1      22.394  13.367   6.802  1.00  0.00     0.166 HD
BRANCH  90  93
HETATM   93  C   UNK N   1      23.508  10.981   7.109  0.00  0.00     0.102 A 
HETATM   94  S   UNK N   1      23.757   9.353   7.156  0.00  0.00    -0.080 SA
HETATM   95  C   UNK N   1      24.082   9.122   5.534  0.00  0.00     0.087 A 
HETATM   96  C   UNK N   1      23.978  10.409   4.965  0.00  0.00     0.108 A 
HETATM   97  N   UNK N   1      23.673  11.416   5.843  0.00  0.00    -0.344 N 
ATOM     98  HN  UNK N   1      23.580  12.395   5.567  1.00  0.00     0.167 HD
BRANCH  96  99
HETATM   99  C   UNK N   1      24.057  10.702   3.528  0.00  0.00     0.268 C 
HETATM  100  O   UNK N   1      23.138  11.310   3.001  0.00  0.00    -0.266 OA
HETATM  101  N   UNK N   1      25.077  10.233   2.775  0.00  0.00    -0.356 N 
HETATM  102  H   UNK N   1      25.818   9.746   3.203  0.00  0.00     0.162 HD
BRANCH 101 103
HETATM  103  C   UNK N   1      25.088  10.441   1.344  0.00  0.00     0.123 C 
BRANCH 103 104
HETATM  104  C   UNK N   1      24.716   9.173   0.613  0.00  0.00     0.029 C 
BRANCH 104 105
HETATM  105  C   UNK N   1      23.408   9.335  -0.131  0.00  0.00     0.064 C 
BRANCH 105 106
HETATM  106  S   UNK N   1      22.249   8.107   0.540  0.00  0.00    -0.228 SA
HETATM  107  C   UNK N   1      21.416   6.957  -0.604  0.00  0.00     0.078 C 
HETATM  108  C   UNK N   1      22.316   7.720   2.319  0.00  0.00     0.078 C 
ENDBRANCH 105 106
ENDBRANCH 104 105
ENDBRANCH 103 104
ENDBRANCH 101 103
ENDBRANCH  96  99
ENDBRANCH  90  93
ENDBRANCH  86  87
ENDBRANCH  85  86
ENDBRANCH  83  85
ENDBRANCH  76  81
ENDBRANCH  74  76
ENDBRANCH  70  72
ENDBRANCH  67  70
ENDBRANCH  65  67
ENDBRANCH  63  65
ENDBRANCH  25  61
ENDBRANCH  24  25
BRANCH  24 109
HETATM  109  C   UNK N   1      26.468  14.657   5.340  0.00  0.00     0.057 A 
HETATM  110  N   UNK N   1      25.980  15.858   5.687  0.00  0.00    -0.352 N 
HETATM  111  C   UNK N   1      25.441  15.671   6.906  0.00  0.00     0.180 A 
HETATM  112  H   UNK N   1      26.009  16.692   5.164  0.00  0.00     0.166 HD
HETATM  113  N   UNK N   1      25.588  14.397   7.331  0.00  0.00    -0.360 N 
HETATM  114  C   UNK N   1      26.243  13.755   6.349  0.00  0.00     0.116 A 
ATOM    115  HN  UNK N   1      25.269  14.003   8.216  1.00  0.00     0.166 HD
ENDBRANCH  24 109
ENDBRANCH  23  24
ENDBRANCH  15  23
ENDBRANCH   9  10
ENDBRANCH   3   9
BRANCH   5 116
HETATM  116  O   UNK N   1      24.420  19.912   2.794  0.00  0.00    -0.293 OA
BRANCH 116 117
HETATM  117  C   UNK N   1      23.168  20.401   2.998  0.00  0.00     0.358 C 
HETATM  118  O   UNK N   1      22.932  21.597   2.941  0.00  0.00    -0.239 OA
HETATM  119  N   UNK N   1      22.160  19.542   3.243  0.00  0.00    -0.346 N 
HETATM  120  H   UNK N   1      21.214  19.814   3.243  0.00  0.00     0.161 HD
HETATM  121  H   UNK N   1      22.379  18.600   3.430  0.00  0.00     0.161 HD
ENDBRANCH 116 117
ENDBRANCH   5 116
BRANCH   6 122
HETATM  122  O   UNK N   1      24.982  18.978   5.652  0.00  0.00    -0.390 OA
HETATM  123  H   UNK N   1      24.734  18.296   6.296  0.00  0.00     0.210 HD
ENDBRANCH   6 122
BRANCH   7 124
HETATM  124  C   UNK N   1      27.012  20.397   7.142  0.00  0.00     0.198 C 
BRANCH 124 125
HETATM  125  O   UNK N   1      25.944  20.851   7.916  0.00  0.00    -0.398 OA
HETATM  126  H   UNK N   1      25.095  21.315   7.983  0.00  0.00     0.209 HD
ENDBRANCH 124 125
ENDBRANCH   7 124
TORSDOF 45
ENDMDL
MODEL 8
REMARK VINA RESULT:      -5.9      2.940      5.094
REMARK WARNING: 32 MAX_TORS EXCEEDED!!!
REMARK  45 active torsions:
REMARK  status: ('A' for Active; 'I' for Inactive)
REMARK    1  A    between atoms: S_3  and  C_99 
REMARK    2  A    between atoms: O_4  and  C_47 
REMARK    3  A    between atoms: O_4  and  C_51 
REMARK    4  A    between atoms: O_7  and  C_50 
REMARK    5  A    between atoms: C_58  and  O_7 
REMARK    6  A    between atoms: O_8  and  C_48 
REMARK    7  A    between atoms: O_9  and  C_49 
REMARK    8  A    between atoms: O_10  and  C_54 
REMARK    9  A    between atoms: O_10  and  C_63 
REMARK   10  A    between atoms: O_12  and  C_55 
REMARK   11  A    between atoms: O_13  and  C_57 
REMARK   12  A    between atoms: O_14  and  C_59 
REMARK   13  A    between atoms: C_66  and  O_17 
REMARK   14  A    between atoms: C_78  and  O_20 
REMARK   15  A    between atoms: C_60  and  N_25 
REMARK       I    between atoms: N_25  and  C_67 
REMARK       I    between atoms: N_27  and  C_62 
REMARK   16  A    between atoms: C_65  and  N_27 
REMARK       I    between atoms: N_30  and  C_63 
REMARK       I    between atoms: N_31  and  C_73 
REMARK   17  A    between atoms: C_75  and  N_31 
REMARK   18  A    between atoms: C_80  and  N_36 
REMARK   19  A    between atoms: N_36  and  C_84 
REMARK   20  A    between atoms: N_37  and  C_77 
REMARK       I    between atoms: N_38  and  C_81 
REMARK   21  A    between atoms: N_38  and  C_85 
REMARK       I    between atoms: N_39  and  C_86 
REMARK   22  A    between atoms: C_87  and  N_40 
REMARK       I    between atoms: N_41  and  C_89 
REMARK       I    between atoms: N_46  and  C_96 
REMARK   23  A    between atoms: N_46  and  C_97 
REMARK   24  A    between atoms: C_52  and  C_57 
REMARK   25  A    between atoms: C_56  and  C_59 
REMARK   26  A    between atoms: C_58  and  C_60 
REMARK   27  A    between atoms: C_58  and  C_61 
REMARK   28  A    between atoms: C_60  and  C_62 
REMARK   29  A    between atoms: C_65  and  C_66 
REMARK   30  A    between atoms: C_66  and  C_69 
REMARK   31  A    between atoms: C_67  and  C_71 
REMARK   32  A    between atoms: C_69  and  C_73 
REMARK   33  A    between atoms: C_75  and  C_78 
REMARK   34  A    between atoms: C_75  and  C_81 
REMARK   35  A    between atoms: C_76  and  C_80 
REMARK   36  A    between atoms: C_80  and  C_82 
REMARK   37  A    between atoms: C_82  and  C_86 
REMARK   38  A    between atoms: C_84  and  C_87 
REMARK   39  A    between atoms: C_85  and  C_88 
REMARK   40  A    between atoms: C_87  and  C_89 
REMARK   41  A    between atoms: C_88  and  C_90 
REMARK   42  A    between atoms: C_91  and  C_93 
REMARK   43  A    between atoms: C_94  and  C_96 
REMARK   44  A    between atoms: C_97  and  C_98 
REMARK   45  A    between atoms: C_98  and  C_99 
ROOT
HETATM    1  O   UNK N   1      28.010  20.142   4.788  0.00  0.00    -0.348 OA
HETATM    2  O   UNK N   1      25.918  17.526   3.521  0.00  0.00    -0.388 OA
HETATM    3  C   UNK N   1      27.845  18.861   4.206  0.00  0.00     0.292 C 
HETATM    4  C   UNK N   1      26.572  18.747   3.334  0.00  0.00     0.205 C 
HETATM    5  C   UNK N   1      25.645  19.940   3.565  0.00  0.00     0.198 C 
HETATM    6  C   UNK N   1      25.492  20.172   5.066  0.00  0.00     0.181 C 
HETATM    7  C   UNK N   1      26.903  20.501   5.606  0.00  0.00     0.179 C 
HETATM    8  H   UNK N   1      25.417  16.698   3.597  0.00  0.00     0.210 HD
ENDROOT
BRANCH   3   9
HETATM    9  O   UNK N   1      28.025  17.834   5.147  0.00  0.00    -0.346 OA
BRANCH   9  10
HETATM   10  C   UNK N   1      29.141  17.107   4.698  0.00  0.00     0.211 C 
HETATM   11  C   UNK N   1      30.452  17.755   5.140  0.00  0.00     0.183 C 
HETATM   12  C   UNK N   1      31.129  16.938   6.240  0.00  0.00     0.180 C 
HETATM   13  C   UNK N   1      31.352  15.494   5.767  0.00  0.00     0.179 C 
HETATM   14  O   UNK N   1      30.267  14.909   5.067  0.00  0.00    -0.348 OA
HETATM   15  C   UNK N   1      29.039  15.623   5.128  0.00  0.00     0.293 C 
BRANCH  11  16
HETATM   16  O   UNK N   1      31.293  17.879   4.032  0.00  0.00    -0.390 OA
HETATM   17  H   UNK N   1      31.459  17.850   3.077  0.00  0.00     0.210 HD
ENDBRANCH  11  16
BRANCH  12  18
HETATM   18  O   UNK N   1      30.324  16.927   7.381  0.00  0.00    -0.390 OA
HETATM   19  H   UNK N   1      30.251  17.108   8.330  0.00  0.00     0.210 HD
ENDBRANCH  12  18
BRANCH  13  20
HETATM   20  C   UNK N   1      32.590  15.420   4.880  0.00  0.00     0.198 C 
BRANCH  20  21
HETATM   21  O   UNK N   1      33.723  15.812   5.594  0.00  0.00    -0.398 OA
HETATM   22  H   UNK N   1      34.207  15.198   6.167  0.00  0.00     0.209 HD
ENDBRANCH  20  21
ENDBRANCH  13  20
BRANCH  15  23
HETATM   23  O   UNK N   1      28.072  14.951   4.355  0.00  0.00    -0.345 OA
BRANCH  23  24
HETATM   24  C   UNK N   1      27.531  13.946   5.178  0.00  0.00     0.207 C 
BRANCH  24  25
HETATM   25  C   UNK N   1      27.683  12.556   4.591  0.00  0.00     0.212 C 
BRANCH  25  26
HETATM   26  N   UNK N   1      29.053  12.350   4.240  0.00  0.00    -0.340 N 
HETATM   27  C   UNK N   1      29.780  11.318   4.701  0.00  0.00     0.269 C 
HETATM   28  O   UNK N   1      29.252  10.406   5.314  0.00  0.00    -0.266 OA
HETATM   29  H   UNK N   1      29.483  12.995   3.633  0.00  0.00     0.163 HD
BRANCH  27  30
HETATM   30  C   UNK N   1      31.230  11.391   4.527  0.00  0.00     0.111 A 
HETATM   31  N   UNK N   1      31.957  11.775   5.607  0.00  0.00    -0.339 N 
HETATM   32  C   UNK N   1      33.307  11.789   5.591  0.00  0.00     0.106 A 
ATOM     33  HN  UNK N   1      31.469  12.064   6.455  1.00  0.00     0.167 HD
HETATM   34  N   UNK N   1      33.963  11.444   4.449  0.00  0.00    -0.330 N 
HETATM   35  C   UNK N   1      33.288  11.064   3.335  0.00  0.00     0.108 A 
ATOM     36  HN  UNK N   1      34.983  11.472   4.430  1.00  0.00     0.168 HD
HETATM   37  C   UNK N   1      31.891  11.009   3.347  0.00  0.00     0.014 A 
HETATM   38  C   UNK N   1      31.147  10.565   2.127  0.00  0.00     0.055 C 
BRANCH  32  39
HETATM   39  C   UNK N   1      34.054  12.066   6.873  0.00  0.00     0.153 C 
BRANCH  39  40
HETATM   40  N   UNK N   1      33.529  13.244   7.571  0.00  0.00    -0.408 N 
HETATM   41  H   UNK N   1      33.150  14.075   7.117  0.00  0.00     0.154 HD
BRANCH  40  42
HETATM   42  C   UNK N   1      33.628  13.051   9.015  0.00  0.00     0.148 C 
BRANCH  42  43
HETATM   43  C   UNK N   1      33.978  14.357   9.684  0.00  0.00     0.184 C 
BRANCH  43  44
HETATM   44  N   UNK N   1      33.991  14.156  11.122  0.00  0.00    -0.417 N 
HETATM   45  H   UNK N   1      34.681  14.331  11.854  0.00  0.00     0.150 HD
HETATM   46  H   UNK N   1      33.125  13.753  11.477  0.00  0.00     0.150 HD
ENDBRANCH  43  44
BRANCH  43  47
HETATM   47  C   UNK N   1      32.998  15.436   9.324  0.00  0.00     0.239 C 
HETATM   48  O   UNK N   1      33.313  16.347   8.571  0.00  0.00    -0.271 OA
HETATM   49  N   UNK N   1      31.756  15.404   9.843  0.00  0.00    -0.368 N 
HETATM   50  H   UNK N   1      31.429  14.594  10.300  0.00  0.00     0.159 HD
HETATM   51  H   UNK N   1      31.171  16.192   9.766  0.00  0.00     0.159 HD
ENDBRANCH  43  47
ENDBRANCH  42  43
ENDBRANCH  40  42
ENDBRANCH  39  40
BRANCH  39  52
HETATM   52  C   UNK N   1      35.552  12.233   6.549  0.00  0.00     0.135 C 
BRANCH  52  53
HETATM   53  C   UNK N   1      35.995  13.629   6.208  0.00  0.00     0.217 C 
HETATM   54  O   UNK N   1      36.161  14.468   7.079  0.00  0.00    -0.274 OA
HETATM   55  N   UNK N   1      36.209  13.957   4.919  0.00  0.00    -0.370 N 
HETATM   56  H   UNK N   1      35.700  14.498   4.272  0.00  0.00     0.159 HD
HETATM   57  H   UNK N   1      37.041  13.580   4.550  0.00  0.00     0.159 HD
ENDBRANCH  52  53
ENDBRANCH  39  52
ENDBRANCH  32  39
BRANCH  35  58
HETATM   58  N   UNK N   1      34.006  10.678   2.188  0.00  0.00    -0.385 N 
HETATM   59  H   UNK N   1      33.593  10.585   1.299  0.00  0.00     0.157 HD
HETATM   60  H   UNK N   1      34.968  10.491   2.279  0.00  0.00     0.157 HD
ENDBRANCH  35  58
ENDBRANCH  27  30
ENDBRANCH  25  26
BRANCH  25  61
HETATM   61  C   UNK N   1      26.837  12.339   3.387  0.00  0.00     0.243 C 
HETATM   62  O   UNK N   1      26.654  11.210   2.953  0.00  0.00    -0.271 OA
HETATM   63  N   UNK N   1      26.153  13.404   2.908  0.00  0.00    -0.352 N 
HETATM   64  H   UNK N   1      26.501  14.290   3.160  0.00  0.00     0.163 HD
BRANCH  63  65
HETATM   65  C   UNK N   1      24.963  13.401   2.066  0.00  0.00     0.110 C 
HETATM   66  C   UNK N   1      24.915  12.306   1.006  0.00  0.00     0.035 C 
BRANCH  65  67
HETATM   67  C   UNK N   1      23.769  13.263   3.006  0.00  0.00     0.153 C 
BRANCH  67  68
HETATM   68  O   UNK N   1      23.235  11.981   2.850  0.00  0.00    -0.393 OA
HETATM   69  H   UNK N   1      23.072  11.096   3.212  0.00  0.00     0.210 HD
ENDBRANCH  67  68
BRANCH  67  70
HETATM   70  C   UNK N   1      22.706  14.320   2.639  0.00  0.00     0.104 C 
HETATM   71  C   UNK N   1      22.315  14.508   1.175  0.00  0.00     0.022 C 
BRANCH  70  72
HETATM   72  C   UNK N   1      22.486  15.454   3.584  0.00  0.00     0.224 C 
HETATM   73  O   UNK N   1      23.190  16.448   3.506  0.00  0.00    -0.273 OA
HETATM   74  N   UNK N   1      21.505  15.414   4.500  0.00  0.00    -0.345 N 
HETATM   75  H   UNK N   1      21.337  16.218   5.043  0.00  0.00     0.163 HD
BRANCH  74  76
HETATM   76  C   UNK N   1      20.687  14.250   4.723  0.00  0.00     0.205 C 
BRANCH  76  77
HETATM   77  C   UNK N   1      19.360  14.400   3.985  0.00  0.00     0.146 C 
HETATM   78  C   UNK N   1      19.254  13.259   2.989  0.00  0.00     0.042 C 
BRANCH  77  79
HETATM   79  O   UNK N   1      18.271  14.331   4.855  0.00  0.00    -0.393 OA
HETATM   80  H   UNK N   1      18.012  14.914   5.586  0.00  0.00     0.210 HD
ENDBRANCH  77  79
ENDBRANCH  76  77
BRANCH  76  81
HETATM   81  C   UNK N   1      20.577  14.041   6.201  0.00  0.00     0.243 C 
HETATM   82  O   UNK N   1      19.975  14.862   6.873  0.00  0.00    -0.271 OA
HETATM   83  N   UNK N   1      21.110  12.951   6.798  0.00  0.00    -0.359 N 
HETATM   84  H   UNK N   1      21.037  12.869   7.776  0.00  0.00     0.162 HD
BRANCH  83  85
HETATM   85  C   UNK N   1      21.786  11.897   6.064  0.00  0.00     0.129 C 
BRANCH  85  86
HETATM   86  C   UNK N   1      22.705  11.072   6.972  0.00  0.00     0.084 C 
BRANCH  86  87
HETATM   87  C   UNK N   1      23.359   9.960   6.222  0.00  0.00     0.052 A 
HETATM   88  S   UNK N   1      23.996   8.566   6.827  0.00  0.00    -0.086 SA
HETATM   89  C   UNK N   1      24.453   7.868   5.380  0.00  0.00     0.083 A 
HETATM   90  C   UNK N   1      24.061   8.807   4.404  0.00  0.00     0.073 A 
HETATM   91  N   UNK N   1      23.467   9.941   4.882  0.00  0.00    -0.351 N 
ATOM     92  HN  UNK N   1      23.139  10.698   4.283  1.00  0.00     0.166 HD
BRANCH  90  93
HETATM   93  C   UNK N   1      24.141   8.631   2.961  0.00  0.00     0.102 A 
HETATM   94  S   UNK N   1      22.938   8.551   1.838  0.00  0.00    -0.080 SA
HETATM   95  C   UNK N   1      23.897   8.542   0.472  0.00  0.00     0.087 A 
HETATM   96  C   UNK N   1      25.217   8.605   0.965  0.00  0.00     0.108 A 
HETATM   97  N   UNK N   1      25.333   8.644   2.330  0.00  0.00    -0.344 N 
ATOM     98  HN  UNK N   1      26.229   8.679   2.819  1.00  0.00     0.167 HD
BRANCH  96  99
HETATM   99  C   UNK N   1      26.420   8.748   0.134  0.00  0.00     0.268 C 
HETATM  100  O   UNK N   1      26.436   8.225  -0.970  0.00  0.00    -0.266 OA
HETATM  101  N   UNK N   1      27.527   9.363   0.606  0.00  0.00    -0.356 N 
HETATM  102  H   UNK N   1      27.509   9.786   1.495  0.00  0.00     0.162 HD
BRANCH 101 103
HETATM  103  C   UNK N   1      28.736   9.405  -0.184  0.00  0.00     0.123 C 
BRANCH 103 104
HETATM  104  C   UNK N   1      29.083  10.826  -0.564  0.00  0.00     0.029 C 
BRANCH 104 105
HETATM  105  C   UNK N   1      30.107  10.859  -1.678  0.00  0.00     0.064 C 
BRANCH 105 106
HETATM  106  S   UNK N   1      30.088   9.228  -2.478  0.00  0.00    -0.228 SA
HETATM  107  C   UNK N   1      29.092   8.994  -3.987  0.00  0.00     0.078 C 
HETATM  108  C   UNK N   1      31.405   8.036  -2.072  0.00  0.00     0.078 C 
ENDBRANCH 105 106
ENDBRANCH 104 105
ENDBRANCH 103 104
ENDBRANCH 101 103
ENDBRANCH  96  99
ENDBRANCH  90  93
ENDBRANCH  86  87
ENDBRANCH  85  86
ENDBRANCH  83  85
ENDBRANCH  76  81
ENDBRANCH  74  76
ENDBRANCH  70  72
ENDBRANCH  67  70
ENDBRANCH  65  67
ENDBRANCH  63  65
ENDBRANCH  25  61
ENDBRANCH  24  25
BRANCH  24 109
HETATM  109  C   UNK N   1      26.203  14.305   5.798  0.00  0.00     0.057 A 
HETATM  110  N   UNK N   1      25.594  15.493   5.668  0.00  0.00    -0.352 N 
HETATM  111  C   UNK N   1      24.532  15.427   6.493  0.00  0.00     0.180 A 
HETATM  112  H   UNK N   1      25.863  16.247   5.095  0.00  0.00     0.166 HD
HETATM  113  N   UNK N   1      24.470  14.241   7.139  0.00  0.00    -0.360 N 
HETATM  114  C   UNK N   1      25.527  13.532   6.710  0.00  0.00     0.116 A 
ATOM    115  HN  UNK N   1      23.765  13.945   7.814  1.00  0.00     0.166 HD
ENDBRANCH  24 109
ENDBRANCH  23  24
ENDBRANCH  15  23
ENDBRANCH   9  10
ENDBRANCH   3   9
BRANCH   5 116
HETATM  116  O   UNK N   1      24.502  19.871   2.774  0.00  0.00    -0.293 OA
BRANCH 116 117
HETATM  117  C   UNK N   1      23.227  20.230   3.082  0.00  0.00     0.358 C 
HETATM  118  O   UNK N   1      22.804  21.351   2.846  0.00  0.00    -0.239 OA
HETATM  119  N   UNK N   1      22.406  19.319   3.638  0.00  0.00    -0.346 N 
HETATM  120  H   UNK N   1      21.437  19.465   3.740  0.00  0.00     0.161 HD
HETATM  121  H   UNK N   1      22.790  18.470   3.956  0.00  0.00     0.161 HD
ENDBRANCH 116 117
ENDBRANCH   5 116
BRANCH   6 122
HETATM  122  O   UNK N   1      24.973  19.024   5.675  0.00  0.00    -0.390 OA
HETATM  123  H   UNK N   1      24.418  18.440   6.215  0.00  0.00     0.210 HD
ENDBRANCH   6 122
BRANCH   7 124
HETATM  124  C   UNK N   1      27.134  20.307   7.102  0.00  0.00     0.198 C 
BRANCH 124 125
HETATM  125  O   UNK N   1      26.080  20.837   7.847  0.00  0.00    -0.398 OA
HETATM  126  H   UNK N   1      25.426  21.538   7.993  0.00  0.00     0.209 HD
ENDBRANCH 124 125
ENDBRANCH   7 124
TORSDOF 45
ENDMDL
MODEL 9
REMARK VINA RESULT:      -5.8      5.083     12.137
REMARK WARNING: 32 MAX_TORS EXCEEDED!!!
REMARK  45 active torsions:
REMARK  status: ('A' for Active; 'I' for Inactive)
REMARK    1  A    between atoms: S_3  and  C_99 
REMARK    2  A    between atoms: O_4  and  C_47 
REMARK    3  A    between atoms: O_4  and  C_51 
REMARK    4  A    between atoms: O_7  and  C_50 
REMARK    5  A    between atoms: C_58  and  O_7 
REMARK    6  A    between atoms: O_8  and  C_48 
REMARK    7  A    between atoms: O_9  and  C_49 
REMARK    8  A    between atoms: O_10  and  C_54 
REMARK    9  A    between atoms: O_10  and  C_63 
REMARK   10  A    between atoms: O_12  and  C_55 
REMARK   11  A    between atoms: O_13  and  C_57 
REMARK   12  A    between atoms: O_14  and  C_59 
REMARK   13  A    between atoms: C_66  and  O_17 
REMARK   14  A    between atoms: C_78  and  O_20 
REMARK   15  A    between atoms: C_60  and  N_25 
REMARK       I    between atoms: N_25  and  C_67 
REMARK       I    between atoms: N_27  and  C_62 
REMARK   16  A    between atoms: C_65  and  N_27 
REMARK       I    between atoms: N_30  and  C_63 
REMARK       I    between atoms: N_31  and  C_73 
REMARK   17  A    between atoms: C_75  and  N_31 
REMARK   18  A    between atoms: C_80  and  N_36 
REMARK   19  A    between atoms: N_36  and  C_84 
REMARK   20  A    between atoms: N_37  and  C_77 
REMARK       I    between atoms: N_38  and  C_81 
REMARK   21  A    between atoms: N_38  and  C_85 
REMARK       I    between atoms: N_39  and  C_86 
REMARK   22  A    between atoms: C_87  and  N_40 
REMARK       I    between atoms: N_41  and  C_89 
REMARK       I    between atoms: N_46  and  C_96 
REMARK   23  A    between atoms: N_46  and  C_97 
REMARK   24  A    between atoms: C_52  and  C_57 
REMARK   25  A    between atoms: C_56  and  C_59 
REMARK   26  A    between atoms: C_58  and  C_60 
REMARK   27  A    between atoms: C_58  and  C_61 
REMARK   28  A    between atoms: C_60  and  C_62 
REMARK   29  A    between atoms: C_65  and  C_66 
REMARK   30  A    between atoms: C_66  and  C_69 
REMARK   31  A    between atoms: C_67  and  C_71 
REMARK   32  A    between atoms: C_69  and  C_73 
REMARK   33  A    between atoms: C_75  and  C_78 
REMARK   34  A    between atoms: C_75  and  C_81 
REMARK   35  A    between atoms: C_76  and  C_80 
REMARK   36  A    between atoms: C_80  and  C_82 
REMARK   37  A    between atoms: C_82  and  C_86 
REMARK   38  A    between atoms: C_84  and  C_87 
REMARK   39  A    between atoms: C_85  and  C_88 
REMARK   40  A    between atoms: C_87  and  C_89 
REMARK   41  A    between atoms: C_88  and  C_90 
REMARK   42  A    between atoms: C_91  and  C_93 
REMARK   43  A    between atoms: C_94  and  C_96 
REMARK   44  A    between atoms: C_97  and  C_98 
REMARK   45  A    between atoms: C_98  and  C_99 
ROOT
HETATM    1  O   UNK N   1      21.813  12.888   6.912  0.00  0.00    -0.348 OA
HETATM    2  O   UNK N   1      24.894  11.906   5.371  0.00  0.00    -0.388 OA
HETATM    3  C   UNK N   1      22.893  13.143   6.032  0.00  0.00     0.292 C 
HETATM    4  C   UNK N   1      23.497  11.856   5.420  0.00  0.00     0.205 C 
HETATM    5  C   UNK N   1      22.989  10.615   6.151  0.00  0.00     0.198 C 
HETATM    6  C   UNK N   1      23.103  10.839   7.657  0.00  0.00     0.181 C 
HETATM    7  C   UNK N   1      22.196  12.045   7.993  0.00  0.00     0.179 C 
HETATM    8  H   UNK N   1      25.860  11.877   5.301  0.00  0.00     0.210 HD
ENDROOT
BRANCH   3   9
HETATM    9  O   UNK N   1      23.821  14.038   6.590  0.00  0.00    -0.346 OA
BRANCH   9  10
HETATM   10  C   UNK N   1      24.076  14.986   5.583  0.00  0.00     0.211 C 
HETATM   11  C   UNK N   1      22.788  15.634   5.077  0.00  0.00     0.183 C 
HETATM   12  C   UNK N   1      22.671  17.079   5.559  0.00  0.00     0.180 C 
HETATM   13  C   UNK N   1      23.907  17.883   5.129  0.00  0.00     0.179 C 
HETATM   14  O   UNK N   1      25.149  17.221   5.290  0.00  0.00    -0.348 OA
HETATM   15  C   UNK N   1      25.115  16.028   6.063  0.00  0.00     0.293 C 
BRANCH  11  16
HETATM   16  O   UNK N   1      22.771  15.578   3.683  0.00  0.00    -0.390 OA
HETATM   17  H   UNK N   1      22.618  15.978   2.813  0.00  0.00     0.210 HD
ENDBRANCH  11  16
BRANCH  12  18
HETATM   18  O   UNK N   1      22.570  17.104   6.951  0.00  0.00    -0.390 OA
HETATM   19  H   UNK N   1      21.992  17.066   7.729  0.00  0.00     0.210 HD
ENDBRANCH  12  18
BRANCH  13  20
HETATM   20  C   UNK N   1      23.774  18.305   3.670  0.00  0.00     0.198 C 
BRANCH  20  21
HETATM   21  O   UNK N   1      22.448  18.629   3.377  0.00  0.00    -0.398 OA
HETATM   22  H   UNK N   1      21.703  18.185   3.811  0.00  0.00     0.209 HD
ENDBRANCH  20  21
ENDBRANCH  13  20
BRANCH  15  23
HETATM   23  O   UNK N   1      26.405  15.460   6.098  0.00  0.00    -0.345 OA
BRANCH  23  24
HETATM   24  C   UNK N   1      27.302  16.486   5.748  0.00  0.00     0.207 C 
BRANCH  24  25
HETATM   25  C   UNK N   1      28.396  16.018   4.808  0.00  0.00     0.212 C 
BRANCH  25  26
HETATM   26  N   UNK N   1      27.914  14.901   4.059  0.00  0.00    -0.340 N 
HETATM   27  C   UNK N   1      27.079  15.024   3.013  0.00  0.00     0.269 C 
HETATM   28  O   UNK N   1      26.821  16.121   2.546  0.00  0.00    -0.266 OA
HETATM   29  H   UNK N   1      28.209  13.999   4.321  0.00  0.00     0.163 HD
BRANCH  27  30
HETATM   30  C   UNK N   1      26.419  13.810   2.536  0.00  0.00     0.111 A 
HETATM   31  N   UNK N   1      25.101  13.911   2.227  0.00  0.00    -0.339 N 
HETATM   32  C   UNK N   1      24.413  12.881   1.690  0.00  0.00     0.106 A 
ATOM     33  HN  UNK N   1      24.617  14.790   2.407  1.00  0.00     0.167 HD
HETATM   34  N   UNK N   1      25.044  11.693   1.486  0.00  0.00    -0.330 N 
HETATM   35  C   UNK N   1      26.356  11.530   1.789  0.00  0.00     0.108 A 
ATOM     36  HN  UNK N   1      24.519  10.908   1.099  1.00  0.00     0.168 HD
HETATM   37  C   UNK N   1      27.093  12.598   2.310  0.00  0.00     0.014 A 
HETATM   38  C   UNK N   1      28.547  12.426   2.620  0.00  0.00     0.055 C 
BRANCH  32  39
HETATM   39  C   UNK N   1      22.998  13.111   1.217  0.00  0.00     0.153 C 
BRANCH  39  40
HETATM   40  N   UNK N   1      22.633  14.532   1.244  0.00  0.00    -0.408 N 
HETATM   41  H   UNK N   1      23.227  15.284   1.595  0.00  0.00     0.154 HD
BRANCH  40  42
HETATM   42  C   UNK N   1      21.293  14.710   0.693  0.00  0.00     0.148 C 
BRANCH  42  43
HETATM   43  C   UNK N   1      20.499  15.646   1.571  0.00  0.00     0.184 C 
BRANCH  43  44
HETATM   44  N   UNK N   1      19.286  14.971   1.996  0.00  0.00    -0.417 N 
HETATM   45  H   UNK N   1      19.089  14.044   2.374  0.00  0.00     0.150 HD
HETATM   46  H   UNK N   1      18.451  15.547   1.894  0.00  0.00     0.150 HD
ENDBRANCH  43  44
BRANCH  43  47
HETATM   47  C   UNK N   1      20.155  16.916   0.847  0.00  0.00     0.239 C 
HETATM   48  O   UNK N   1      20.000  16.927  -0.366  0.00  0.00    -0.271 OA
HETATM   49  N   UNK N   1      20.023  18.061   1.544  0.00  0.00    -0.368 N 
HETATM   50  H   UNK N   1      19.966  18.040   2.527  0.00  0.00     0.159 HD
HETATM   51  H   UNK N   1      19.983  18.922   1.068  0.00  0.00     0.159 HD
ENDBRANCH  43  47
ENDBRANCH  42  43
ENDBRANCH  40  42
ENDBRANCH  39  40
BRANCH  39  52
HETATM   52  C   UNK N   1      22.041  12.274   2.088  0.00  0.00     0.135 C 
BRANCH  52  53
HETATM   53  C   UNK N   1      21.495  11.027   1.447  0.00  0.00     0.217 C 
HETATM   54  O   UNK N   1      22.197  10.041   1.289  0.00  0.00    -0.274 OA
HETATM   55  N   UNK N   1      20.212  11.002   1.039  0.00  0.00    -0.370 N 
HETATM   56  H   UNK N   1      19.791  11.042   0.150  0.00  0.00     0.159 HD
HETATM   57  H   UNK N   1      19.565  10.930   1.778  0.00  0.00     0.159 HD
ENDBRANCH  52  53
ENDBRANCH  39  52
ENDBRANCH  32  39
BRANCH  35  58
HETATM   58  N   UNK N   1      26.980  10.296   1.526  0.00  0.00    -0.385 N 
HETATM   59  H   UNK N   1      26.872   9.504   2.100  0.00  0.00     0.157 HD
HETATM   60  H   UNK N   1      27.554  10.222   0.730  0.00  0.00     0.157 HD
ENDBRANCH  35  58
ENDBRANCH  27  30
ENDBRANCH  25  26
BRANCH  25  61
HETATM   61  C   UNK N   1      29.643  15.624   5.518  0.00  0.00     0.243 C 
HETATM   62  O   UNK N   1      29.780  14.486   5.943  0.00  0.00    -0.271 OA
HETATM   63  N   UNK N   1      30.664  16.512   5.517  0.00  0.00    -0.352 N 
HETATM   64  H   UNK N   1      30.420  17.452   5.355  0.00  0.00     0.163 HD
BRANCH  63  65
HETATM   65  C   UNK N   1      32.082  16.248   5.728  0.00  0.00     0.110 C 
HETATM   66  C   UNK N   1      32.825  15.670   4.529  0.00  0.00     0.035 C 
BRANCH  65  67
HETATM   67  C   UNK N   1      32.713  17.577   6.135  0.00  0.00     0.153 C 
BRANCH  67  68
HETATM   68  O   UNK N   1      34.007  17.626   5.610  0.00  0.00    -0.393 OA
HETATM   69  H   UNK N   1      34.641  17.353   4.929  0.00  0.00     0.210 HD
ENDBRANCH  67  68
BRANCH  67  70
HETATM   70  C   UNK N   1      32.770  17.664   7.675  0.00  0.00     0.104 C 
HETATM   71  C   UNK N   1      31.494  17.976   8.453  0.00  0.00     0.022 C 
BRANCH  70  72
HETATM   72  C   UNK N   1      34.084  17.972   8.313  0.00  0.00     0.224 C 
HETATM   73  O   UNK N   1      34.552  19.095   8.215  0.00  0.00    -0.273 OA
HETATM   74  N   UNK N   1      34.746  17.044   9.021  0.00  0.00    -0.345 N 
HETATM   75  H   UNK N   1      35.564  17.312   9.499  0.00  0.00     0.163 HD
BRANCH  74  76
HETATM   76  C   UNK N   1      34.315  15.672   9.113  0.00  0.00     0.205 C 
BRANCH  76  77
HETATM   77  C   UNK N   1      34.762  15.077  10.446  0.00  0.00     0.146 C 
HETATM   78  C   UNK N   1      35.692  16.076  11.109  0.00  0.00     0.042 C 
BRANCH  77  79
HETATM   79  O   UNK N   1      33.682  14.842  11.298  0.00  0.00    -0.393 OA
HETATM   80  H   UNK N   1      33.117  15.463  11.783  0.00  0.00     0.210 HD
ENDBRANCH  77  79
ENDBRANCH  76  77
BRANCH  76  81
HETATM   81  C   UNK N   1      34.805  14.953   7.895  0.00  0.00     0.243 C 
HETATM   82  O   UNK N   1      35.749  15.412   7.275  0.00  0.00    -0.271 OA
HETATM   83  N   UNK N   1      34.236  13.796   7.487  0.00  0.00    -0.359 N 
HETATM   84  H   UNK N   1      34.573  13.372   6.665  0.00  0.00     0.162 HD
BRANCH  83  85
HETATM   85  C   UNK N   1      33.151  13.151   8.203  0.00  0.00     0.129 C 
BRANCH  85  86
HETATM   86  C   UNK N   1      33.286  11.624   8.183  0.00  0.00     0.084 C 
BRANCH  86  87
HETATM   87  C   UNK N   1      33.530  11.080   9.551  0.00  0.00     0.052 A 
HETATM   88  S   UNK N   1      33.151   9.584  10.129  0.00  0.00    -0.086 SA
HETATM   89  C   UNK N   1      33.791   9.755  11.662  0.00  0.00     0.083 A 
HETATM   90  C   UNK N   1      34.322  11.061  11.672  0.00  0.00     0.073 A 
HETATM   91  N   UNK N   1      34.169  11.767  10.513  0.00  0.00    -0.351 N 
ATOM     92  HN  UNK N   1      34.507  12.723  10.388  1.00  0.00     0.166 HD
BRANCH  90  93
HETATM   93  C   UNK N   1      35.089  11.669  12.750  0.00  0.00     0.102 A 
HETATM   94  S   UNK N   1      36.568  12.395  12.715  0.00  0.00    -0.080 SA
HETATM   95  C   UNK N   1      36.586  12.958  14.287  0.00  0.00     0.087 A 
HETATM   96  C   UNK N   1      35.354  12.535  14.829  0.00  0.00     0.108 A 
HETATM   97  N   UNK N   1      34.551  11.822  13.977  0.00  0.00    -0.344 N 
ATOM     98  HN  UNK N   1      33.640  11.447  14.243  1.00  0.00     0.167 HD
BRANCH  96  99
HETATM   99  C   UNK N   1      34.850  12.901  16.159  0.00  0.00     0.268 C 
HETATM  100  O   UNK N   1      33.767  13.460  16.245  0.00  0.00    -0.266 OA
HETATM  101  N   UNK N   1      35.602  12.714  17.267  0.00  0.00    -0.356 N 
HETATM  102  H   UNK N   1      36.474  12.261  17.195  0.00  0.00     0.162 HD
BRANCH 101 103
HETATM  103  C   UNK N   1      35.137  13.173  18.556  0.00  0.00     0.123 C 
BRANCH 103 104
HETATM  104  C   UNK N   1      35.331  12.108  19.610  0.00  0.00     0.029 C 
BRANCH 104 105
HETATM  105  C   UNK N   1      35.455  10.736  18.983  0.00  0.00     0.064 C 
BRANCH 105 106
HETATM  106  S   UNK N   1      34.464   9.592  19.989  0.00  0.00    -0.228 SA
HETATM  107  C   UNK N   1      33.822   8.067  19.224  0.00  0.00     0.078 C 
HETATM  108  C   UNK N   1      34.548   9.725  21.804  0.00  0.00     0.078 C 
ENDBRANCH 105 106
ENDBRANCH 104 105
ENDBRANCH 103 104
ENDBRANCH 101 103
ENDBRANCH  96  99
ENDBRANCH  90  93
ENDBRANCH  86  87
ENDBRANCH  85  86
ENDBRANCH  83  85
ENDBRANCH  76  81
ENDBRANCH  74  76
ENDBRANCH  70  72
ENDBRANCH  67  70
ENDBRANCH  65  67
ENDBRANCH  63  65
ENDBRANCH  25  61
ENDBRANCH  24  25
BRANCH  24 109
HETATM  109  C   UNK N   1      27.699  17.377   6.899  0.00  0.00     0.057 A 
HETATM  110  N   UNK N   1      27.712  17.002   8.187  0.00  0.00    -0.352 N 
HETATM  111  C   UNK N   1      27.977  18.132   8.871  0.00  0.00     0.180 A 
HETATM  112  H   UNK N   1      27.563  16.100   8.553  0.00  0.00     0.166 HD
HETATM  113  N   UNK N   1      28.117  19.196   8.050  0.00  0.00    -0.360 N 
HETATM  114  C   UNK N   1      27.934  18.726   6.804  0.00  0.00     0.116 A 
ATOM    115  HN  UNK N   1      28.318  20.158   8.320  1.00  0.00     0.166 HD
ENDBRANCH  24 109
ENDBRANCH  23  24
ENDBRANCH  15  23
ENDBRANCH   9  10
ENDBRANCH   3   9
BRANCH   5 116
HETATM  116  O   UNK N   1      23.502   9.442   5.605  0.00  0.00    -0.293 OA
BRANCH 116 117
HETATM  117  C   UNK N   1      23.566   9.065   4.300  0.00  0.00     0.358 C 
HETATM  118  O   UNK N   1      24.523   9.353   3.598  0.00  0.00    -0.239 OA
HETATM  119  N   UNK N   1      22.562   8.335   3.778  0.00  0.00    -0.346 N 
HETATM  120  H   UNK N   1      22.620   7.902   2.895  0.00  0.00     0.161 HD
HETATM  121  H   UNK N   1      21.735   8.230   4.300  0.00  0.00     0.161 HD
ENDBRANCH 116 117
ENDBRANCH   5 116
BRANCH   6 122
HETATM  122  O   UNK N   1      24.435  11.098   8.001  0.00  0.00    -0.390 OA
HETATM  123  H   UNK N   1      25.242  11.565   8.269  0.00  0.00     0.210 HD
ENDBRANCH   6 122
BRANCH   7 124
HETATM  124  C   UNK N   1      22.476  12.781   9.300  0.00  0.00     0.198 C 
BRANCH 124 125
HETATM  125  O   UNK N   1      23.740  13.371   9.284  0.00  0.00    -0.398 OA
HETATM  126  H   UNK N   1      24.652  13.390   8.955  0.00  0.00     0.209 HD
ENDBRANCH 124 125
ENDBRANCH   7 124
TORSDOF 45
ENDMDL
