MODEL 1
REMARK VINA RESULT:      -7.3      0.000      0.000
REMARK  23 active torsions:
REMARK  status: ('A' for Active; 'I' for Inactive)
REMARK    1  A    between atoms: C_17  and  C_1 
REMARK    2  A    between atoms: C_2  and  C_8 
REMARK       I    between atoms: N_7  and  C_2 
REMARK    3  A    between atoms: C_3  and  C_12 
REMARK       I    between atoms: N_10  and  C_3 
REMARK    4  A    between atoms: C_4  and  C_20 
REMARK       I    between atoms: N_6  and  C_4 
REMARK    5  A    between atoms: C_8  and  N_6 
REMARK    6  A    between atoms: C_14  and  N_7 
REMARK    7  A    between atoms: C_8  and  C_11 
REMARK    8  A    between atoms: C_20  and  N_10 
REMARK    9  A    between atoms: C_21  and  C_11 
REMARK   10  A    between atoms: C_12  and  C_17 
REMARK   11  A    between atoms: N_18  and  C_12 
REMARK       I    between atoms: C_13  and  N_33 
REMARK   12  A    between atoms: O_23  and  C_13 
REMARK   13  A    between atoms: C_15  and  C_14 
REMARK   14  A    between atoms: C_14  and  C_28 
REMARK       I    between atoms: N_35  and  C_15 
REMARK       I    between atoms: C_19  and  N_18 
REMARK   15  A    between atoms: C_27  and  C_19 
REMARK   16  A    between atoms: C_20  and  C_37 
REMARK   17  A    between atoms: O_38  and  C_21 
REMARK   18  A    between atoms: C_34  and  O_23 
REMARK   19  A    between atoms: C_36  and  C_27 
REMARK   20  A    between atoms: C_39  and  C_28 
REMARK   21  A    between atoms: N_33  and  C_36 
REMARK   22  A    between atoms: C_42  and  C_37 
REMARK   23  A    between atoms: S_40  and  C_42 
ROOT
HETATM    1  C   UNK N   1      21.791  17.191   5.237  0.00  0.00     0.177 C 
ENDROOT
BRANCH   1   2
HETATM    2  C   UNK N   1      21.503  17.430   6.667  0.00  0.00     0.241 C 
HETATM    3  N   UNK N   1      21.295  16.311   7.400  0.00  0.00    -0.346 N 
HETATM    4  H   UNK N   1      21.773  15.495   7.120  0.00  0.00     0.163 HD
HETATM    5  O   UNK N   1      21.167  18.535   7.072  0.00  0.00    -0.271 OA
BRANCH   3   6
HETATM    6  C   UNK N   1      20.438  16.207   8.550  0.00  0.00     0.186 C 
BRANCH   6   7
HETATM    7  C   UNK N   1      20.521  14.839   9.173  0.00  0.00     0.241 C 
HETATM    8  N   UNK N   1      21.708  14.186   9.186  0.00  0.00    -0.346 N 
HETATM    9  H   UNK N   1      22.525  14.723   9.063  0.00  0.00     0.163 HD
HETATM   10  O   UNK N   1      19.501  14.293   9.563  0.00  0.00    -0.271 OA
BRANCH   8  11
HETATM   11  C   UNK N   1      21.866  12.762   9.369  0.00  0.00     0.180 C 
BRANCH  11  12
HETATM   12  C   UNK N   1      21.913  12.416  10.827  0.00  0.00     0.238 C 
HETATM   13  O   UNK N   1      22.995  12.348  11.383  0.00  0.00    -0.271 OA
HETATM   14  N   UNK N   1      20.803  12.026  11.483  0.00  0.00    -0.368 N 
HETATM   15  H   UNK N   1      19.878  11.708  11.591  0.00  0.00     0.159 HD
HETATM   16  H   UNK N   1      21.091  12.111  12.420  0.00  0.00     0.159 HD
ENDBRANCH  11  12
BRANCH  11  17
HETATM   17  C   UNK N   1      22.721  11.967   8.356  0.00  0.00     0.073 C 
BRANCH  17  18
HETATM   18  C   UNK N   1      22.124  11.508   7.056  0.00  0.00    -0.056 A 
HETATM   19  C   UNK N   1      22.729  10.500   6.292  0.00  0.00     0.007 A 
HETATM   20  C   UNK N   1      22.116  10.030   5.126  0.00  0.00     0.001 A 
HETATM   21  C   UNK N   1      20.876  10.543   4.735  0.00  0.00     0.000 A 
HETATM   22  C   UNK N   1      20.254  11.528   5.506  0.00  0.00     0.001 A 
HETATM   23  C   UNK N   1      20.876  12.008   6.664  0.00  0.00     0.007 A 
ENDBRANCH  17  18
ENDBRANCH  11  17
ENDBRANCH   8  11
ENDBRANCH   6   7
BRANCH   6  24
HETATM   24  C   UNK N   1      19.019  16.697   8.350  0.00  0.00     0.144 C 
BRANCH  24  25
HETATM   25  C   UNK N   1      18.750  17.816   9.303  0.00  0.00     0.141 C 
HETATM   26  O   UNK N   1      17.725  17.819   9.965  0.00  0.00    -0.650 OA
BRANCH  25  27
HETATM   27  O   UNK N   1      19.634  18.822   9.433  0.00  0.00    -0.776 OA
HETATM   28  H   UNK N   1      19.567  19.527  10.047  0.00  0.00     0.167 HD
ENDBRANCH  25  27
ENDBRANCH  24  25
ENDBRANCH   6  24
ENDBRANCH   3   6
ENDBRANCH   1   2
BRANCH   1  29
HETATM   29  N   UNK N   1      23.082  17.345   4.601  0.00  0.00    -0.346 N 
HETATM   30  C   UNK N   1      24.007  16.430   4.214  0.00  0.00     0.241 C 
HETATM   31  O   UNK N   1      24.618  16.666   3.189  0.00  0.00    -0.271 OA
HETATM   32  H   UNK N   1      23.334  18.279   4.416  0.00  0.00     0.163 HD
BRANCH  30  33
HETATM   33  C   UNK N   1      24.499  15.265   5.039  0.00  0.00     0.180 C 
BRANCH  33  34
HETATM   34  C   UNK N   1      23.606  14.043   5.205  0.00  0.00     0.075 C 
BRANCH  34  35
HETATM   35  C   UNK N   1      23.440  13.316   3.900  0.00  0.00    -0.028 A 
HETATM   36  C   UNK N   1      24.322  12.404   3.322  0.00  0.00     0.096 A 
HETATM   37  N   UNK N   1      23.808  11.957   2.145  0.00  0.00    -0.365 N 
HETATM   38  C   UNK N   1      22.630  12.587   1.991  0.00  0.00     0.042 A 
HETATM   39  H   UNK N   1      24.217  11.305   1.531  0.00  0.00     0.165 HD
HETATM   40  C   UNK N   1      22.376  13.416   3.043  0.00  0.00    -0.002 A 
HETATM   41  C   UNK N   1      21.742  12.463   0.924  0.00  0.00     0.030 A 
HETATM   42  C   UNK N   1      21.218  14.172   3.116  0.00  0.00     0.014 A 
HETATM   43  C   UNK N   1      20.301  14.084   2.055  0.00  0.00     0.001 A 
HETATM   44  C   UNK N   1      20.563  13.231   0.960  0.00  0.00     0.002 A 
ENDBRANCH  34  35
ENDBRANCH  33  34
BRANCH  33  45
HETATM   45  N   UNK N   1      25.070  15.749   6.275  0.00  0.00    -0.347 N 
HETATM   46  C   UNK N   1      26.397  15.638   6.570  0.00  0.00     0.219 C 
HETATM   47  O   UNK N   1      26.816  16.135   7.602  0.00  0.00    -0.274 OA
HETATM   48  H   UNK N   1      24.477  16.177   6.933  0.00  0.00     0.163 HD
BRANCH  46  49
HETATM   49  C   UNK N   1      27.377  14.887   5.694  0.00  0.00     0.122 C 
BRANCH  49  50
HETATM   50  C   UNK N   1      28.644  15.637   5.277  0.00  0.00     0.134 C 
BRANCH  50  51
HETATM   51  N   UNK N   1      28.368  16.935   4.707  0.00  0.00    -0.336 N 
HETATM   52  C   UNK N   1      28.651  18.108   5.326  0.00  0.00     0.361 C 
HETATM   53  O   UNK N   1      29.160  18.115   6.430  0.00  0.00    -0.238 OA
HETATM   54  H   UNK N   1      27.950  16.971   3.816  0.00  0.00     0.164 HD
BRANCH  52  55
HETATM   55  O   UNK N   1      28.380  19.292   4.701  0.00  0.00    -0.294 OA
BRANCH  55  56
HETATM   56  C   UNK N   1      27.196  20.009   4.791  0.00  0.00     0.061 C 
HETATM   57  C   UNK N   1      26.093  19.162   5.409  0.00  0.00     0.046 C 
HETATM   58  C   UNK N   1      26.754  20.523   3.428  0.00  0.00     0.046 C 
HETATM   59  C   UNK N   1      27.421  21.207   5.687  0.00  0.00     0.046 C 
ENDBRANCH  55  56
ENDBRANCH  52  55
ENDBRANCH  50  51
ENDBRANCH  49  50
ENDBRANCH  46  49
ENDBRANCH  33  45
ENDBRANCH  30  33
ENDBRANCH   1  29
BRANCH   1  60
HETATM   60  C   UNK N   1      20.691  17.817   4.405  0.00  0.00     0.045 C 
BRANCH  60  61
HETATM   61  C   UNK N   1      21.262  18.890   3.505  0.00  0.00     0.076 C 
BRANCH  61  62
HETATM   62  S   UNK N   1      20.388  18.861   1.921  0.00  0.00    -0.173 SA
HETATM   63  C   UNK N   1      21.022  20.505   1.488  0.00  0.00     0.089 C 
ENDBRANCH  61  62
ENDBRANCH  60  61
ENDBRANCH   1  60
TORSDOF 23
ENDMDL
MODEL 2
REMARK VINA RESULT:      -7.2      2.121      2.964
REMARK  23 active torsions:
REMARK  status: ('A' for Active; 'I' for Inactive)
REMARK    1  A    between atoms: C_17  and  C_1 
REMARK    2  A    between atoms: C_2  and  C_8 
REMARK       I    between atoms: N_7  and  C_2 
REMARK    3  A    between atoms: C_3  and  C_12 
REMARK       I    between atoms: N_10  and  C_3 
REMARK    4  A    between atoms: C_4  and  C_20 
REMARK       I    between atoms: N_6  and  C_4 
REMARK    5  A    between atoms: C_8  and  N_6 
REMARK    6  A    between atoms: C_14  and  N_7 
REMARK    7  A    between atoms: C_8  and  C_11 
REMARK    8  A    between atoms: C_20  and  N_10 
REMARK    9  A    between atoms: C_21  and  C_11 
REMARK   10  A    between atoms: C_12  and  C_17 
REMARK   11  A    between atoms: N_18  and  C_12 
REMARK       I    between atoms: C_13  and  N_33 
REMARK   12  A    between atoms: O_23  and  C_13 
REMARK   13  A    between atoms: C_15  and  C_14 
REMARK   14  A    between atoms: C_14  and  C_28 
REMARK       I    between atoms: N_35  and  C_15 
REMARK       I    between atoms: C_19  and  N_18 
REMARK   15  A    between atoms: C_27  and  C_19 
REMARK   16  A    between atoms: C_20  and  C_37 
REMARK   17  A    between atoms: O_38  and  C_21 
REMARK   18  A    between atoms: C_34  and  O_23 
REMARK   19  A    between atoms: C_36  and  C_27 
REMARK   20  A    between atoms: C_39  and  C_28 
REMARK   21  A    between atoms: N_33  and  C_36 
REMARK   22  A    between atoms: C_42  and  C_37 
REMARK   23  A    between atoms: S_40  and  C_42 
ROOT
HETATM    1  C   UNK N   1      22.009  18.136   5.127  0.00  0.00     0.177 C 
ENDROOT
BRANCH   1   2
HETATM    2  C   UNK N   1      21.520  17.964   6.511  0.00  0.00     0.241 C 
HETATM    3  N   UNK N   1      21.429  16.679   6.926  0.00  0.00    -0.346 N 
HETATM    4  H   UNK N   1      22.073  16.037   6.545  0.00  0.00     0.163 HD
HETATM    5  O   UNK N   1      20.948  18.872   7.101  0.00  0.00    -0.271 OA
BRANCH   3   6
HETATM    6  C   UNK N   1      20.476  16.167   7.875  0.00  0.00     0.186 C 
BRANCH   6   7
HETATM    7  C   UNK N   1      20.799  14.750   8.265  0.00  0.00     0.241 C 
HETATM    8  N   UNK N   1      21.778  14.517   9.172  0.00  0.00    -0.346 N 
HETATM    9  H   UNK N   1      22.043  15.263   9.758  0.00  0.00     0.163 HD
HETATM   10  O   UNK N   1      20.250  13.826   7.686  0.00  0.00    -0.271 OA
BRANCH   8  11
HETATM   11  C   UNK N   1      22.463  13.257   9.345  0.00  0.00     0.180 C 
BRANCH  11  12
HETATM   12  C   UNK N   1      22.083  12.622  10.648  0.00  0.00     0.238 C 
HETATM   13  O   UNK N   1      22.954  12.115  11.334  0.00  0.00    -0.271 OA
HETATM   14  N   UNK N   1      20.791  12.463  10.991  0.00  0.00    -0.368 N 
HETATM   15  H   UNK N   1      19.816  12.426  10.862  0.00  0.00     0.159 HD
HETATM   16  H   UNK N   1      20.868  12.261  11.952  0.00  0.00     0.159 HD
ENDBRANCH  11  12
BRANCH  11  17
HETATM   17  C   UNK N   1      23.900  13.104   8.798  0.00  0.00     0.073 C 
BRANCH  17  18
HETATM   18  C   UNK N   1      24.131  12.836   7.337  0.00  0.00    -0.056 A 
HETATM   19  C   UNK N   1      25.392  13.016   6.754  0.00  0.00     0.007 A 
HETATM   20  C   UNK N   1      25.608  12.684   5.413  0.00  0.00     0.001 A 
HETATM   21  C   UNK N   1      24.569  12.138   4.655  0.00  0.00     0.000 A 
HETATM   22  C   UNK N   1      23.316  11.929   5.237  0.00  0.00     0.001 A 
HETATM   23  C   UNK N   1      23.098  12.276   6.575  0.00  0.00     0.007 A 
ENDBRANCH  17  18
ENDBRANCH  11  17
ENDBRANCH   8  11
ENDBRANCH   6   7
BRANCH   6  24
HETATM   24  C   UNK N   1      19.021  16.379   7.512  0.00  0.00     0.144 C 
BRANCH  24  25
HETATM   25  C   UNK N   1      18.318  17.016   8.667  0.00  0.00     0.141 C 
HETATM   26  O   UNK N   1      17.346  16.471   9.164  0.00  0.00    -0.650 OA
BRANCH  25  27
HETATM   27  O   UNK N   1      18.754  18.190   9.161  0.00  0.00    -0.776 OA
HETATM   28  H   UNK N   1      18.739  18.436  10.065  0.00  0.00     0.167 HD
ENDBRANCH  25  27
ENDBRANCH  24  25
ENDBRANCH   6  24
ENDBRANCH   3   6
ENDBRANCH   1   2
BRANCH   1  29
HETATM   29  N   UNK N   1      23.088  19.011   4.719  0.00  0.00    -0.346 N 
HETATM   30  C   UNK N   1      24.295  18.746   4.156  0.00  0.00     0.241 C 
HETATM   31  O   UNK N   1      24.706  19.544   3.336  0.00  0.00    -0.271 OA
HETATM   32  H   UNK N   1      22.916  19.967   4.877  0.00  0.00     0.163 HD
BRANCH  30  33
HETATM   33  C   UNK N   1      25.265  17.679   4.604  0.00  0.00     0.180 C 
BRANCH  33  34
HETATM   34  C   UNK N   1      24.784  16.240   4.722  0.00  0.00     0.075 C 
BRANCH  34  35
HETATM   35  C   UNK N   1      24.866  15.534   3.397  0.00  0.00    -0.028 A 
HETATM   36  C   UNK N   1      26.017  15.231   2.671  0.00  0.00     0.096 A 
HETATM   37  N   UNK N   1      25.675  14.577   1.529  0.00  0.00    -0.365 N 
HETATM   38  C   UNK N   1      24.334  14.482   1.542  0.00  0.00     0.042 A 
HETATM   39  H   UNK N   1      26.286  14.242   0.834  0.00  0.00     0.165 HD
HETATM   40  C   UNK N   1      23.814  15.050   2.667  0.00  0.00    -0.002 A 
HETATM   41  C   UNK N   1      23.521  13.903   0.569  0.00  0.00     0.030 A 
HETATM   42  C   UNK N   1      22.450  15.074   2.912  0.00  0.00     0.014 A 
HETATM   43  C   UNK N   1      21.595  14.509   1.950  0.00  0.00     0.001 A 
HETATM   44  C   UNK N   1      22.129  13.925   0.781  0.00  0.00     0.002 A 
ENDBRANCH  34  35
ENDBRANCH  33  34
BRANCH  33  45
HETATM   45  N   UNK N   1      26.010  18.147   5.750  0.00  0.00    -0.347 N 
HETATM   46  C   UNK N   1      27.304  18.567   5.670  0.00  0.00     0.219 C 
HETATM   47  O   UNK N   1      27.843  19.015   6.669  0.00  0.00    -0.274 OA
HETATM   48  H   UNK N   1      25.564  18.163   6.628  0.00  0.00     0.163 HD
BRANCH  46  49
HETATM   49  C   UNK N   1      28.128  18.466   4.404  0.00  0.00     0.122 C 
BRANCH  49  50
HETATM   50  C   UNK N   1      29.103  17.292   4.308  0.00  0.00     0.134 C 
BRANCH  50  51
HETATM   51  N   UNK N   1      30.324  17.511   5.049  0.00  0.00    -0.336 N 
HETATM   52  C   UNK N   1      30.832  16.630   5.945  0.00  0.00     0.361 C 
HETATM   53  O   UNK N   1      30.255  15.585   6.177  0.00  0.00    -0.238 OA
HETATM   54  H   UNK N   1      30.816  18.349   4.893  0.00  0.00     0.164 HD
BRANCH  52  55
HETATM   55  O   UNK N   1      32.008  16.906   6.583  0.00  0.00    -0.294 OA
BRANCH  55  56
HETATM   56  C   UNK N   1      32.148  17.264   7.916  0.00  0.00     0.061 C 
HETATM   57  C   UNK N   1      30.868  17.891   8.448  0.00  0.00     0.046 C 
HETATM   58  C   UNK N   1      33.316  18.218   8.115  0.00  0.00     0.046 C 
HETATM   59  C   UNK N   1      32.427  16.016   8.725  0.00  0.00     0.046 C 
ENDBRANCH  55  56
ENDBRANCH  52  55
ENDBRANCH  50  51
ENDBRANCH  49  50
ENDBRANCH  46  49
ENDBRANCH  33  45
ENDBRANCH  30  33
ENDBRANCH   1  29
BRANCH   1  60
HETATM   60  C   UNK N   1      20.819  18.262   4.199  0.00  0.00     0.045 C 
BRANCH  60  61
HETATM   61  C   UNK N   1      20.684  19.687   3.711  0.00  0.00     0.076 C 
BRANCH  61  62
HETATM   62  S   UNK N   1      20.736  19.701   1.903  0.00  0.00    -0.173 SA
HETATM   63  C   UNK N   1      20.164  17.981   1.826  0.00  0.00     0.089 C 
ENDBRANCH  61  62
ENDBRANCH  60  61
ENDBRANCH   1  60
TORSDOF 23
ENDMDL
MODEL 3
REMARK VINA RESULT:      -7.2      1.891      3.308
REMARK  23 active torsions:
REMARK  status: ('A' for Active; 'I' for Inactive)
REMARK    1  A    between atoms: C_17  and  C_1 
REMARK    2  A    between atoms: C_2  and  C_8 
REMARK       I    between atoms: N_7  and  C_2 
REMARK    3  A    between atoms: C_3  and  C_12 
REMARK       I    between atoms: N_10  and  C_3 
REMARK    4  A    between atoms: C_4  and  C_20 
REMARK       I    between atoms: N_6  and  C_4 
REMARK    5  A    between atoms: C_8  and  N_6 
REMARK    6  A    between atoms: C_14  and  N_7 
REMARK    7  A    between atoms: C_8  and  C_11 
REMARK    8  A    between atoms: C_20  and  N_10 
REMARK    9  A    between atoms: C_21  and  C_11 
REMARK   10  A    between atoms: C_12  and  C_17 
REMARK   11  A    between atoms: N_18  and  C_12 
REMARK       I    between atoms: C_13  and  N_33 
REMARK   12  A    between atoms: O_23  and  C_13 
REMARK   13  A    between atoms: C_15  and  C_14 
REMARK   14  A    between atoms: C_14  and  C_28 
REMARK       I    between atoms: N_35  and  C_15 
REMARK       I    between atoms: C_19  and  N_18 
REMARK   15  A    between atoms: C_27  and  C_19 
REMARK   16  A    between atoms: C_20  and  C_37 
REMARK   17  A    between atoms: O_38  and  C_21 
REMARK   18  A    between atoms: C_34  and  O_23 
REMARK   19  A    between atoms: C_36  and  C_27 
REMARK   20  A    between atoms: C_39  and  C_28 
REMARK   21  A    between atoms: N_33  and  C_36 
REMARK   22  A    between atoms: C_42  and  C_37 
REMARK   23  A    between atoms: S_40  and  C_42 
ROOT
HETATM    1  C   UNK N   1      21.867  17.948   5.054  0.00  0.00     0.177 C 
ENDROOT
BRANCH   1   2
HETATM    2  C   UNK N   1      21.452  17.814   6.467  0.00  0.00     0.241 C 
HETATM    3  N   UNK N   1      21.283  16.539   6.890  0.00  0.00    -0.346 N 
HETATM    4  H   UNK N   1      21.848  15.848   6.472  0.00  0.00     0.163 HD
HETATM    5  O   UNK N   1      20.994  18.763   7.088  0.00  0.00    -0.271 OA
BRANCH   3   6
HETATM    6  C   UNK N   1      20.352  16.104   7.898  0.00  0.00     0.186 C 
BRANCH   6   7
HETATM    7  C   UNK N   1      20.602  14.675   8.294  0.00  0.00     0.241 C 
HETATM    8  N   UNK N   1      21.277  14.411   9.439  0.00  0.00    -0.346 N 
HETATM    9  H   UNK N   1      21.325  15.126  10.115  0.00  0.00     0.163 HD
HETATM   10  O   UNK N   1      20.289  13.775   7.531  0.00  0.00    -0.271 OA
BRANCH   8  11
HETATM   11  C   UNK N   1      21.931  13.159   9.744  0.00  0.00     0.180 C 
BRANCH  11  12
HETATM   12  C   UNK N   1      21.239  12.461  10.876  0.00  0.00     0.238 C 
HETATM   13  O   UNK N   1      20.031  12.578  10.992  0.00  0.00    -0.271 OA
HETATM   14  N   UNK N   1      21.942  11.850  11.847  0.00  0.00    -0.368 N 
HETATM   15  H   UNK N   1      22.733  11.618  12.387  0.00  0.00     0.159 HD
HETATM   16  H   UNK N   1      21.246  11.304  12.279  0.00  0.00     0.159 HD
ENDBRANCH  11  12
BRANCH  11  17
HETATM   17  C   UNK N   1      23.465  13.059   9.595  0.00  0.00     0.073 C 
BRANCH  17  18
HETATM   18  C   UNK N   1      24.083  12.840   8.242  0.00  0.00    -0.056 A 
HETATM   19  C   UNK N   1      25.127  13.652   7.778  0.00  0.00     0.007 A 
HETATM   20  C   UNK N   1      25.743  13.382   6.552  0.00  0.00     0.001 A 
HETATM   21  C   UNK N   1      25.341  12.277   5.798  0.00  0.00     0.000 A 
HETATM   22  C   UNK N   1      24.319  11.447   6.267  0.00  0.00     0.001 A 
HETATM   23  C   UNK N   1      23.693  11.727   7.486  0.00  0.00     0.007 A 
ENDBRANCH  17  18
ENDBRANCH  11  17
ENDBRANCH   8  11
ENDBRANCH   6   7
BRANCH   6  24
HETATM   24  C   UNK N   1      18.896  16.409   7.612  0.00  0.00     0.144 C 
BRANCH  24  25
HETATM   25  C   UNK N   1      18.286  17.049   8.816  0.00  0.00     0.141 C 
HETATM   26  O   UNK N   1      17.350  16.509   9.384  0.00  0.00    -0.650 OA
BRANCH  25  27
HETATM   27  O   UNK N   1      18.764  18.219   9.277  0.00  0.00    -0.776 OA
HETATM   28  H   UNK N   1      19.476  18.314   9.879  0.00  0.00     0.167 HD
ENDBRANCH  25  27
ENDBRANCH  24  25
ENDBRANCH   6  24
ENDBRANCH   3   6
ENDBRANCH   1   2
BRANCH   1  29
HETATM   29  N   UNK N   1      22.659  19.030   4.509  0.00  0.00    -0.346 N 
HETATM   30  C   UNK N   1      23.930  19.061   4.032  0.00  0.00     0.241 C 
HETATM   31  O   UNK N   1      24.143  19.791   3.084  0.00  0.00    -0.271 OA
HETATM   32  H   UNK N   1      22.194  19.897   4.479  0.00  0.00     0.163 HD
BRANCH  30  33
HETATM   33  C   UNK N   1      25.139  18.444   4.694  0.00  0.00     0.180 C 
BRANCH  33  34
HETATM   34  C   UNK N   1      25.100  16.976   5.093  0.00  0.00     0.075 C 
BRANCH  34  35
HETATM   35  C   UNK N   1      25.002  16.091   3.882  0.00  0.00    -0.028 A 
HETATM   36  C   UNK N   1      25.817  16.113   2.751  0.00  0.00     0.096 A 
HETATM   37  N   UNK N   1      25.414  15.148   1.882  0.00  0.00    -0.365 N 
HETATM   38  C   UNK N   1      24.363  14.541   2.461  0.00  0.00     0.042 A 
HETATM   39  H   UNK N   1      25.812  14.938   1.007  0.00  0.00     0.165 HD
HETATM   40  C   UNK N   1      24.092  15.088   3.680  0.00  0.00    -0.002 A 
HETATM   41  C   UNK N   1      23.604  13.494   1.941  0.00  0.00     0.030 A 
HETATM   42  C   UNK N   1      23.053  14.628   4.474  0.00  0.00     0.014 A 
HETATM   43  C   UNK N   1      22.256  13.581   3.981  0.00  0.00     0.001 A 
HETATM   44  C   UNK N   1      22.531  13.015   2.717  0.00  0.00     0.002 A 
ENDBRANCH  34  35
ENDBRANCH  33  34
BRANCH  33  45
HETATM   45  N   UNK N   1      25.628  19.324   5.731  0.00  0.00    -0.347 N 
HETATM   46  C   UNK N   1      26.929  19.725   5.808  0.00  0.00     0.219 C 
HETATM   47  O   UNK N   1      27.251  20.525   6.671  0.00  0.00    -0.274 OA
HETATM   48  H   UNK N   1      24.996  19.647   6.412  0.00  0.00     0.163 HD
BRANCH  46  49
HETATM   49  C   UNK N   1      28.013  19.192   4.894  0.00  0.00     0.122 C 
BRANCH  49  50
HETATM   50  C   UNK N   1      28.907  18.086   5.458  0.00  0.00     0.134 C 
BRANCH  50  51
HETATM   51  N   UNK N   1      28.473  16.762   5.076  0.00  0.00    -0.336 N 
HETATM   52  C   UNK N   1      29.188  15.635   5.313  0.00  0.00     0.361 C 
HETATM   53  O   UNK N   1      30.267  15.696   5.871  0.00  0.00    -0.238 OA
HETATM   54  H   UNK N   1      27.606  16.673   4.617  0.00  0.00     0.164 HD
BRANCH  52  55
HETATM   55  O   UNK N   1      28.689  14.419   4.942  0.00  0.00    -0.294 OA
BRANCH  55  56
HETATM   56  C   UNK N   1      29.063  13.693   3.821  0.00  0.00     0.061 C 
HETATM   57  C   UNK N   1      30.134  12.669   4.167  0.00  0.00     0.046 C 
HETATM   58  C   UNK N   1      29.557  14.606   2.708  0.00  0.00     0.046 C 
HETATM   59  C   UNK N   1      27.853  12.945   3.304  0.00  0.00     0.046 C 
ENDBRANCH  55  56
ENDBRANCH  52  55
ENDBRANCH  50  51
ENDBRANCH  49  50
ENDBRANCH  46  49
ENDBRANCH  33  45
ENDBRANCH  30  33
ENDBRANCH   1  29
BRANCH   1  60
HETATM   60  C   UNK N   1      20.683  17.633   4.164  0.00  0.00     0.045 C 
BRANCH  60  61
HETATM   61  C   UNK N   1      21.156  17.224   2.788  0.00  0.00     0.076 C 
BRANCH  61  62
HETATM   62  S   UNK N   1      19.981  17.831   1.553  0.00  0.00    -0.173 SA
HETATM   63  C   UNK N   1      20.686  19.501   1.636  0.00  0.00     0.089 C 
ENDBRANCH  61  62
ENDBRANCH  60  61
ENDBRANCH   1  60
TORSDOF 23
ENDMDL
MODEL 4
REMARK VINA RESULT:      -7.1      1.831      2.553
REMARK  23 active torsions:
REMARK  status: ('A' for Active; 'I' for Inactive)
REMARK    1  A    between atoms: C_17  and  C_1 
REMARK    2  A    between atoms: C_2  and  C_8 
REMARK       I    between atoms: N_7  and  C_2 
REMARK    3  A    between atoms: C_3  and  C_12 
REMARK       I    between atoms: N_10  and  C_3 
REMARK    4  A    between atoms: C_4  and  C_20 
REMARK       I    between atoms: N_6  and  C_4 
REMARK    5  A    between atoms: C_8  and  N_6 
REMARK    6  A    between atoms: C_14  and  N_7 
REMARK    7  A    between atoms: C_8  and  C_11 
REMARK    8  A    between atoms: C_20  and  N_10 
REMARK    9  A    between atoms: C_21  and  C_11 
REMARK   10  A    between atoms: C_12  and  C_17 
REMARK   11  A    between atoms: N_18  and  C_12 
REMARK       I    between atoms: C_13  and  N_33 
REMARK   12  A    between atoms: O_23  and  C_13 
REMARK   13  A    between atoms: C_15  and  C_14 
REMARK   14  A    between atoms: C_14  and  C_28 
REMARK       I    between atoms: N_35  and  C_15 
REMARK       I    between atoms: C_19  and  N_18 
REMARK   15  A    between atoms: C_27  and  C_19 
REMARK   16  A    between atoms: C_20  and  C_37 
REMARK   17  A    between atoms: O_38  and  C_21 
REMARK   18  A    between atoms: C_34  and  O_23 
REMARK   19  A    between atoms: C_36  and  C_27 
REMARK   20  A    between atoms: C_39  and  C_28 
REMARK   21  A    between atoms: N_33  and  C_36 
REMARK   22  A    between atoms: C_42  and  C_37 
REMARK   23  A    between atoms: S_40  and  C_42 
ROOT
HETATM    1  C   UNK N   1      22.105  18.084   5.283  0.00  0.00     0.177 C 
ENDROOT
BRANCH   1   2
HETATM    2  C   UNK N   1      21.578  17.950   6.658  0.00  0.00     0.241 C 
HETATM    3  N   UNK N   1      21.464  16.675   7.100  0.00  0.00    -0.346 N 
HETATM    4  H   UNK N   1      22.111  16.019   6.751  0.00  0.00     0.163 HD
HETATM    5  O   UNK N   1      21.001  18.876   7.211  0.00  0.00    -0.271 OA
BRANCH   3   6
HETATM    6  C   UNK N   1      20.481  16.195   8.035  0.00  0.00     0.186 C 
BRANCH   6   7
HETATM    7  C   UNK N   1      20.802  14.800   8.499  0.00  0.00     0.241 C 
HETATM    8  N   UNK N   1      22.051  14.309   8.312  0.00  0.00    -0.346 N 
HETATM    9  H   UNK N   1      22.777  14.956   8.156  0.00  0.00     0.163 HD
HETATM   10  O   UNK N   1      19.911  14.092   8.940  0.00  0.00    -0.271 OA
BRANCH   8  11
HETATM   11  C   UNK N   1      22.399  12.906   8.326  0.00  0.00     0.180 C 
BRANCH  11  12
HETATM   12  C   UNK N   1      22.927  12.504   9.670  0.00  0.00     0.238 C 
HETATM   13  O   UNK N   1      22.257  11.767  10.372  0.00  0.00    -0.271 OA
HETATM   14  N   UNK N   1      24.041  13.068  10.174  0.00  0.00    -0.368 N 
HETATM   15  H   UNK N   1      24.770  13.725  10.251  0.00  0.00     0.159 HD
HETATM   16  H   UNK N   1      24.256  12.451  10.910  0.00  0.00     0.159 HD
ENDBRANCH  11  12
BRANCH  11  17
HETATM   17  C   UNK N   1      22.974  12.265   7.044  0.00  0.00     0.073 C 
BRANCH  17  18
HETATM   18  C   UNK N   1      22.061  11.874   5.916  0.00  0.00    -0.056 A 
HETATM   19  C   UNK N   1      20.668  11.957   6.045  0.00  0.00     0.007 A 
HETATM   20  C   UNK N   1      19.837  11.666   4.958  0.00  0.00     0.001 A 
HETATM   21  C   UNK N   1      20.397  11.323   3.725  0.00  0.00     0.000 A 
HETATM   22  C   UNK N   1      21.785  11.265   3.581  0.00  0.00     0.001 A 
HETATM   23  C   UNK N   1      22.615  11.540   4.674  0.00  0.00     0.007 A 
ENDBRANCH  17  18
ENDBRANCH  11  17
ENDBRANCH   8  11
ENDBRANCH   6   7
BRANCH   6  24
HETATM   24  C   UNK N   1      19.039  16.377   7.612  0.00  0.00     0.144 C 
BRANCH  24  25
HETATM   25  C   UNK N   1      18.285  17.039   8.720  0.00  0.00     0.141 C 
HETATM   26  O   UNK N   1      17.287  16.508   9.180  0.00  0.00    -0.650 OA
BRANCH  25  27
HETATM   27  O   UNK N   1      18.702  18.220   9.211  0.00  0.00    -0.776 OA
HETATM   28  H   UNK N   1      19.598  18.482   9.304  0.00  0.00     0.167 HD
ENDBRANCH  25  27
ENDBRANCH  24  25
ENDBRANCH   6  24
ENDBRANCH   3   6
ENDBRANCH   1   2
BRANCH   1  29
HETATM   29  N   UNK N   1      23.465  18.438   4.934  0.00  0.00    -0.346 N 
HETATM   30  C   UNK N   1      24.497  17.688   4.470  0.00  0.00     0.241 C 
HETATM   31  O   UNK N   1      25.239  18.213   3.663  0.00  0.00    -0.271 OA
HETATM   32  H   UNK N   1      23.679  19.391   5.054  0.00  0.00     0.163 HD
BRANCH  30  33
HETATM   33  C   UNK N   1      24.934  16.349   5.016  0.00  0.00     0.180 C 
BRANCH  33  34
HETATM   34  C   UNK N   1      23.959  15.181   4.986  0.00  0.00     0.075 C 
BRANCH  34  35
HETATM   35  C   UNK N   1      23.469  14.924   3.589  0.00  0.00    -0.028 A 
HETATM   36  C   UNK N   1      24.240  14.669   2.456  0.00  0.00     0.096 A 
HETATM   37  N   UNK N   1      23.425  14.477   1.385  0.00  0.00    -0.365 N 
HETATM   38  C   UNK N   1      22.169  14.616   1.843  0.00  0.00     0.042 A 
HETATM   39  H   UNK N   1      23.700  14.277   0.461  0.00  0.00     0.165 HD
HETATM   40  C   UNK N   1      22.162  14.883   3.180  0.00  0.00    -0.002 A 
HETATM   41  C   UNK N   1      20.988  14.522   1.108  0.00  0.00     0.030 A 
HETATM   42  C   UNK N   1      20.983  15.065   3.885  0.00  0.00     0.014 A 
HETATM   43  C   UNK N   1      19.771  14.988   3.178  0.00  0.00     0.001 A 
HETATM   44  C   UNK N   1      19.773  14.717   1.792  0.00  0.00     0.002 A 
ENDBRANCH  34  35
ENDBRANCH  33  34
BRANCH  33  45
HETATM   45  N   UNK N   1      25.594  16.533   6.288  0.00  0.00    -0.347 N 
HETATM   46  C   UNK N   1      26.879  16.140   6.518  0.00  0.00     0.219 C 
HETATM   47  O   UNK N   1      27.391  16.395   7.597  0.00  0.00    -0.274 OA
HETATM   48  H   UNK N   1      25.095  16.961   7.021  0.00  0.00     0.163 HD
BRANCH  46  49
HETATM   49  C   UNK N   1      27.697  15.361   5.510  0.00  0.00     0.122 C 
BRANCH  49  50
HETATM   50  C   UNK N   1      28.771  16.137   4.746  0.00  0.00     0.134 C 
BRANCH  50  51
HETATM   51  N   UNK N   1      29.615  16.929   5.610  0.00  0.00    -0.336 N 
HETATM   52  C   UNK N   1      30.942  16.710   5.777  0.00  0.00     0.361 C 
HETATM   53  O   UNK N   1      31.495  15.798   5.192  0.00  0.00    -0.238 OA
HETATM   54  H   UNK N   1      29.203  17.674   6.105  0.00  0.00     0.164 HD
BRANCH  52  55
HETATM   55  O   UNK N   1      31.672  17.526   6.594  0.00  0.00    -0.294 OA
BRANCH  55  56
HETATM   56  C   UNK N   1      31.902  17.328   7.948  0.00  0.00     0.061 C 
HETATM   57  C   UNK N   1      33.282  17.833   8.345  0.00  0.00     0.046 C 
HETATM   58  C   UNK N   1      31.755  15.863   8.329  0.00  0.00     0.046 C 
HETATM   59  C   UNK N   1      30.875  18.116   8.732  0.00  0.00     0.046 C 
ENDBRANCH  55  56
ENDBRANCH  52  55
ENDBRANCH  50  51
ENDBRANCH  49  50
ENDBRANCH  46  49
ENDBRANCH  33  45
ENDBRANCH  30  33
ENDBRANCH   1  29
BRANCH   1  60
HETATM   60  C   UNK N   1      21.106  18.858   4.449  0.00  0.00     0.045 C 
BRANCH  60  61
HETATM   61  C   UNK N   1      21.641  19.067   3.050  0.00  0.00     0.076 C 
BRANCH  61  62
HETATM   62  S   UNK N   1      20.261  19.068   1.881  0.00  0.00    -0.173 SA
HETATM   63  C   UNK N   1      20.706  20.723   1.285  0.00  0.00     0.089 C 
ENDBRANCH  61  62
ENDBRANCH  60  61
ENDBRANCH   1  60
TORSDOF 23
ENDMDL
MODEL 5
REMARK VINA RESULT:      -7.1      4.192      9.643
REMARK  23 active torsions:
REMARK  status: ('A' for Active; 'I' for Inactive)
REMARK    1  A    between atoms: C_17  and  C_1 
REMARK    2  A    between atoms: C_2  and  C_8 
REMARK       I    between atoms: N_7  and  C_2 
REMARK    3  A    between atoms: C_3  and  C_12 
REMARK       I    between atoms: N_10  and  C_3 
REMARK    4  A    between atoms: C_4  and  C_20 
REMARK       I    between atoms: N_6  and  C_4 
REMARK    5  A    between atoms: C_8  and  N_6 
REMARK    6  A    between atoms: C_14  and  N_7 
REMARK    7  A    between atoms: C_8  and  C_11 
REMARK    8  A    between atoms: C_20  and  N_10 
REMARK    9  A    between atoms: C_21  and  C_11 
REMARK   10  A    between atoms: C_12  and  C_17 
REMARK   11  A    between atoms: N_18  and  C_12 
REMARK       I    between atoms: C_13  and  N_33 
REMARK   12  A    between atoms: O_23  and  C_13 
REMARK   13  A    between atoms: C_15  and  C_14 
REMARK   14  A    between atoms: C_14  and  C_28 
REMARK       I    between atoms: N_35  and  C_15 
REMARK       I    between atoms: C_19  and  N_18 
REMARK   15  A    between atoms: C_27  and  C_19 
REMARK   16  A    between atoms: C_20  and  C_37 
REMARK   17  A    between atoms: O_38  and  C_21 
REMARK   18  A    between atoms: C_34  and  O_23 
REMARK   19  A    between atoms: C_36  and  C_27 
REMARK   20  A    between atoms: C_39  and  C_28 
REMARK   21  A    between atoms: N_33  and  C_36 
REMARK   22  A    between atoms: C_42  and  C_37 
REMARK   23  A    between atoms: S_40  and  C_42 
ROOT
HETATM    1  C   UNK N   1      26.777  16.553   5.478  0.00  0.00     0.177 C 
ENDROOT
BRANCH   1   2
HETATM    2  C   UNK N   1      27.948  17.432   5.679  0.00  0.00     0.241 C 
HETATM    3  N   UNK N   1      28.882  16.947   6.531  0.00  0.00    -0.346 N 
HETATM    4  H   UNK N   1      28.984  15.968   6.576  0.00  0.00     0.163 HD
HETATM    5  O   UNK N   1      27.918  18.614   5.363  0.00  0.00    -0.271 OA
BRANCH   3   6
HETATM    6  C   UNK N   1      29.740  17.736   7.376  0.00  0.00     0.186 C 
BRANCH   6   7
HETATM    7  C   UNK N   1      30.996  16.988   7.731  0.00  0.00     0.241 C 
HETATM    8  N   UNK N   1      31.874  17.539   8.603  0.00  0.00    -0.346 N 
HETATM    9  H   UNK N   1      31.541  18.254   9.195  0.00  0.00     0.163 HD
HETATM   10  O   UNK N   1      31.260  15.946   7.152  0.00  0.00    -0.271 OA
BRANCH   8  11
HETATM   11  C   UNK N   1      33.261  17.158   8.733  0.00  0.00     0.180 C 
BRANCH  11  12
HETATM   12  C   UNK N   1      34.141  18.082   7.944  0.00  0.00     0.238 C 
HETATM   13  O   UNK N   1      34.218  17.936   6.737  0.00  0.00    -0.271 OA
HETATM   14  N   UNK N   1      34.960  18.954   8.562  0.00  0.00    -0.368 N 
HETATM   15  H   UNK N   1      35.463  19.354   9.307  0.00  0.00     0.159 HD
HETATM   16  H   UNK N   1      35.201  19.554   7.820  0.00  0.00     0.159 HD
ENDBRANCH  11  12
BRANCH  11  17
HETATM   17  C   UNK N   1      33.619  15.660   8.850  0.00  0.00     0.073 C 
BRANCH  17  18
HETATM   18  C   UNK N   1      34.378  15.152  10.043  0.00  0.00    -0.056 A 
HETATM   19  C   UNK N   1      34.520  13.779  10.286  0.00  0.00     0.007 A 
HETATM   20  C   UNK N   1      35.298  13.325  11.356  0.00  0.00     0.001 A 
HETATM   21  C   UNK N   1      35.966  14.243  12.171  0.00  0.00     0.000 A 
HETATM   22  C   UNK N   1      35.851  15.613  11.918  0.00  0.00     0.001 A 
HETATM   23  C   UNK N   1      35.060  16.066  10.857  0.00  0.00     0.007 A 
ENDBRANCH  17  18
ENDBRANCH  11  17
ENDBRANCH   8  11
ENDBRANCH   6   7
BRANCH   6  24
HETATM   24  C   UNK N   1      29.062  18.384   8.565  0.00  0.00     0.144 C 
BRANCH  24  25
HETATM   25  C   UNK N   1      28.553  17.317   9.479  0.00  0.00     0.141 C 
HETATM   26  O   UNK N   1      27.458  16.817   9.280  0.00  0.00    -0.650 OA
BRANCH  25  27
HETATM   27  O   UNK N   1      29.299  16.906  10.521  0.00  0.00    -0.776 OA
HETATM   28  H   UNK N   1      29.734  16.078  10.583  0.00  0.00     0.167 HD
ENDBRANCH  25  27
ENDBRANCH  24  25
ENDBRANCH   6  24
ENDBRANCH   3   6
ENDBRANCH   1   2
BRANCH   1  29
HETATM   29  N   UNK N   1      25.863  16.119   6.514  0.00  0.00    -0.346 N 
HETATM   30  C   UNK N   1      24.621  15.575   6.446  0.00  0.00     0.241 C 
HETATM   31  O   UNK N   1      24.346  14.728   7.274  0.00  0.00    -0.271 OA
HETATM   32  H   UNK N   1      26.203  16.239   7.430  0.00  0.00     0.163 HD
BRANCH  30  33
HETATM   33  C   UNK N   1      23.484  16.068   5.583  0.00  0.00     0.180 C 
BRANCH  33  34
HETATM   34  C   UNK N   1      23.743  16.369   4.114  0.00  0.00     0.075 C 
BRANCH  34  35
HETATM   35  C   UNK N   1      23.470  17.814   3.803  0.00  0.00    -0.028 A 
HETATM   36  C   UNK N   1      24.366  18.879   3.878  0.00  0.00     0.096 A 
HETATM   37  N   UNK N   1      23.739  20.027   3.506  0.00  0.00    -0.365 N 
HETATM   38  C   UNK N   1      22.474  19.682   3.211  0.00  0.00     0.042 A 
HETATM   39  H   UNK N   1      24.134  20.928   3.462  0.00  0.00     0.165 HD
HETATM   40  C   UNK N   1      22.280  18.343   3.378  0.00  0.00    -0.002 A 
HETATM   41  C   UNK N   1      21.446  20.526   2.794  0.00  0.00     0.030 A 
HETATM   42  C   UNK N   1      21.055  17.744   3.131  0.00  0.00     0.014 A 
HETATM   43  C   UNK N   1      19.989  18.562   2.719  0.00  0.00     0.001 A 
HETATM   44  C   UNK N   1      20.184  19.951   2.551  0.00  0.00     0.002 A 
ENDBRANCH  34  35
ENDBRANCH  33  34
BRANCH  33  45
HETATM   45  N   UNK N   1      22.761  17.109   6.278  0.00  0.00    -0.347 N 
HETATM   46  C   UNK N   1      21.479  16.953   6.716  0.00  0.00     0.219 C 
HETATM   47  O   UNK N   1      20.960  17.851   7.357  0.00  0.00    -0.274 OA
HETATM   48  H   UNK N   1      23.213  17.968   6.443  0.00  0.00     0.163 HD
BRANCH  46  49
HETATM   49  C   UNK N   1      20.645  15.727   6.407  0.00  0.00     0.122 C 
BRANCH  49  50
HETATM   50  C   UNK N   1      20.354  14.781   7.572  0.00  0.00     0.134 C 
BRANCH  50  51
HETATM   51  N   UNK N   1      21.509  14.542   8.406  0.00  0.00    -0.336 N 
HETATM   52  C   UNK N   1      21.497  13.748   9.505  0.00  0.00     0.361 C 
HETATM   53  O   UNK N   1      20.473  13.189   9.850  0.00  0.00    -0.238 OA
HETATM   54  H   UNK N   1      22.355  14.982   8.162  0.00  0.00     0.164 HD
BRANCH  52  55
HETATM   55  O   UNK N   1      22.643  13.556  10.222  0.00  0.00    -0.294 OA
BRANCH  55  56
HETATM   56  C   UNK N   1      23.398  12.392  10.255  0.00  0.00     0.061 C 
HETATM   57  C   UNK N   1      23.181  11.566   8.996  0.00  0.00     0.046 C 
HETATM   58  C   UNK N   1      23.076  11.557  11.486  0.00  0.00     0.046 C 
HETATM   59  C   UNK N   1      24.862  12.766  10.321  0.00  0.00     0.046 C 
ENDBRANCH  55  56
ENDBRANCH  52  55
ENDBRANCH  50  51
ENDBRANCH  49  50
ENDBRANCH  46  49
ENDBRANCH  33  45
ENDBRANCH  30  33
ENDBRANCH   1  29
BRANCH   1  60
HETATM   60  C   UNK N   1      27.178  15.400   4.582  0.00  0.00     0.045 C 
BRANCH  60  61
HETATM   61  C   UNK N   1      27.245  15.855   3.141  0.00  0.00     0.076 C 
BRANCH  61  62
HETATM   62  S   UNK N   1      28.370  14.770   2.230  0.00  0.00    -0.173 SA
HETATM   63  C   UNK N   1      29.563  14.781   3.597  0.00  0.00     0.089 C 
ENDBRANCH  61  62
ENDBRANCH  60  61
ENDBRANCH   1  60
TORSDOF 23
ENDMDL
MODEL 6
REMARK VINA RESULT:      -7.0      2.743      8.394
REMARK  23 active torsions:
REMARK  status: ('A' for Active; 'I' for Inactive)
REMARK    1  A    between atoms: C_17  and  C_1 
REMARK    2  A    between atoms: C_2  and  C_8 
REMARK       I    between atoms: N_7  and  C_2 
REMARK    3  A    between atoms: C_3  and  C_12 
REMARK       I    between atoms: N_10  and  C_3 
REMARK    4  A    between atoms: C_4  and  C_20 
REMARK       I    between atoms: N_6  and  C_4 
REMARK    5  A    between atoms: C_8  and  N_6 
REMARK    6  A    between atoms: C_14  and  N_7 
REMARK    7  A    between atoms: C_8  and  C_11 
REMARK    8  A    between atoms: C_20  and  N_10 
REMARK    9  A    between atoms: C_21  and  C_11 
REMARK   10  A    between atoms: C_12  and  C_17 
REMARK   11  A    between atoms: N_18  and  C_12 
REMARK       I    between atoms: C_13  and  N_33 
REMARK   12  A    between atoms: O_23  and  C_13 
REMARK   13  A    between atoms: C_15  and  C_14 
REMARK   14  A    between atoms: C_14  and  C_28 
REMARK       I    between atoms: N_35  and  C_15 
REMARK       I    between atoms: C_19  and  N_18 
REMARK   15  A    between atoms: C_27  and  C_19 
REMARK   16  A    between atoms: C_20  and  C_37 
REMARK   17  A    between atoms: O_38  and  C_21 
REMARK   18  A    between atoms: C_34  and  O_23 
REMARK   19  A    between atoms: C_36  and  C_27 
REMARK   20  A    between atoms: C_39  and  C_28 
REMARK   21  A    between atoms: N_33  and  C_36 
REMARK   22  A    between atoms: C_42  and  C_37 
REMARK   23  A    between atoms: S_40  and  C_42 
ROOT
HETATM    1  C   UNK N   1      22.817  17.415   4.973  0.00  0.00     0.177 C 
ENDROOT
BRANCH   1   2
HETATM    2  C   UNK N   1      24.154  16.785   4.950  0.00  0.00     0.241 C 
HETATM    3  N   UNK N   1      25.137  17.519   5.523  0.00  0.00    -0.346 N 
HETATM    4  H   UNK N   1      24.880  18.109   6.270  0.00  0.00     0.163 HD
HETATM    5  O   UNK N   1      24.403  15.850   4.202  0.00  0.00    -0.271 OA
BRANCH   3   6
HETATM    6  C   UNK N   1      26.524  17.512   5.139  0.00  0.00     0.186 C 
BRANCH   6   7
HETATM    7  C   UNK N   1      27.383  16.878   6.199  0.00  0.00     0.241 C 
HETATM    8  N   UNK N   1      28.037  17.667   7.084  0.00  0.00    -0.346 N 
HETATM    9  H   UNK N   1      27.712  18.590   7.200  0.00  0.00     0.163 HD
HETATM   10  O   UNK N   1      27.563  15.671   6.185  0.00  0.00    -0.271 OA
BRANCH   8  11
HETATM   11  C   UNK N   1      29.177  17.258   7.873  0.00  0.00     0.180 C 
BRANCH  11  12
HETATM   12  C   UNK N   1      28.916  17.475   9.333  0.00  0.00     0.238 C 
HETATM   13  O   UNK N   1      27.847  17.123   9.801  0.00  0.00    -0.271 OA
HETATM   14  N   UNK N   1      29.769  18.189  10.091  0.00  0.00    -0.368 N 
HETATM   15  H   UNK N   1      30.511  18.806  10.286  0.00  0.00     0.159 HD
HETATM   16  H   UNK N   1      29.470  17.951  10.998  0.00  0.00     0.159 HD
ENDBRANCH  11  12
BRANCH  11  17
HETATM   17  C   UNK N   1      30.597  17.464   7.300  0.00  0.00     0.073 C 
BRANCH  17  18
HETATM   18  C   UNK N   1      31.004  16.788   6.021  0.00  0.00    -0.056 A 
HETATM   19  C   UNK N   1      30.879  17.434   4.784  0.00  0.00     0.007 A 
HETATM   20  C   UNK N   1      31.338  16.821   3.614  0.00  0.00     0.001 A 
HETATM   21  C   UNK N   1      31.957  15.570   3.679  0.00  0.00     0.000 A 
HETATM   22  C   UNK N   1      32.111  14.932   4.913  0.00  0.00     0.001 A 
HETATM   23  C   UNK N   1      31.636  15.540   6.081  0.00  0.00     0.007 A 
ENDBRANCH  17  18
ENDBRANCH  11  17
ENDBRANCH   8  11
ENDBRANCH   6   7
BRANCH   6  24
HETATM   24  C   UNK N   1      27.063  18.833   4.630  0.00  0.00     0.144 C 
BRANCH  24  25
HETATM   25  C   UNK N   1      26.235  19.945   5.185  0.00  0.00     0.141 C 
HETATM   26  O   UNK N   1      25.553  20.628   4.438  0.00  0.00    -0.650 OA
BRANCH  25  27
HETATM   27  O   UNK N   1      26.238  20.197   6.507  0.00  0.00    -0.776 OA
HETATM   28  H   UNK N   1      26.857  19.855   7.122  0.00  0.00     0.167 HD
ENDBRANCH  25  27
ENDBRANCH  24  25
ENDBRANCH   6  24
ENDBRANCH   3   6
ENDBRANCH   1   2
BRANCH   1  29
HETATM   29  N   UNK N   1      21.555  16.714   4.867  0.00  0.00    -0.346 N 
HETATM   30  C   UNK N   1      20.977  15.779   5.664  0.00  0.00     0.241 C 
HETATM   31  O   UNK N   1      19.768  15.831   5.784  0.00  0.00    -0.271 OA
HETATM   32  H   UNK N   1      21.020  16.959   4.077  0.00  0.00     0.163 HD
BRANCH  30  33
HETATM   33  C   UNK N   1      21.660  14.561   6.238  0.00  0.00     0.180 C 
BRANCH  33  34
HETATM   34  C   UNK N   1      22.611  14.728   7.414  0.00  0.00     0.075 C 
BRANCH  34  35
HETATM   35  C   UNK N   1      22.069  14.057   8.645  0.00  0.00    -0.028 A 
HETATM   36  C   UNK N   1      20.746  14.038   9.084  0.00  0.00     0.096 A 
HETATM   37  N   UNK N   1      20.659  13.315  10.232  0.00  0.00    -0.365 N 
HETATM   38  C   UNK N   1      21.907  12.898  10.506  0.00  0.00     0.042 A 
HETATM   39  H   UNK N   1      19.845  13.135  10.757  0.00  0.00     0.165 HD
HETATM   40  C   UNK N   1      22.786  13.328   9.556  0.00  0.00    -0.002 A 
HETATM   41  C   UNK N   1      22.321  12.134  11.596  0.00  0.00     0.030 A 
HETATM   42  C   UNK N   1      24.136  13.022   9.616  0.00  0.00     0.014 A 
HETATM   43  C   UNK N   1      24.595  12.262  10.705  0.00  0.00     0.001 A 
HETATM   44  C   UNK N   1      23.690  11.819  11.693  0.00  0.00     0.002 A 
ENDBRANCH  34  35
ENDBRANCH  33  34
BRANCH  33  45
HETATM   45  N   UNK N   1      22.186  13.747   5.167  0.00  0.00    -0.347 N 
HETATM   46  C   UNK N   1      21.751  12.478   4.919  0.00  0.00     0.219 C 
HETATM   47  O   UNK N   1      22.193  11.880   3.952  0.00  0.00    -0.274 OA
HETATM   48  H   UNK N   1      22.890  14.123   4.590  0.00  0.00     0.163 HD
BRANCH  46  49
HETATM   49  C   UNK N   1      20.769  11.753   5.815  0.00  0.00     0.122 C 
BRANCH  49  50
HETATM   50  C   UNK N   1      19.624  11.011   5.124  0.00  0.00     0.134 C 
BRANCH  50  51
HETATM   51  N   UNK N   1      19.322  11.537   3.813  0.00  0.00    -0.336 N 
HETATM   52  C   UNK N   1      18.521  12.609   3.595  0.00  0.00     0.361 C 
HETATM   53  O   UNK N   1      17.998  13.187   4.528  0.00  0.00    -0.238 OA
HETATM   54  H   UNK N   1      19.723  11.092   3.032  0.00  0.00     0.164 HD
BRANCH  52  55
HETATM   55  O   UNK N   1      18.311  13.057   2.322  0.00  0.00    -0.294 OA
BRANCH  55  56
HETATM   56  C   UNK N   1      19.259  13.649   1.500  0.00  0.00     0.061 C 
HETATM   57  C   UNK N   1      20.233  12.614   0.957  0.00  0.00     0.046 C 
HETATM   58  C   UNK N   1      20.020  14.746   2.230  0.00  0.00     0.046 C 
HETATM   59  C   UNK N   1      18.550  14.283   0.323  0.00  0.00     0.046 C 
ENDBRANCH  55  56
ENDBRANCH  52  55
ENDBRANCH  50  51
ENDBRANCH  49  50
ENDBRANCH  46  49
ENDBRANCH  33  45
ENDBRANCH  30  33
ENDBRANCH   1  29
BRANCH   1  60
HETATM   60  C   UNK N   1      22.838  18.644   4.088  0.00  0.00     0.045 C 
BRANCH  60  61
HETATM   61  C   UNK N   1      21.738  18.563   3.054  0.00  0.00     0.076 C 
BRANCH  61  62
HETATM   62  S   UNK N   1      20.592  19.942   3.300  0.00  0.00    -0.173 SA
HETATM   63  C   UNK N   1      19.208  18.969   2.644  0.00  0.00     0.089 C 
ENDBRANCH  61  62
ENDBRANCH  60  61
ENDBRANCH   1  60
TORSDOF 23
ENDMDL
MODEL 7
REMARK VINA RESULT:      -7.0      1.707      2.704
REMARK  23 active torsions:
REMARK  status: ('A' for Active; 'I' for Inactive)
REMARK    1  A    between atoms: C_17  and  C_1 
REMARK    2  A    between atoms: C_2  and  C_8 
REMARK       I    between atoms: N_7  and  C_2 
REMARK    3  A    between atoms: C_3  and  C_12 
REMARK       I    between atoms: N_10  and  C_3 
REMARK    4  A    between atoms: C_4  and  C_20 
REMARK       I    between atoms: N_6  and  C_4 
REMARK    5  A    between atoms: C_8  and  N_6 
REMARK    6  A    between atoms: C_14  and  N_7 
REMARK    7  A    between atoms: C_8  and  C_11 
REMARK    8  A    between atoms: C_20  and  N_10 
REMARK    9  A    between atoms: C_21  and  C_11 
REMARK   10  A    between atoms: C_12  and  C_17 
REMARK   11  A    between atoms: N_18  and  C_12 
REMARK       I    between atoms: C_13  and  N_33 
REMARK   12  A    between atoms: O_23  and  C_13 
REMARK   13  A    between atoms: C_15  and  C_14 
REMARK   14  A    between atoms: C_14  and  C_28 
REMARK       I    between atoms: N_35  and  C_15 
REMARK       I    between atoms: C_19  and  N_18 
REMARK   15  A    between atoms: C_27  and  C_19 
REMARK   16  A    between atoms: C_20  and  C_37 
REMARK   17  A    between atoms: O_38  and  C_21 
REMARK   18  A    between atoms: C_34  and  O_23 
REMARK   19  A    between atoms: C_36  and  C_27 
REMARK   20  A    between atoms: C_39  and  C_28 
REMARK   21  A    between atoms: N_33  and  C_36 
REMARK   22  A    between atoms: C_42  and  C_37 
REMARK   23  A    between atoms: S_40  and  C_42 
ROOT
HETATM    1  C   UNK N   1      21.845  17.297   5.351  0.00  0.00     0.177 C 
ENDROOT
BRANCH   1   2
HETATM    2  C   UNK N   1      21.482  17.483   6.772  0.00  0.00     0.241 C 
HETATM    3  N   UNK N   1      21.287  16.336   7.463  0.00  0.00    -0.346 N 
HETATM    4  H   UNK N   1      21.811  15.549   7.185  0.00  0.00     0.163 HD
HETATM    5  O   UNK N   1      21.081  18.561   7.189  0.00  0.00    -0.271 OA
BRANCH   3   6
HETATM    6  C   UNK N   1      20.382  16.163   8.569  0.00  0.00     0.186 C 
BRANCH   6   7
HETATM    7  C   UNK N   1      20.528  14.800   9.188  0.00  0.00     0.241 C 
HETATM    8  N   UNK N   1      21.758  14.242   9.285  0.00  0.00    -0.346 N 
HETATM    9  H   UNK N   1      22.537  14.843   9.226  0.00  0.00     0.163 HD
HETATM   10  O   UNK N   1      19.529  14.170   9.499  0.00  0.00    -0.271 OA
BRANCH   8  11
HETATM   11  C   UNK N   1      22.015  12.832   9.471  0.00  0.00     0.180 C 
BRANCH  11  12
HETATM   12  C   UNK N   1      21.940  12.467  10.923  0.00  0.00     0.238 C 
HETATM   13  O   UNK N   1      22.974  12.363  11.560  0.00  0.00    -0.271 OA
HETATM   14  N   UNK N   1      20.774  12.098  11.486  0.00  0.00    -0.368 N 
HETATM   15  H   UNK N   1      19.836  11.803  11.518  0.00  0.00     0.159 HD
HETATM   16  H   UNK N   1      20.991  12.163  12.443  0.00  0.00     0.159 HD
ENDBRANCH  11  12
BRANCH  11  17
HETATM   17  C   UNK N   1      23.033  12.128   8.546  0.00  0.00     0.073 C 
BRANCH  17  18
HETATM   18  C   UNK N   1      22.558  11.331   7.364  0.00  0.00    -0.056 A 
HETATM   19  C   UNK N   1      23.256  10.200   6.920  0.00  0.00     0.007 A 
HETATM   20  C   UNK N   1      22.755   9.424   5.870  0.00  0.00     0.001 A 
HETATM   21  C   UNK N   1      21.533   9.757   5.279  0.00  0.00     0.000 A 
HETATM   22  C   UNK N   1      20.817  10.867   5.735  0.00  0.00     0.001 A 
HETATM   23  C   UNK N   1      21.328  11.651   6.775  0.00  0.00     0.007 A 
ENDBRANCH  17  18
ENDBRANCH  11  17
ENDBRANCH   8  11
ENDBRANCH   6   7
BRANCH   6  24
HETATM   24  C   UNK N   1      18.945  16.557   8.299  0.00  0.00     0.144 C 
BRANCH  24  25
HETATM   25  C   UNK N   1      18.548  17.640   9.249  0.00  0.00     0.141 C 
HETATM   26  O   UNK N   1      17.478  17.577   9.831  0.00  0.00    -0.650 OA
BRANCH  25  27
HETATM   27  O   UNK N   1      19.368  18.685   9.465  0.00  0.00    -0.776 OA
HETATM   28  H   UNK N   1      19.444  19.157  10.271  0.00  0.00     0.167 HD
ENDBRANCH  25  27
ENDBRANCH  24  25
ENDBRANCH   6  24
ENDBRANCH   3   6
ENDBRANCH   1   2
BRANCH   1  29
HETATM   29  N   UNK N   1      23.129  17.615   4.762  0.00  0.00    -0.346 N 
HETATM   30  C   UNK N   1      24.194  16.832   4.452  0.00  0.00     0.241 C 
HETATM   31  O   UNK N   1      24.811  17.118   3.444  0.00  0.00    -0.271 OA
HETATM   32  H   UNK N   1      23.252  18.569   4.550  0.00  0.00     0.163 HD
BRANCH  30  33
HETATM   33  C   UNK N   1      24.809  15.780   5.344  0.00  0.00     0.180 C 
BRANCH  33  34
HETATM   34  C   UNK N   1      23.937  14.649   5.870  0.00  0.00     0.075 C 
BRANCH  34  35
HETATM   35  C   UNK N   1      23.467  13.766   4.748  0.00  0.00    -0.028 A 
HETATM   36  C   UNK N   1      22.298  13.900   3.999  0.00  0.00     0.096 A 
HETATM   37  N   UNK N   1      22.238  12.910   3.070  0.00  0.00    -0.365 N 
HETATM   38  C   UNK N   1      23.347  12.169   3.243  0.00  0.00     0.042 A 
HETATM   39  H   UNK N   1      21.526  12.765   2.405  0.00  0.00     0.165 HD
HETATM   40  C   UNK N   1      24.116  12.667   4.252  0.00  0.00    -0.002 A 
HETATM   41  C   UNK N   1      23.718  11.030   2.530  0.00  0.00     0.030 A 
HETATM   42  C   UNK N   1      25.314  12.076   4.619  0.00  0.00     0.014 A 
HETATM   43  C   UNK N   1      25.720  10.920   3.931  0.00  0.00     0.001 A 
HETATM   44  C   UNK N   1      24.924  10.397   2.889  0.00  0.00     0.002 A 
ENDBRANCH  34  35
ENDBRANCH  33  34
BRANCH  33  45
HETATM   45  N   UNK N   1      25.624  16.415   6.355  0.00  0.00    -0.347 N 
HETATM   46  C   UNK N   1      26.964  16.193   6.471  0.00  0.00     0.219 C 
HETATM   47  O   UNK N   1      27.597  16.820   7.305  0.00  0.00    -0.274 OA
HETATM   48  H   UNK N   1      25.194  17.034   6.988  0.00  0.00     0.163 HD
BRANCH  46  49
HETATM   49  C   UNK N   1      27.707  15.168   5.639  0.00  0.00     0.122 C 
BRANCH  49  50
HETATM   50  C   UNK N   1      28.968  15.648   4.919  0.00  0.00     0.134 C 
BRANCH  50  51
HETATM   51  N   UNK N   1      30.139  15.632   5.765  0.00  0.00    -0.336 N 
HETATM   52  C   UNK N   1      31.091  16.597   5.756  0.00  0.00     0.361 C 
HETATM   53  O   UNK N   1      30.999  17.546   5.001  0.00  0.00    -0.238 OA
HETATM   54  H   UNK N   1      30.252  14.876   6.386  0.00  0.00     0.164 HD
BRANCH  52  55
HETATM   55  O   UNK N   1      32.154  16.516   6.610  0.00  0.00    -0.294 OA
BRANCH  55  56
HETATM   56  C   UNK N   1      32.221  17.067   7.881  0.00  0.00     0.061 C 
HETATM   57  C   UNK N   1      30.879  17.655   8.291  0.00  0.00     0.046 C 
HETATM   58  C   UNK N   1      33.304  18.133   7.968  0.00  0.00     0.046 C 
HETATM   59  C   UNK N   1      32.570  15.972   8.865  0.00  0.00     0.046 C 
ENDBRANCH  55  56
ENDBRANCH  52  55
ENDBRANCH  50  51
ENDBRANCH  49  50
ENDBRANCH  46  49
ENDBRANCH  33  45
ENDBRANCH  30  33
ENDBRANCH   1  29
BRANCH   1  60
HETATM   60  C   UNK N   1      20.707  17.793   4.485  0.00  0.00     0.045 C 
BRANCH  60  61
HETATM   61  C   UNK N   1      21.176  17.980   3.059  0.00  0.00     0.076 C 
BRANCH  61  62
HETATM   62  S   UNK N   1      20.350  19.425   2.349  0.00  0.00    -0.173 SA
HETATM   63  C   UNK N   1      21.815  20.459   2.633  0.00  0.00     0.089 C 
ENDBRANCH  61  62
ENDBRANCH  60  61
ENDBRANCH   1  60
TORSDOF 23
ENDMDL
MODEL 8
REMARK VINA RESULT:      -7.0      2.583      7.464
REMARK  23 active torsions:
REMARK  status: ('A' for Active; 'I' for Inactive)
REMARK    1  A    between atoms: C_17  and  C_1 
REMARK    2  A    between atoms: C_2  and  C_8 
REMARK       I    between atoms: N_7  and  C_2 
REMARK    3  A    between atoms: C_3  and  C_12 
REMARK       I    between atoms: N_10  and  C_3 
REMARK    4  A    between atoms: C_4  and  C_20 
REMARK       I    between atoms: N_6  and  C_4 
REMARK    5  A    between atoms: C_8  and  N_6 
REMARK    6  A    between atoms: C_14  and  N_7 
REMARK    7  A    between atoms: C_8  and  C_11 
REMARK    8  A    between atoms: C_20  and  N_10 
REMARK    9  A    between atoms: C_21  and  C_11 
REMARK   10  A    between atoms: C_12  and  C_17 
REMARK   11  A    between atoms: N_18  and  C_12 
REMARK       I    between atoms: C_13  and  N_33 
REMARK   12  A    between atoms: O_23  and  C_13 
REMARK   13  A    between atoms: C_15  and  C_14 
REMARK   14  A    between atoms: C_14  and  C_28 
REMARK       I    between atoms: N_35  and  C_15 
REMARK       I    between atoms: C_19  and  N_18 
REMARK   15  A    between atoms: C_27  and  C_19 
REMARK   16  A    between atoms: C_20  and  C_37 
REMARK   17  A    between atoms: O_38  and  C_21 
REMARK   18  A    between atoms: C_34  and  O_23 
REMARK   19  A    between atoms: C_36  and  C_27 
REMARK   20  A    between atoms: C_39  and  C_28 
REMARK   21  A    between atoms: N_33  and  C_36 
REMARK   22  A    between atoms: C_42  and  C_37 
REMARK   23  A    between atoms: S_40  and  C_42 
ROOT
HETATM    1  C   UNK N   1      22.184  14.110   4.402  0.00  0.00     0.177 C 
ENDROOT
BRANCH   1   2
HETATM    2  C   UNK N   1      21.750  14.736   5.669  0.00  0.00     0.241 C 
HETATM    3  N   UNK N   1      20.644  15.511   5.570  0.00  0.00    -0.346 N 
HETATM    4  H   UNK N   1      19.979  15.259   4.888  0.00  0.00     0.163 HD
HETATM    5  O   UNK N   1      22.500  14.806   6.633  0.00  0.00    -0.271 OA
BRANCH   3   6
HETATM    6  C   UNK N   1      20.356  16.670   6.372  0.00  0.00     0.186 C 
BRANCH   6   7
HETATM    7  C   UNK N   1      21.182  17.852   5.943  0.00  0.00     0.241 C 
HETATM    8  N   UNK N   1      21.310  18.130   4.624  0.00  0.00    -0.346 N 
HETATM    9  H   UNK N   1      20.640  17.748   4.010  0.00  0.00     0.163 HD
HETATM   10  O   UNK N   1      21.810  18.482   6.779  0.00  0.00    -0.271 OA
BRANCH   8  11
HETATM   11  C   UNK N   1      22.353  18.946   4.047  0.00  0.00     0.180 C 
BRANCH  11  12
HETATM   12  C   UNK N   1      21.787  19.888   3.027  0.00  0.00     0.238 C 
HETATM   13  O   UNK N   1      22.415  20.890   2.735  0.00  0.00    -0.271 OA
HETATM   14  N   UNK N   1      20.537  19.726   2.553  0.00  0.00    -0.368 N 
HETATM   15  H   UNK N   1      19.618  19.376   2.519  0.00  0.00     0.159 HD
HETATM   16  H   UNK N   1      20.551  20.313   1.763  0.00  0.00     0.159 HD
ENDBRANCH  11  12
BRANCH  11  17
HETATM   17  C   UNK N   1      23.757  18.333   3.842  0.00  0.00     0.073 C 
BRANCH  17  18
HETATM   18  C   UNK N   1      24.986  19.114   4.213  0.00  0.00    -0.056 A 
HETATM   19  C   UNK N   1      25.277  19.424   5.549  0.00  0.00     0.007 A 
HETATM   20  C   UNK N   1      26.466  20.080   5.881  0.00  0.00     0.001 A 
HETATM   21  C   UNK N   1      27.389  20.401   4.882  0.00  0.00     0.000 A 
HETATM   22  C   UNK N   1      27.119  20.069   3.552  0.00  0.00     0.001 A 
HETATM   23  C   UNK N   1      25.921  19.427   3.219  0.00  0.00     0.007 A 
ENDBRANCH  17  18
ENDBRANCH  11  17
ENDBRANCH   8  11
ENDBRANCH   6   7
BRANCH   6  24
HETATM   24  C   UNK N   1      20.356  16.441   7.869  0.00  0.00     0.144 C 
BRANCH  24  25
HETATM   25  C   UNK N   1      19.136  17.069   8.460  0.00  0.00     0.141 C 
HETATM   26  O   UNK N   1      18.063  16.490   8.400  0.00  0.00    -0.650 OA
BRANCH  25  27
HETATM   27  O   UNK N   1      19.215  18.272   9.057  0.00  0.00    -0.776 OA
HETATM   28  H   UNK N   1      18.492  18.845   9.220  0.00  0.00     0.167 HD
ENDBRANCH  25  27
ENDBRANCH  24  25
ENDBRANCH   6  24
ENDBRANCH   3   6
ENDBRANCH   1   2
BRANCH   1  29
HETATM   29  N   UNK N   1      22.762  14.808   3.274  0.00  0.00    -0.346 N 
HETATM   30  C   UNK N   1      23.937  14.633   2.616  0.00  0.00     0.241 C 
HETATM   31  O   UNK N   1      23.925  14.815   1.414  0.00  0.00    -0.271 OA
HETATM   32  H   UNK N   1      22.205  15.539   2.921  0.00  0.00     0.163 HD
BRANCH  30  33
HETATM   33  C   UNK N   1      25.291  14.447   3.257  0.00  0.00     0.180 C 
BRANCH  33  34
HETATM   34  C   UNK N   1      26.248  15.629   3.330  0.00  0.00     0.075 C 
BRANCH  34  35
HETATM   35  C   UNK N   1      26.581  15.964   4.757  0.00  0.00    -0.028 A 
HETATM   36  C   UNK N   1      25.788  15.746   5.884  0.00  0.00     0.096 A 
HETATM   37  N   UNK N   1      26.448  16.175   6.992  0.00  0.00    -0.365 N 
HETATM   38  C   UNK N   1      27.627  16.658   6.562  0.00  0.00     0.042 A 
HETATM   39  H   UNK N   1      26.126  16.140   7.922  0.00  0.00     0.165 HD
HETATM   40  C   UNK N   1      27.739  16.539   5.208  0.00  0.00    -0.002 A 
HETATM   41  C   UNK N   1      28.638  17.224   7.335  0.00  0.00     0.030 A 
HETATM   42  C   UNK N   1      28.869  16.963   4.527  0.00  0.00     0.014 A 
HETATM   43  C   UNK N   1      29.908  17.550   5.269  0.00  0.00     0.001 A 
HETATM   44  C   UNK N   1      29.793  17.680   6.670  0.00  0.00     0.002 A 
ENDBRANCH  34  35
ENDBRANCH  33  34
BRANCH  33  45
HETATM   45  N   UNK N   1      25.897  13.229   2.770  0.00  0.00    -0.347 N 
HETATM   46  C   UNK N   1      26.111  12.140   3.562  0.00  0.00     0.219 C 
HETATM   47  O   UNK N   1      26.562  11.123   3.061  0.00  0.00    -0.274 OA
HETATM   48  H   UNK N   1      26.169  13.182   1.824  0.00  0.00     0.163 HD
BRANCH  46  49
HETATM   49  C   UNK N   1      25.853  12.142   5.054  0.00  0.00     0.122 C 
BRANCH  49  50
HETATM   50  C   UNK N   1      24.769  11.193   5.568  0.00  0.00     0.134 C 
BRANCH  50  51
HETATM   51  N   UNK N   1      23.860  11.825   6.496  0.00  0.00    -0.336 N 
HETATM   52  C   UNK N   1      23.367  11.218   7.603  0.00  0.00     0.361 C 
HETATM   53  O   UNK N   1      23.674  10.071   7.865  0.00  0.00    -0.238 OA
HETATM   54  H   UNK N   1      23.584  12.753   6.314  0.00  0.00     0.164 HD
BRANCH  52  55
HETATM   55  O   UNK N   1      22.533  11.900   8.442  0.00  0.00    -0.294 OA
BRANCH  55  56
HETATM   56  C   UNK N   1      22.904  12.541   9.616  0.00  0.00     0.061 C 
HETATM   57  C   UNK N   1      24.287  13.161   9.484  0.00  0.00     0.046 C 
HETATM   58  C   UNK N   1      22.872  11.589  10.802  0.00  0.00     0.046 C 
HETATM   59  C   UNK N   1      21.918  13.656   9.890  0.00  0.00     0.046 C 
ENDBRANCH  55  56
ENDBRANCH  52  55
ENDBRANCH  50  51
ENDBRANCH  49  50
ENDBRANCH  46  49
ENDBRANCH  33  45
ENDBRANCH  30  33
ENDBRANCH   1  29
BRANCH   1  60
HETATM   60  C   UNK N   1      21.123  13.126   3.954  0.00  0.00     0.045 C 
BRANCH  60  61
HETATM   61  C   UNK N   1      20.530  13.561   2.633  0.00  0.00     0.076 C 
BRANCH  61  62
HETATM   62  S   UNK N   1      18.988  12.658   2.350  0.00  0.00    -0.173 SA
HETATM   63  C   UNK N   1      18.651  12.583   4.131  0.00  0.00     0.089 C 
ENDBRANCH  61  62
ENDBRANCH  60  61
ENDBRANCH   1  60
TORSDOF 23
ENDMDL
MODEL 9
REMARK VINA RESULT:      -6.9      2.661      5.597
REMARK  23 active torsions:
REMARK  status: ('A' for Active; 'I' for Inactive)
REMARK    1  A    between atoms: C_17  and  C_1 
REMARK    2  A    between atoms: C_2  and  C_8 
REMARK       I    between atoms: N_7  and  C_2 
REMARK    3  A    between atoms: C_3  and  C_12 
REMARK       I    between atoms: N_10  and  C_3 
REMARK    4  A    between atoms: C_4  and  C_20 
REMARK       I    between atoms: N_6  and  C_4 
REMARK    5  A    between atoms: C_8  and  N_6 
REMARK    6  A    between atoms: C_14  and  N_7 
REMARK    7  A    between atoms: C_8  and  C_11 
REMARK    8  A    between atoms: C_20  and  N_10 
REMARK    9  A    between atoms: C_21  and  C_11 
REMARK   10  A    between atoms: C_12  and  C_17 
REMARK   11  A    between atoms: N_18  and  C_12 
REMARK       I    between atoms: C_13  and  N_33 
REMARK   12  A    between atoms: O_23  and  C_13 
REMARK   13  A    between atoms: C_15  and  C_14 
REMARK   14  A    between atoms: C_14  and  C_28 
REMARK       I    between atoms: N_35  and  C_15 
REMARK       I    between atoms: C_19  and  N_18 
REMARK   15  A    between atoms: C_27  and  C_19 
REMARK   16  A    between atoms: C_20  and  C_37 
REMARK   17  A    between atoms: O_38  and  C_21 
REMARK   18  A    between atoms: C_34  and  O_23 
REMARK   19  A    between atoms: C_36  and  C_27 
REMARK   20  A    between atoms: C_39  and  C_28 
REMARK   21  A    between atoms: N_33  and  C_36 
REMARK   22  A    between atoms: C_42  and  C_37 
REMARK   23  A    between atoms: S_40  and  C_42 
ROOT
HETATM    1  C   UNK N   1      21.963  13.355   8.197  0.00  0.00     0.177 C 
ENDROOT
BRANCH   1   2
HETATM    2  C   UNK N   1      20.762  14.130   7.821  0.00  0.00     0.241 C 
HETATM    3  N   UNK N   1      20.896  14.875   6.698  0.00  0.00    -0.346 N 
HETATM    4  H   UNK N   1      21.504  14.533   6.002  0.00  0.00     0.163 HD
HETATM    5  O   UNK N   1      19.857  14.329   8.620  0.00  0.00    -0.271 OA
BRANCH   3   6
HETATM    6  C   UNK N   1      20.229  16.123   6.433  0.00  0.00     0.186 C 
BRANCH   6   7
HETATM    7  C   UNK N   1      19.816  16.226   4.990  0.00  0.00     0.241 C 
HETATM    8  N   UNK N   1      20.767  16.355   4.034  0.00  0.00    -0.346 N 
HETATM    9  H   UNK N   1      21.686  16.085   4.266  0.00  0.00     0.163 HD
HETATM   10  O   UNK N   1      18.631  16.300   4.707  0.00  0.00    -0.271 OA
BRANCH   8  11
HETATM   11  C   UNK N   1      20.536  16.856   2.699  0.00  0.00     0.180 C 
BRANCH  11  12
HETATM   12  C   UNK N   1      20.041  18.270   2.742  0.00  0.00     0.238 C 
HETATM   13  O   UNK N   1      20.752  19.131   3.231  0.00  0.00    -0.271 OA
HETATM   14  N   UNK N   1      18.774  18.572   2.399  0.00  0.00    -0.368 N 
HETATM   15  H   UNK N   1      17.827  18.406   2.190  0.00  0.00     0.159 HD
HETATM   16  H   UNK N   1      18.828  19.549   2.294  0.00  0.00     0.159 HD
ENDBRANCH  11  12
BRANCH  11  17
HETATM   17  C   UNK N   1      20.017  15.886   1.614  0.00  0.00     0.073 C 
BRANCH  17  18
HETATM   18  C   UNK N   1      20.839  14.697   1.204  0.00  0.00    -0.056 A 
HETATM   19  C   UNK N   1      22.234  14.693   1.343  0.00  0.00     0.007 A 
HETATM   20  C   UNK N   1      22.975  13.549   1.032  0.00  0.00     0.001 A 
HETATM   21  C   UNK N   1      22.320  12.388   0.611  0.00  0.00     0.000 A 
HETATM   22  C   UNK N   1      20.928  12.375   0.497  0.00  0.00     0.001 A 
HETATM   23  C   UNK N   1      20.189  13.527   0.793  0.00  0.00     0.007 A 
ENDBRANCH  17  18
ENDBRANCH  11  17
ENDBRANCH   8  11
ENDBRANCH   6   7
BRANCH   6  24
HETATM   24  C   UNK N   1      20.933  17.359   6.954  0.00  0.00     0.144 C 
BRANCH  24  25
HETATM   25  C   UNK N   1      20.167  17.904   8.115  0.00  0.00     0.141 C 
HETATM   26  O   UNK N   1      20.315  19.069   8.449  0.00  0.00    -0.650 OA
BRANCH  25  27
HETATM   27  O   UNK N   1      19.313  17.116   8.793  0.00  0.00    -0.776 OA
HETATM   28  H   UNK N   1      19.456  16.778   9.655  0.00  0.00     0.167 HD
ENDBRANCH  25  27
ENDBRANCH  24  25
ENDBRANCH   6  24
ENDBRANCH   3   6
ENDBRANCH   1   2
BRANCH   1  29
HETATM   29  N   UNK N   1      22.294  12.031   7.716  0.00  0.00    -0.346 N 
HETATM   30  C   UNK N   1      23.314  11.587   6.937  0.00  0.00     0.241 C 
HETATM   31  O   UNK N   1      23.770  10.491   7.200  0.00  0.00    -0.271 OA
HETATM   32  H   UNK N   1      21.670  11.326   8.005  0.00  0.00     0.163 HD
BRANCH  30  33
HETATM   33  C   UNK N   1      23.790  12.225   5.654  0.00  0.00     0.180 C 
BRANCH  33  34
HETATM   34  C   UNK N   1      23.822  11.394   4.379  0.00  0.00     0.075 C 
BRANCH  34  35
HETATM   35  C   UNK N   1      22.525  10.659   4.182  0.00  0.00    -0.028 A 
HETATM   36  C   UNK N   1      22.347   9.285   4.028  0.00  0.00     0.096 A 
HETATM   37  N   UNK N   1      21.023   9.012   3.887  0.00  0.00    -0.365 N 
HETATM   38  C   UNK N   1      20.390  10.197   3.945  0.00  0.00     0.042 A 
HETATM   39  H   UNK N   1      20.612   8.125   3.766  0.00  0.00     0.165 HD
HETATM   40  C   UNK N   1      21.276  11.216   4.128  0.00  0.00    -0.002 A 
HETATM   41  C   UNK N   1      19.020  10.426   3.832  0.00  0.00     0.030 A 
HETATM   42  C   UNK N   1      20.863  12.536   4.224  0.00  0.00     0.014 A 
HETATM   43  C   UNK N   1      19.490  12.811   4.105  0.00  0.00     0.001 A 
HETATM   44  C   UNK N   1      18.570  11.758   3.909  0.00  0.00     0.002 A 
ENDBRANCH  34  35
ENDBRANCH  33  34
BRANCH  33  45
HETATM   45  N   UNK N   1      25.002  12.972   5.901  0.00  0.00    -0.347 N 
HETATM   46  C   UNK N   1      25.132  14.294   5.594  0.00  0.00     0.219 C 
HETATM   47  O   UNK N   1      26.162  14.873   5.899  0.00  0.00    -0.274 OA
HETATM   48  H   UNK N   1      25.768  12.506   6.308  0.00  0.00     0.163 HD
BRANCH  46  49
HETATM   49  C   UNK N   1      24.070  15.077   4.852  0.00  0.00     0.122 C 
BRANCH  49  50
HETATM   50  C   UNK N   1      24.559  16.134   3.861  0.00  0.00     0.134 C 
BRANCH  50  51
HETATM   51  N   UNK N   1      25.370  17.155   4.482  0.00  0.00    -0.336 N 
HETATM   52  C   UNK N   1      24.915  18.391   4.801  0.00  0.00     0.361 C 
HETATM   53  O   UNK N   1      23.765  18.705   4.561  0.00  0.00    -0.238 OA
HETATM   54  H   UNK N   1      26.309  16.940   4.686  0.00  0.00     0.164 HD
BRANCH  52  55
HETATM   55  O   UNK N   1      25.744  19.288   5.412  0.00  0.00    -0.294 OA
BRANCH  55  56
HETATM   56  C   UNK N   1      26.752  20.017   4.797  0.00  0.00     0.061 C 
HETATM   57  C   UNK N   1      28.013  19.180   4.644  0.00  0.00     0.046 C 
HETATM   58  C   UNK N   1      27.064  21.292   5.566  0.00  0.00     0.046 C 
HETATM   59  C   UNK N   1      26.285  20.414   3.413  0.00  0.00     0.046 C 
ENDBRANCH  55  56
ENDBRANCH  52  55
ENDBRANCH  50  51
ENDBRANCH  49  50
ENDBRANCH  46  49
ENDBRANCH  33  45
ENDBRANCH  30  33
ENDBRANCH   1  29
BRANCH   1  60
HETATM   60  C   UNK N   1      22.165  13.461   9.695  0.00  0.00     0.045 C 
BRANCH  60  61
HETATM   61  C   UNK N   1      22.018  12.102  10.341  0.00  0.00     0.076 C 
BRANCH  61  62
HETATM   62  S   UNK N   1      23.210  11.958  11.695  0.00  0.00    -0.173 SA
HETATM   63  C   UNK N   1      24.598  12.262  10.567  0.00  0.00     0.089 C 
ENDBRANCH  61  62
ENDBRANCH  60  61
ENDBRANCH   1  60
TORSDOF 23
ENDMDL
