MODEL 1
REMARK VINA RESULT:      -8.6      0.000      0.000
REMARK WARNING: 32 MAX_TORS EXCEEDED!!!
REMARK  42 active torsions:
REMARK  status: ('A' for Active; 'I' for Inactive)
REMARK    1  A    between atoms: C_1  and  C_28 
REMARK    2  A    between atoms: C_3  and  C_2 
REMARK    3  A    between atoms: C_2  and  C_82 
REMARK    4  A    between atoms: C_3  and  C_47 
REMARK    5  A    between atoms: N_4  and  C_3 
REMARK       I    between atoms: C_5  and  N_4 
REMARK    6  A    between atoms: C_6  and  C_5 
REMARK    7  A    between atoms: N_7  and  C_6 
REMARK       I    between atoms: C_8  and  N_7 
REMARK    8  A    between atoms: C_9  and  C_8 
REMARK    9  A    between atoms: N_10  and  C_9 
REMARK   10  A    between atoms: C_42  and  C_9 
REMARK       I    between atoms: C_11  and  N_10 
REMARK   11  A    between atoms: C_12  and  C_11 
REMARK   12  A    between atoms: C_12  and  C_13 
REMARK   13  A    between atoms: N_21  and  C_12 
REMARK   14  A    between atoms: C_14  and  C_13 
REMARK   15  A    between atoms: O_20  and  C_17 
REMARK   16  A    between atoms: O_20  and  S_91 
REMARK       I    between atoms: C_22  and  N_21 
REMARK   17  A    between atoms: C_23  and  C_22 
REMARK   18  A    between atoms: C_23  and  C_36 
REMARK   19  A    between atoms: N_24  and  C_23 
REMARK       I    between atoms: C_25  and  N_24 
REMARK   20  A    between atoms: C_26  and  C_25 
REMARK   21  A    between atoms: N_27  and  C_26 
REMARK   22  A    between atoms: C_26  and  C_30 
REMARK       I    between atoms: C_28  and  N_27 
REMARK   23  A    between atoms: C_31  and  C_30 
REMARK   24  A    between atoms: C_32  and  C_31 
REMARK       I    between atoms: N_33  and  C_32 
REMARK   25  A    between atoms: C_37  and  C_36 
REMARK   26  A    between atoms: O_39  and  C_37 
REMARK   27  A    between atoms: C_42  and  O_44 
REMARK       I    between atoms: N_48  and  C_47 
REMARK   28  A    between atoms: C_50  and  N_48 
REMARK   29  A    between atoms: C_51  and  C_50 
REMARK   30  A    between atoms: C_55  and  C_50 
REMARK   31  A    between atoms: C_52  and  C_51 
REMARK   32  A    between atoms: S_53  and  C_52 
REMARK       I    between atoms: N_56  and  C_55 
REMARK   33  A    between atoms: C_57  and  N_56 
REMARK   34  A    between atoms: C_58  and  C_57 
REMARK   35  A    between atoms: C_57  and  C_62 
REMARK   36  A    between atoms: C_59  and  C_58 
REMARK   37  A    between atoms: O_60  and  C_59 
REMARK       I    between atoms: N_65  and  C_62 
REMARK   38  A    between atoms: C_66  and  N_65 
REMARK   39  A    between atoms: C_67  and  C_66 
REMARK   40  A    between atoms: C_68  and  C_66 
REMARK   41  A    between atoms: C_71  and  C_67 
REMARK       I    between atoms: N_70  and  C_68 
REMARK   42  A    between atoms: S_91  and  O_92 
ROOT
HETATM    1  N   UNK N   1      30.246  17.026   6.306  0.00  0.00    -0.350 N 
HETATM    2  C   UNK N   1      29.129  17.566   6.738  0.00  0.00     0.243 C 
HETATM    3  O   UNK N   1      28.861  18.689   6.350  0.00  0.00    -0.271 OA
HETATM    4  H   UNK N   1      30.479  17.019   5.349  0.00  0.00     0.163 HD
ENDROOT
BRANCH   2   5
HETATM    5  C   UNK N   1      28.175  16.759   7.605  0.00  0.00     0.205 C 
BRANCH   5   6
HETATM    6  N   UNK N   1      27.047  16.485   6.747  0.00  0.00    -0.344 N 
HETATM    7  C   UNK N   1      27.025  15.393   5.957  0.00  0.00     0.241 C 
HETATM    8  O   UNK N   1      28.055  14.787   5.708  0.00  0.00    -0.271 OA
HETATM    9  H   UNK N   1      26.282  17.105   6.739  0.00  0.00     0.163 HD
BRANCH   7  10
HETATM   10  C   UNK N   1      25.744  14.871   5.438  0.00  0.00     0.180 C 
BRANCH  10  11
HETATM   11  C   UNK N   1      25.252  15.681   4.213  0.00  0.00     0.073 C 
BRANCH  11  12
HETATM   12  C   UNK N   1      24.535  14.891   3.127  0.00  0.00    -0.056 A 
HETATM   13  C   UNK N   1      23.523  13.959   3.418  0.00  0.00     0.010 A 
HETATM   14  C   UNK N   1      22.969  13.168   2.401  0.00  0.00     0.039 A 
HETATM   15  C   UNK N   1      23.405  13.310   1.075  0.00  0.00     0.091 A 
HETATM   16  C   UNK N   1      24.368  14.278   0.774  0.00  0.00     0.039 A 
HETATM   17  C   UNK N   1      24.937  15.054   1.794  0.00  0.00     0.010 A 
BRANCH  15  18
HETATM   18  O   UNK N   1      22.951  12.501   0.089  0.00  0.00    -0.221 OA
BRANCH  18  19
HETATM   19  S   UNK N   1      23.404  10.861  -0.004  0.00  0.00     0.245 S 
HETATM   20  O   UNK N   1      24.798  10.766   0.619  0.00  0.00    -0.579 OA
HETATM   21  O   UNK N   1      22.514   9.981   0.888  0.00  0.00    -0.579 OA
BRANCH  19  22
HETATM   22  O   UNK N   1      23.516  10.201  -1.585  0.00  0.00    -0.273 OA
HETATM   23  H   UNK N   1      23.147  10.663  -2.353  0.00  0.00     0.234 HD
ENDBRANCH  19  22
ENDBRANCH  18  19
ENDBRANCH  15  18
ENDBRANCH  11  12
ENDBRANCH  10  11
BRANCH  10  24
HETATM   24  N   UNK N   1      24.865  14.925   6.570  0.00  0.00    -0.346 N 
HETATM   25  C   UNK N   1      24.478  13.842   7.307  0.00  0.00     0.241 C 
HETATM   26  O   UNK N   1      25.119  12.799   7.298  0.00  0.00    -0.271 OA
HETATM   27  H   UNK N   1      24.516  15.807   6.836  0.00  0.00     0.163 HD
BRANCH  25  28
HETATM   28  C   UNK N   1      23.178  13.911   8.037  0.00  0.00     0.186 C 
BRANCH  28  29
HETATM   29  C   UNK N   1      23.369  13.167   9.380  0.00  0.00     0.144 C 
BRANCH  29  30
HETATM   30  C   UNK N   1      22.114  12.893  10.177  0.00  0.00     0.141 C 
HETATM   31  O   UNK N   1      21.197  13.695  10.143  0.00  0.00    -0.650 OA
BRANCH  30  32
HETATM   32  O   UNK N   1      21.991  11.772  10.916  0.00  0.00    -0.776 OA
HETATM   33  H   UNK N   1      22.135  10.847  10.893  0.00  0.00     0.167 HD
ENDBRANCH  30  32
ENDBRANCH  29  30
ENDBRANCH  28  29
BRANCH  28  34
HETATM   34  N   UNK N   1      22.164  13.268   7.231  0.00  0.00    -0.346 N 
HETATM   35  C   UNK N   1      21.223  13.959   6.532  0.00  0.00     0.241 C 
HETATM   36  O   UNK N   1      20.498  13.348   5.766  0.00  0.00    -0.271 OA
HETATM   37  H   UNK N   1      22.153  12.285   7.185  0.00  0.00     0.163 HD
BRANCH  35  38
HETATM   38  C   UNK N   1      20.975  15.441   6.738  0.00  0.00     0.177 C 
BRANCH  38  39
HETATM   39  N   UNK N   1      20.911  16.076   5.458  0.00  0.00    -0.346 N 
HETATM   40  C   UNK N   1      21.885  16.930   5.091  0.00  0.00     0.241 C 
HETATM   41  O   UNK N   1      22.753  17.251   5.893  0.00  0.00    -0.271 OA
HETATM   42  H   UNK N   1      20.160  15.889   4.850  0.00  0.00     0.163 HD
BRANCH  40  43
HETATM   43  C   UNK N   1      21.939  17.418   3.678  0.00  0.00     0.177 C 
HETATM   44  N   UNK N   1      20.612  17.411   3.139  0.00  0.00    -0.348 N 
HETATM   45  C   UNK N   1      20.117  18.642   3.039  0.00  0.00     0.218 C 
HETATM   46  H   UNK N   1      20.125  16.597   2.875  0.00  0.00     0.163 HD
HETATM   47  C   UNK N   1      21.047  19.711   3.447  0.00  0.00     0.105 C 
HETATM   48  O   UNK N   1      18.972  18.851   2.675  0.00  0.00    -0.274 OA
HETATM   49  C   UNK N   1      22.331  18.910   3.704  0.00  0.00     0.044 C 
ENDBRANCH  40  43
ENDBRANCH  38  39
BRANCH  38  50
HETATM   50  C   UNK N   1      19.812  15.924   7.589  0.00  0.00     0.044 C 
BRANCH  50  51
HETATM   51  C   UNK N   1      20.246  16.839   8.716  0.00  0.00     0.105 C 
BRANCH  51  52
HETATM   52  C   UNK N   1      19.085  17.698   9.105  0.00  0.00     0.215 C 
HETATM   53  N   UNK N   1      19.296  18.873   9.732  0.00  0.00    -0.370 N 
HETATM   54  H   UNK N   1      20.065  19.473   9.599  0.00  0.00     0.159 HD
HETATM   55  H   UNK N   1      18.615  19.158  10.384  0.00  0.00     0.159 HD
HETATM   56  O   UNK N   1      17.947  17.338   8.857  0.00  0.00    -0.274 OA
ENDBRANCH  51  52
ENDBRANCH  50  51
ENDBRANCH  38  50
ENDBRANCH  35  38
ENDBRANCH  28  34
ENDBRANCH  25  28
ENDBRANCH  10  24
ENDBRANCH   7  10
ENDBRANCH   5   6
BRANCH   5  57
HETATM   57  C   UNK N   1      27.854  17.394   8.981  0.00  0.00     0.146 C 
HETATM   58  C   UNK N   1      28.965  18.306   9.468  0.00  0.00     0.042 C 
BRANCH  57  59
HETATM   59  O   UNK N   1      27.504  16.485   9.976  0.00  0.00    -0.393 OA
HETATM   60  H   UNK N   1      27.620  15.662  10.477  0.00  0.00     0.210 HD
ENDBRANCH  57  59
ENDBRANCH   5  57
ENDBRANCH   2   5
BRANCH   1  61
HETATM   61  C   UNK N   1      31.086  16.465   7.269  0.00  0.00     0.225 C 
BRANCH  61  62
HETATM   62  C   UNK N   1      32.244  17.402   7.244  0.00  0.00     0.236 C 
HETATM   63  N   UNK N   1      33.198  17.224   6.320  0.00  0.00    -0.346 N 
HETATM   64  H   UNK N   1      33.826  17.941   6.077  0.00  0.00     0.163 HD
HETATM   65  O   UNK N   1      32.289  18.358   8.006  0.00  0.00    -0.272 OA
BRANCH  63  66
HETATM   66  C   UNK N   1      33.251  15.932   5.708  0.00  0.00     0.181 C 
BRANCH  66  67
HETATM   67  C   UNK N   1      33.175  16.021   4.195  0.00  0.00     0.075 C 
BRANCH  67  68
HETATM   68  C   UNK N   1      32.344  14.984   3.550  0.00  0.00    -0.028 A 
HETATM   69  C   UNK N   1      32.706  13.659   3.331  0.00  0.00     0.096 A 
HETATM   70  N   UNK N   1      31.669  12.996   2.776  0.00  0.00    -0.365 N 
HETATM   71  C   UNK N   1      30.666  13.898   2.658  0.00  0.00     0.042 A 
HETATM   72  H   UNK N   1      31.646  12.049   2.511  0.00  0.00     0.165 HD
HETATM   73  C   UNK N   1      31.060  15.116   3.124  0.00  0.00    -0.002 A 
HETATM   74  C   UNK N   1      29.395  13.668   2.163  0.00  0.00     0.030 A 
HETATM   75  C   UNK N   1      30.194  16.214   3.131  0.00  0.00     0.014 A 
HETATM   76  C   UNK N   1      28.893  16.019   2.635  0.00  0.00     0.001 A 
HETATM   77  C   UNK N   1      28.494  14.751   2.152  0.00  0.00     0.002 A 
ENDBRANCH  67  68
ENDBRANCH  66  67
BRANCH  66  78
HETATM   78  C   UNK N   1      34.374  15.250   6.428  0.00  0.00     0.241 C 
HETATM   79  N   UNK N   1      34.178  13.976   6.891  0.00  0.00    -0.346 N 
HETATM   80  H   UNK N   1      33.503  13.448   6.404  0.00  0.00     0.163 HD
HETATM   81  O   UNK N   1      35.286  15.947   6.829  0.00  0.00    -0.271 OA
BRANCH  79  82
HETATM   82  C   UNK N   1      34.830  13.286   8.009  0.00  0.00     0.177 C 
BRANCH  82  83
HETATM   83  C   UNK N   1      35.709  12.168   7.403  0.00  0.00     0.045 C 
BRANCH  83  84
HETATM   84  C   UNK N   1      37.048  11.993   8.126  0.00  0.00     0.076 C 
BRANCH  84  85
HETATM   85  S   UNK N   1      37.866  13.575   8.456  0.00  0.00    -0.173 SA
HETATM   86  C   UNK N   1      38.347  13.768   6.715  0.00  0.00     0.089 C 
ENDBRANCH  84  85
ENDBRANCH  83  84
ENDBRANCH  82  83
BRANCH  82  87
HETATM   87  C   UNK N   1      33.862  12.735   9.060  0.00  0.00     0.241 C 
HETATM   88  N   UNK N   1      33.944  13.086  10.365  0.00  0.00    -0.346 N 
HETATM   89  H   UNK N   1      33.281  12.704  10.984  0.00  0.00     0.163 HD
HETATM   90  O   UNK N   1      32.999  11.933   8.731  0.00  0.00    -0.271 OA
BRANCH  88  91
HETATM   91  C   UNK N   1      34.935  13.980  10.913  0.00  0.00     0.186 C 
BRANCH  91  92
HETATM   92  C   UNK N   1      34.347  15.393  10.863  0.00  0.00     0.144 C 
BRANCH  92  93
HETATM   93  C   UNK N   1      35.296  16.427  10.340  0.00  0.00     0.141 C 
HETATM   94  O   UNK N   1      36.476  16.397  10.645  0.00  0.00    -0.650 OA
BRANCH  93  95
HETATM   95  O   UNK N   1      34.826  17.439   9.589  0.00  0.00    -0.776 OA
HETATM   96  H   UNK N   1      33.909  17.609   9.505  0.00  0.00     0.167 HD
ENDBRANCH  93  95
ENDBRANCH  92  93
ENDBRANCH  91  92
BRANCH  91  97
HETATM   97  C   UNK N   1      35.272  13.542  12.299  0.00  0.00     0.241 C 
HETATM   98  O   UNK N   1      35.569  14.373  13.145  0.00  0.00    -0.271 OA
HETATM   99  N   UNK N   1      35.266  12.222  12.588  0.00  0.00    -0.346 N 
HETATM  100  H   UNK N   1      35.057  11.601  11.852  0.00  0.00     0.163 HD
BRANCH  99 101
HETATM  101  C   UNK N   1      35.539  11.648  13.879  0.00  0.00     0.180 C 
BRANCH 101 102
HETATM  102  C   UNK N   1      34.417  11.530  14.920  0.00  0.00     0.073 C 
BRANCH 102 103
HETATM  103  C   UNK N   1      34.820  11.866  16.320  0.00  0.00    -0.056 A 
HETATM  104  C   UNK N   1      34.798  13.199  16.748  0.00  0.00     0.007 A 
HETATM  105  C   UNK N   1      35.105  13.516  18.076  0.00  0.00     0.001 A 
HETATM  106  C   UNK N   1      35.419  12.498  18.982  0.00  0.00     0.000 A 
HETATM  107  C   UNK N   1      35.432  11.165  18.558  0.00  0.00     0.001 A 
HETATM  108  C   UNK N   1      35.129  10.850  17.230  0.00  0.00     0.007 A 
ENDBRANCH 102 103
ENDBRANCH 101 102
BRANCH 101 109
HETATM  109  C   UNK N   1      36.993  11.490  14.199  0.00  0.00     0.238 C 
HETATM  110  O   UNK N   1      37.538  10.408  14.063  0.00  0.00    -0.271 OA
HETATM  111  N   UNK N   1      37.720  12.561  14.583  0.00  0.00    -0.368 N 
HETATM  112  H   UNK N   1      37.475  13.453  14.923  0.00  0.00     0.159 HD
HETATM  113  H   UNK N   1      38.691  12.423  14.509  0.00  0.00     0.159 HD
ENDBRANCH 101 109
ENDBRANCH  99 101
ENDBRANCH  91  97
ENDBRANCH  88  91
ENDBRANCH  82  87
ENDBRANCH  79  82
ENDBRANCH  66  78
ENDBRANCH  63  66
ENDBRANCH  61  62
ENDBRANCH   1  61
TORSDOF 42
ENDMDL
MODEL 2
REMARK VINA RESULT:      -8.0      2.778      5.140
REMARK WARNING: 32 MAX_TORS EXCEEDED!!!
REMARK  42 active torsions:
REMARK  status: ('A' for Active; 'I' for Inactive)
REMARK    1  A    between atoms: C_1  and  C_28 
REMARK    2  A    between atoms: C_3  and  C_2 
REMARK    3  A    between atoms: C_2  and  C_82 
REMARK    4  A    between atoms: C_3  and  C_47 
REMARK    5  A    between atoms: N_4  and  C_3 
REMARK       I    between atoms: C_5  and  N_4 
REMARK    6  A    between atoms: C_6  and  C_5 
REMARK    7  A    between atoms: N_7  and  C_6 
REMARK       I    between atoms: C_8  and  N_7 
REMARK    8  A    between atoms: C_9  and  C_8 
REMARK    9  A    between atoms: N_10  and  C_9 
REMARK   10  A    between atoms: C_42  and  C_9 
REMARK       I    between atoms: C_11  and  N_10 
REMARK   11  A    between atoms: C_12  and  C_11 
REMARK   12  A    between atoms: C_12  and  C_13 
REMARK   13  A    between atoms: N_21  and  C_12 
REMARK   14  A    between atoms: C_14  and  C_13 
REMARK   15  A    between atoms: O_20  and  C_17 
REMARK   16  A    between atoms: O_20  and  S_91 
REMARK       I    between atoms: C_22  and  N_21 
REMARK   17  A    between atoms: C_23  and  C_22 
REMARK   18  A    between atoms: C_23  and  C_36 
REMARK   19  A    between atoms: N_24  and  C_23 
REMARK       I    between atoms: C_25  and  N_24 
REMARK   20  A    between atoms: C_26  and  C_25 
REMARK   21  A    between atoms: N_27  and  C_26 
REMARK   22  A    between atoms: C_26  and  C_30 
REMARK       I    between atoms: C_28  and  N_27 
REMARK   23  A    between atoms: C_31  and  C_30 
REMARK   24  A    between atoms: C_32  and  C_31 
REMARK       I    between atoms: N_33  and  C_32 
REMARK   25  A    between atoms: C_37  and  C_36 
REMARK   26  A    between atoms: O_39  and  C_37 
REMARK   27  A    between atoms: C_42  and  O_44 
REMARK       I    between atoms: N_48  and  C_47 
REMARK   28  A    between atoms: C_50  and  N_48 
REMARK   29  A    between atoms: C_51  and  C_50 
REMARK   30  A    between atoms: C_55  and  C_50 
REMARK   31  A    between atoms: C_52  and  C_51 
REMARK   32  A    between atoms: S_53  and  C_52 
REMARK       I    between atoms: N_56  and  C_55 
REMARK   33  A    between atoms: C_57  and  N_56 
REMARK   34  A    between atoms: C_58  and  C_57 
REMARK   35  A    between atoms: C_57  and  C_62 
REMARK   36  A    between atoms: C_59  and  C_58 
REMARK   37  A    between atoms: O_60  and  C_59 
REMARK       I    between atoms: N_65  and  C_62 
REMARK   38  A    between atoms: C_66  and  N_65 
REMARK   39  A    between atoms: C_67  and  C_66 
REMARK   40  A    between atoms: C_68  and  C_66 
REMARK   41  A    between atoms: C_71  and  C_67 
REMARK       I    between atoms: N_70  and  C_68 
REMARK   42  A    between atoms: S_91  and  O_92 
ROOT
HETATM    1  N   UNK N   1      28.023  14.661   3.018  0.00  0.00    -0.350 N 
HETATM    2  C   UNK N   1      26.986  15.468   2.998  0.00  0.00     0.243 C 
HETATM    3  O   UNK N   1      26.459  15.677   1.920  0.00  0.00    -0.271 OA
HETATM    4  H   UNK N   1      27.999  13.779   2.579  0.00  0.00     0.163 HD
ENDROOT
BRANCH   2   5
HETATM    5  C   UNK N   1      26.424  16.023   4.297  0.00  0.00     0.205 C 
BRANCH   5   6
HETATM    6  N   UNK N   1      25.390  15.089   4.674  0.00  0.00    -0.344 N 
HETATM    7  C   UNK N   1      25.110  14.850   5.971  0.00  0.00     0.241 C 
HETATM    8  O   UNK N   1      25.903  15.160   6.844  0.00  0.00    -0.271 OA
HETATM    9  H   UNK N   1      24.882  14.620   3.973  0.00  0.00     0.163 HD
BRANCH   7  10
HETATM   10  C   UNK N   1      23.806  14.273   6.360  0.00  0.00     0.180 C 
BRANCH  10  11
HETATM   11  C   UNK N   1      23.367  13.150   5.388  0.00  0.00     0.073 C 
BRANCH  11  12
HETATM   12  C   UNK N   1      23.624  11.722   5.849  0.00  0.00    -0.056 A 
HETATM   13  C   UNK N   1      23.360  11.295   7.163  0.00  0.00     0.010 A 
HETATM   14  C   UNK N   1      23.720  10.006   7.580  0.00  0.00     0.039 A 
HETATM   15  C   UNK N   1      24.329   9.115   6.683  0.00  0.00     0.091 A 
HETATM   16  C   UNK N   1      24.537   9.515   5.360  0.00  0.00     0.039 A 
HETATM   17  C   UNK N   1      24.198  10.812   4.949  0.00  0.00     0.010 A 
BRANCH  15  18
HETATM   18  O   UNK N   1      24.764   7.896   7.081  0.00  0.00    -0.221 OA
BRANCH  18  19
HETATM   19  S   UNK N   1      23.714   6.558   7.178  0.00  0.00     0.245 S 
HETATM   20  O   UNK N   1      22.330   7.070   6.772  0.00  0.00    -0.579 OA
HETATM   21  O   UNK N   1      24.063   5.493   6.127  0.00  0.00    -0.579 OA
BRANCH  19  22
HETATM   22  O   UNK N   1      23.548   5.844   8.731  0.00  0.00    -0.273 OA
HETATM   23  H   UNK N   1      22.927   5.116   8.889  0.00  0.00     0.234 HD
ENDBRANCH  19  22
ENDBRANCH  18  19
ENDBRANCH  15  18
ENDBRANCH  11  12
ENDBRANCH  10  11
BRANCH  10  24
HETATM   24  N   UNK N   1      22.923  15.402   6.390  0.00  0.00    -0.346 N 
HETATM   25  C   UNK N   1      21.805  15.495   7.171  0.00  0.00     0.241 C 
HETATM   26  O   UNK N   1      21.656  14.794   8.163  0.00  0.00    -0.271 OA
HETATM   27  H   UNK N   1      23.138  16.167   5.808  0.00  0.00     0.163 HD
BRANCH  25  28
HETATM   28  C   UNK N   1      20.699  16.389   6.718  0.00  0.00     0.186 C 
BRANCH  28  29
HETATM   29  C   UNK N   1      20.090  17.038   7.983  0.00  0.00     0.144 C 
BRANCH  29  30
HETATM   30  C   UNK N   1      18.843  16.384   8.536  0.00  0.00     0.141 C 
HETATM   31  O   UNK N   1      17.750  16.838   8.242  0.00  0.00    -0.650 OA
BRANCH  30  32
HETATM   32  O   UNK N   1      18.922  15.305   9.339  0.00  0.00    -0.776 OA
HETATM   33  H   UNK N   1      18.751  15.015  10.214  0.00  0.00     0.167 HD
ENDBRANCH  30  32
ENDBRANCH  29  30
ENDBRANCH  28  29
BRANCH  28  34
HETATM   34  N   UNK N   1      19.715  15.587   6.024  0.00  0.00    -0.346 N 
HETATM   35  C   UNK N   1      19.589  15.573   4.670  0.00  0.00     0.241 C 
HETATM   36  O   UNK N   1      18.834  14.764   4.160  0.00  0.00    -0.271 OA
HETATM   37  H   UNK N   1      19.107  15.025   6.556  0.00  0.00     0.163 HD
BRANCH  35  38
HETATM   38  C   UNK N   1      20.277  16.586   3.775  0.00  0.00     0.177 C 
BRANCH  38  39
HETATM   39  N   UNK N   1      20.679  15.932   2.568  0.00  0.00    -0.346 N 
HETATM   40  C   UNK N   1      21.960  15.545   2.418  0.00  0.00     0.241 C 
HETATM   41  O   UNK N   1      22.797  15.860   3.255  0.00  0.00    -0.271 OA
HETATM   42  H   UNK N   1      20.024  15.764   1.853  0.00  0.00     0.163 HD
BRANCH  40  43
HETATM   43  C   UNK N   1      22.332  14.668   1.265  0.00  0.00     0.177 C 
HETATM   44  N   UNK N   1      23.720  14.331   1.373  0.00  0.00    -0.348 N 
HETATM   45  C   UNK N   1      23.890  13.071   1.767  0.00  0.00     0.218 C 
HETATM   46  H   UNK N   1      24.458  14.954   1.181  0.00  0.00     0.163 HD
HETATM   47  C   UNK N   1      22.638  12.312   1.944  0.00  0.00     0.105 C 
HETATM   48  O   UNK N   1      24.995  12.608   1.993  0.00  0.00    -0.274 OA
HETATM   49  C   UNK N   1      21.600  13.321   1.436  0.00  0.00     0.044 C 
ENDBRANCH  40  43
ENDBRANCH  38  39
BRANCH  38  50
HETATM   50  C   UNK N   1      19.597  17.900   3.422  0.00  0.00     0.044 C 
BRANCH  50  51
HETATM   51  C   UNK N   1      20.403  18.738   2.451  0.00  0.00     0.105 C 
BRANCH  51  52
HETATM   52  C   UNK N   1      20.669  20.069   3.078  0.00  0.00     0.215 C 
HETATM   53  N   UNK N   1      20.930  21.141   2.303  0.00  0.00    -0.370 N 
HETATM   54  H   UNK N   1      20.557  21.315   1.408  0.00  0.00     0.159 HD
HETATM   55  H   UNK N   1      21.550  21.813   2.666  0.00  0.00     0.159 HD
HETATM   56  O   UNK N   1      20.652  20.188   4.292  0.00  0.00    -0.274 OA
ENDBRANCH  51  52
ENDBRANCH  50  51
ENDBRANCH  38  50
ENDBRANCH  35  38
ENDBRANCH  28  34
ENDBRANCH  25  28
ENDBRANCH  10  24
ENDBRANCH   7  10
ENDBRANCH   5   6
BRANCH   5  57
HETATM   57  C   UNK N   1      26.015  17.516   4.242  0.00  0.00     0.146 C 
HETATM   58  C   UNK N   1      27.189  18.423   3.923  0.00  0.00     0.042 C 
BRANCH  57  59
HETATM   59  O   UNK N   1      25.340  17.979   5.369  0.00  0.00    -0.393 OA
HETATM   60  H   UNK N   1      25.217  18.074   6.326  0.00  0.00     0.210 HD
ENDBRANCH  57  59
ENDBRANCH   5  57
ENDBRANCH   2   5
BRANCH   1  61
HETATM   61  C   UNK N   1      29.159  15.114   3.691  0.00  0.00     0.225 C 
BRANCH  61  62
HETATM   62  C   UNK N   1      29.200  14.200   4.866  0.00  0.00     0.236 C 
HETATM   63  N   UNK N   1      30.245  14.270   5.702  0.00  0.00    -0.346 N 
HETATM   64  H   UNK N   1      30.206  13.905   6.614  0.00  0.00     0.163 HD
HETATM   65  O   UNK N   1      28.264  13.450   5.105  0.00  0.00    -0.272 OA
BRANCH  63  66
HETATM   66  C   UNK N   1      31.420  14.906   5.191  0.00  0.00     0.181 C 
BRANCH  66  67
HETATM   67  C   UNK N   1      31.376  16.411   5.380  0.00  0.00     0.075 C 
BRANCH  67  68
HETATM   68  C   UNK N   1      31.298  16.861   6.784  0.00  0.00    -0.028 A 
HETATM   69  C   UNK N   1      32.369  17.024   7.656  0.00  0.00     0.096 A 
HETATM   70  N   UNK N   1      31.921  17.508   8.833  0.00  0.00    -0.365 N 
HETATM   71  C   UNK N   1      30.582  17.654   8.694  0.00  0.00     0.042 A 
HETATM   72  H   UNK N   1      32.458  17.715   9.632  0.00  0.00     0.165 HD
HETATM   73  C   UNK N   1      30.184  17.264   7.451  0.00  0.00    -0.002 A 
HETATM   74  C   UNK N   1      29.697  18.146   9.637  0.00  0.00     0.030 A 
HETATM   75  C   UNK N   1      28.846  17.339   7.052  0.00  0.00     0.014 A 
HETATM   76  C   UNK N   1      27.916  17.832   7.983  0.00  0.00     0.001 A 
HETATM   77  C   UNK N   1      28.339  18.235   9.271  0.00  0.00     0.002 A 
ENDBRANCH  67  68
ENDBRANCH  66  67
BRANCH  66  78
HETATM   78  C   UNK N   1      32.535  14.053   5.715  0.00  0.00     0.241 C 
HETATM   79  N   UNK N   1      32.322  13.322   6.853  0.00  0.00    -0.346 N 
HETATM   80  H   UNK N   1      31.384  13.083   7.033  0.00  0.00     0.163 HD
HETATM   81  O   UNK N   1      33.653  14.272   5.291  0.00  0.00    -0.271 OA
BRANCH  79  82
HETATM   82  C   UNK N   1      33.294  12.845   7.843  0.00  0.00     0.177 C 
BRANCH  82  83
HETATM   83  C   UNK N   1      34.371  13.944   7.990  0.00  0.00     0.045 C 
BRANCH  83  84
HETATM   84  C   UNK N   1      35.072  13.927   9.351  0.00  0.00     0.076 C 
BRANCH  84  85
HETATM   85  S   UNK N   1      34.256  15.003  10.560  0.00  0.00    -0.173 SA
HETATM   86  C   UNK N   1      35.760  15.997  10.791  0.00  0.00     0.089 C 
ENDBRANCH  84  85
ENDBRANCH  83  84
ENDBRANCH  82  83
BRANCH  82  87
HETATM   87  C   UNK N   1      33.918  11.486   7.508  0.00  0.00     0.241 C 
HETATM   88  N   UNK N   1      33.775  10.412   8.321  0.00  0.00    -0.346 N 
HETATM   89  H   UNK N   1      34.191   9.567   8.038  0.00  0.00     0.163 HD
HETATM   90  O   UNK N   1      34.589  11.358   6.495  0.00  0.00    -0.271 OA
BRANCH  88  91
HETATM   91  C   UNK N   1      33.056  10.421   9.571  0.00  0.00     0.186 C 
BRANCH  91  92
HETATM   92  C   UNK N   1      31.905   9.419   9.439  0.00  0.00     0.144 C 
BRANCH  92  93
HETATM   93  C   UNK N   1      31.777   8.817   8.073  0.00  0.00     0.141 C 
HETATM   94  O   UNK N   1      32.528   7.925   7.715  0.00  0.00    -0.650 OA
BRANCH  93  95
HETATM   95  O   UNK N   1      30.875   9.317   7.211  0.00  0.00    -0.776 OA
HETATM   96  H   UNK N   1      30.812  10.235   7.036  0.00  0.00     0.167 HD
ENDBRANCH  93  95
ENDBRANCH  92  93
ENDBRANCH  91  92
BRANCH  91  97
HETATM   97  C   UNK N   1      33.998  10.077  10.676  0.00  0.00     0.241 C 
HETATM   98  O   UNK N   1      34.669   9.057  10.611  0.00  0.00    -0.271 OA
HETATM   99  N   UNK N   1      34.074  10.896  11.749  0.00  0.00    -0.346 N 
HETATM  100  H   UNK N   1      33.478  11.680  11.760  0.00  0.00     0.163 HD
BRANCH  99 101
HETATM  101  C   UNK N   1      34.951  10.716  12.877  0.00  0.00     0.180 C 
BRANCH 101 102
HETATM  102  C   UNK N   1      34.401  10.161  14.197  0.00  0.00     0.073 C 
BRANCH 102 103
HETATM  103  C   UNK N   1      34.630  11.032  15.390  0.00  0.00    -0.056 A 
HETATM  104  C   UNK N   1      35.301  10.519  16.507  0.00  0.00     0.007 A 
HETATM  105  C   UNK N   1      35.583  11.346  17.600  0.00  0.00     0.001 A 
HETATM  106  C   UNK N   1      35.207  12.692  17.571  0.00  0.00     0.000 A 
HETATM  107  C   UNK N   1      34.545  13.209  16.453  0.00  0.00     0.001 A 
HETATM  108  C   UNK N   1      34.260  12.381  15.363  0.00  0.00     0.007 A 
ENDBRANCH 102 103
ENDBRANCH 101 102
BRANCH 101 109
HETATM  109  C   UNK N   1      36.285  11.384  12.743  0.00  0.00     0.238 C 
HETATM  110  O   UNK N   1      37.300  10.716  12.651  0.00  0.00    -0.271 OA
HETATM  111  N   UNK N   1      36.361  12.730  12.667  0.00  0.00    -0.368 N 
HETATM  112  H   UNK N   1      35.730  13.453  12.890  0.00  0.00     0.159 HD
HETATM  113  H   UNK N   1      37.222  13.054  12.317  0.00  0.00     0.159 HD
ENDBRANCH 101 109
ENDBRANCH  99 101
ENDBRANCH  91  97
ENDBRANCH  88  91
ENDBRANCH  82  87
ENDBRANCH  79  82
ENDBRANCH  66  78
ENDBRANCH  63  66
ENDBRANCH  61  62
ENDBRANCH   1  61
TORSDOF 42
ENDMDL
MODEL 3
REMARK VINA RESULT:      -7.9      3.461     13.331
REMARK WARNING: 32 MAX_TORS EXCEEDED!!!
REMARK  42 active torsions:
REMARK  status: ('A' for Active; 'I' for Inactive)
REMARK    1  A    between atoms: C_1  and  C_28 
REMARK    2  A    between atoms: C_3  and  C_2 
REMARK    3  A    between atoms: C_2  and  C_82 
REMARK    4  A    between atoms: C_3  and  C_47 
REMARK    5  A    between atoms: N_4  and  C_3 
REMARK       I    between atoms: C_5  and  N_4 
REMARK    6  A    between atoms: C_6  and  C_5 
REMARK    7  A    between atoms: N_7  and  C_6 
REMARK       I    between atoms: C_8  and  N_7 
REMARK    8  A    between atoms: C_9  and  C_8 
REMARK    9  A    between atoms: N_10  and  C_9 
REMARK   10  A    between atoms: C_42  and  C_9 
REMARK       I    between atoms: C_11  and  N_10 
REMARK   11  A    between atoms: C_12  and  C_11 
REMARK   12  A    between atoms: C_12  and  C_13 
REMARK   13  A    between atoms: N_21  and  C_12 
REMARK   14  A    between atoms: C_14  and  C_13 
REMARK   15  A    between atoms: O_20  and  C_17 
REMARK   16  A    between atoms: O_20  and  S_91 
REMARK       I    between atoms: C_22  and  N_21 
REMARK   17  A    between atoms: C_23  and  C_22 
REMARK   18  A    between atoms: C_23  and  C_36 
REMARK   19  A    between atoms: N_24  and  C_23 
REMARK       I    between atoms: C_25  and  N_24 
REMARK   20  A    between atoms: C_26  and  C_25 
REMARK   21  A    between atoms: N_27  and  C_26 
REMARK   22  A    between atoms: C_26  and  C_30 
REMARK       I    between atoms: C_28  and  N_27 
REMARK   23  A    between atoms: C_31  and  C_30 
REMARK   24  A    between atoms: C_32  and  C_31 
REMARK       I    between atoms: N_33  and  C_32 
REMARK   25  A    between atoms: C_37  and  C_36 
REMARK   26  A    between atoms: O_39  and  C_37 
REMARK   27  A    between atoms: C_42  and  O_44 
REMARK       I    between atoms: N_48  and  C_47 
REMARK   28  A    between atoms: C_50  and  N_48 
REMARK   29  A    between atoms: C_51  and  C_50 
REMARK   30  A    between atoms: C_55  and  C_50 
REMARK   31  A    between atoms: C_52  and  C_51 
REMARK   32  A    between atoms: S_53  and  C_52 
REMARK       I    between atoms: N_56  and  C_55 
REMARK   33  A    between atoms: C_57  and  N_56 
REMARK   34  A    between atoms: C_58  and  C_57 
REMARK   35  A    between atoms: C_57  and  C_62 
REMARK   36  A    between atoms: C_59  and  C_58 
REMARK   37  A    between atoms: O_60  and  C_59 
REMARK       I    between atoms: N_65  and  C_62 
REMARK   38  A    between atoms: C_66  and  N_65 
REMARK   39  A    between atoms: C_67  and  C_66 
REMARK   40  A    between atoms: C_68  and  C_66 
REMARK   41  A    between atoms: C_71  and  C_67 
REMARK       I    between atoms: N_70  and  C_68 
REMARK   42  A    between atoms: S_91  and  O_92 
ROOT
HETATM    1  N   UNK N   1      27.064  17.115   6.949  0.00  0.00    -0.350 N 
HETATM    2  C   UNK N   1      28.112  17.861   6.680  0.00  0.00     0.243 C 
HETATM    3  O   UNK N   1      27.913  18.928   6.126  0.00  0.00    -0.271 OA
HETATM    4  H   UNK N   1      26.269  17.483   7.399  0.00  0.00     0.163 HD
ENDROOT
BRANCH   2   5
HETATM    5  C   UNK N   1      29.495  17.434   7.147  0.00  0.00     0.205 C 
BRANCH   5   6
HETATM    6  N   UNK N   1      29.841  16.325   6.290  0.00  0.00    -0.344 N 
HETATM    7  C   UNK N   1      30.707  16.481   5.268  0.00  0.00     0.241 C 
HETATM    8  O   UNK N   1      30.976  17.594   4.848  0.00  0.00    -0.271 OA
HETATM    9  H   UNK N   1      29.439  15.441   6.455  0.00  0.00     0.163 HD
BRANCH   7  10
HETATM   10  C   UNK N   1      31.399  15.310   4.690  0.00  0.00     0.180 C 
BRANCH  10  11
HETATM   11  C   UNK N   1      30.608  14.002   4.935  0.00  0.00     0.073 C 
BRANCH  11  12
HETATM   12  C   UNK N   1      29.455  13.722   3.980  0.00  0.00    -0.056 A 
HETATM   13  C   UNK N   1      29.387  14.290   2.695  0.00  0.00     0.010 A 
HETATM   14  C   UNK N   1      28.254  14.102   1.892  0.00  0.00     0.039 A 
HETATM   15  C   UNK N   1      27.179  13.326   2.352  0.00  0.00     0.091 A 
HETATM   16  C   UNK N   1      27.270  12.711   3.605  0.00  0.00     0.039 A 
HETATM   17  C   UNK N   1      28.394  12.917   4.417  0.00  0.00     0.010 A 
BRANCH  15  18
HETATM   18  O   UNK N   1      26.038  13.199   1.634  0.00  0.00    -0.221 OA
BRANCH  18  19
HETATM   19  S   UNK N   1      24.969  14.506   1.412  0.00  0.00     0.245 S 
HETATM   20  O   UNK N   1      25.817  15.669   0.891  0.00  0.00    -0.579 OA
HETATM   21  O   UNK N   1      23.961  14.222   0.287  0.00  0.00    -0.579 OA
BRANCH  19  22
HETATM   22  O   UNK N   1      24.163  15.066   2.820  0.00  0.00    -0.273 OA
HETATM   23  H   UNK N   1      23.603  15.858   2.801  0.00  0.00     0.234 HD
ENDBRANCH  19  22
ENDBRANCH  18  19
ENDBRANCH  15  18
ENDBRANCH  11  12
ENDBRANCH  10  11
BRANCH  10  24
HETATM   24  N   UNK N   1      32.695  15.337   5.302  0.00  0.00    -0.346 N 
HETATM   25  C   UNK N   1      32.931  15.153   6.636  0.00  0.00     0.241 C 
HETATM   26  O   UNK N   1      32.115  14.598   7.360  0.00  0.00    -0.271 OA
HETATM   27  H   UNK N   1      33.473  15.497   4.719  0.00  0.00     0.163 HD
BRANCH  25  28
HETATM   28  C   UNK N   1      34.161  15.757   7.227  0.00  0.00     0.186 C 
BRANCH  28  29
HETATM   29  C   UNK N   1      34.076  17.284   6.993  0.00  0.00     0.144 C 
BRANCH  29  30
HETATM   30  C   UNK N   1      34.181  18.156   8.223  0.00  0.00     0.141 C 
HETATM   31  O   UNK N   1      34.965  19.090   8.230  0.00  0.00    -0.650 OA
BRANCH  30  32
HETATM   32  O   UNK N   1      33.416  17.922   9.308  0.00  0.00    -0.776 OA
HETATM   33  H   UNK N   1      33.011  18.348  10.038  0.00  0.00     0.167 HD
ENDBRANCH  30  32
ENDBRANCH  29  30
ENDBRANCH  28  29
BRANCH  28  34
HETATM   34  N   UNK N   1      35.315  15.195   6.559  0.00  0.00    -0.346 N 
HETATM   35  C   UNK N   1      36.093  14.226   7.111  0.00  0.00     0.241 C 
HETATM   36  O   UNK N   1      36.957  13.708   6.424  0.00  0.00    -0.271 OA
HETATM   37  H   UNK N   1      35.548  15.529   5.663  0.00  0.00     0.163 HD
BRANCH  35  38
HETATM   38  C   UNK N   1      35.995  13.832   8.572  0.00  0.00     0.177 C 
BRANCH  38  39
HETATM   39  N   UNK N   1      35.720  12.431   8.650  0.00  0.00    -0.346 N 
HETATM   40  C   UNK N   1      34.517  12.014   9.088  0.00  0.00     0.241 C 
HETATM   41  O   UNK N   1      33.711  12.823   9.528  0.00  0.00    -0.271 OA
HETATM   42  H   UNK N   1      36.405  11.776   8.384  0.00  0.00     0.163 HD
BRANCH  40  43
HETATM   43  C   UNK N   1      34.149  10.570   8.959  0.00  0.00     0.177 C 
HETATM   44  N   UNK N   1      35.169   9.778   9.580  0.00  0.00    -0.348 N 
HETATM   45  C   UNK N   1      34.762   9.283  10.746  0.00  0.00     0.218 C 
HETATM   46  H   UNK N   1      36.060   9.621   9.193  0.00  0.00     0.163 HD
HETATM   47  C   UNK N   1      33.368   9.610  11.097  0.00  0.00     0.105 C 
HETATM   48  O   UNK N   1      35.506   8.644  11.472  0.00  0.00    -0.274 OA
HETATM   49  C   UNK N   1      32.895  10.319   9.821  0.00  0.00     0.044 C 
ENDBRANCH  40  43
ENDBRANCH  38  39
BRANCH  38  50
HETATM   50  C   UNK N   1      37.113  14.172   9.546  0.00  0.00     0.044 C 
BRANCH  50  51
HETATM   51  C   UNK N   1      36.604  14.511  10.931  0.00  0.00     0.105 C 
BRANCH  51  52
HETATM   52  C   UNK N   1      35.693  15.693  10.827  0.00  0.00     0.215 C 
HETATM   53  N   UNK N   1      34.362  15.535  10.971  0.00  0.00    -0.370 N 
HETATM   54  H   UNK N   1      33.915  14.879  11.553  0.00  0.00     0.159 HD
HETATM   55  H   UNK N   1      33.783  16.133  10.445  0.00  0.00     0.159 HD
HETATM   56  O   UNK N   1      36.152  16.802  10.611  0.00  0.00    -0.274 OA
ENDBRANCH  51  52
ENDBRANCH  50  51
ENDBRANCH  38  50
ENDBRANCH  35  38
ENDBRANCH  28  34
ENDBRANCH  25  28
ENDBRANCH  10  24
ENDBRANCH   7  10
ENDBRANCH   5   6
BRANCH   5  57
HETATM   57  C   UNK N   1      29.619  17.191   8.670  0.00  0.00     0.146 C 
HETATM   58  C   UNK N   1      29.289  18.431   9.480  0.00  0.00     0.042 C 
BRANCH  57  59
HETATM   59  O   UNK N   1      30.839  16.658   9.080  0.00  0.00    -0.393 OA
HETATM   60  H   UNK N   1      31.589  16.049   8.995  0.00  0.00     0.210 HD
ENDBRANCH  57  59
ENDBRANCH   5  57
ENDBRANCH   2   5
BRANCH   1  61
HETATM   61  C   UNK N   1      27.131  15.774   6.565  0.00  0.00     0.225 C 
BRANCH  61  62
HETATM   62  C   UNK N   1      26.377  15.790   5.280  0.00  0.00     0.236 C 
HETATM   63  N   UNK N   1      25.120  15.327   5.264  0.00  0.00    -0.346 N 
HETATM   64  H   UNK N   1      24.492  15.553   4.542  0.00  0.00     0.163 HD
HETATM   65  O   UNK N   1      26.870  16.280   4.274  0.00  0.00    -0.272 OA
BRANCH  63  66
HETATM   66  C   UNK N   1      24.743  14.485   6.358  0.00  0.00     0.181 C 
BRANCH  66  67
HETATM   67  C   UNK N   1      23.664  15.120   7.215  0.00  0.00     0.075 C 
BRANCH  67  68
HETATM   68  C   UNK N   1      22.859  14.170   8.009  0.00  0.00    -0.028 A 
HETATM   69  C   UNK N   1      21.525  13.841   7.794  0.00  0.00     0.096 A 
HETATM   70  N   UNK N   1      21.147  12.895   8.678  0.00  0.00    -0.365 N 
HETATM   71  C   UNK N   1      22.239  12.630   9.435  0.00  0.00     0.042 A 
HETATM   72  H   UNK N   1      20.258  12.480   8.758  0.00  0.00     0.165 HD
HETATM   73  C   UNK N   1      23.292  13.399   9.042  0.00  0.00    -0.002 A 
HETATM   74  C   UNK N   1      22.335  11.705  10.459  0.00  0.00     0.030 A 
HETATM   75  C   UNK N   1      24.544  13.297   9.656  0.00  0.00     0.014 A 
HETATM   76  C   UNK N   1      24.682  12.368  10.701  0.00  0.00     0.001 A 
HETATM   77  C   UNK N   1      23.582  11.574  11.103  0.00  0.00     0.002 A 
ENDBRANCH  67  68
ENDBRANCH  66  67
BRANCH  66  78
HETATM   78  C   UNK N   1      24.591  13.136   5.724  0.00  0.00     0.241 C 
HETATM   79  N   UNK N   1      23.570  12.941   4.834  0.00  0.00    -0.346 N 
HETATM   80  H   UNK N   1      23.256  13.750   4.367  0.00  0.00     0.163 HD
HETATM   81  O   UNK N   1      25.179  12.206   6.242  0.00  0.00    -0.271 OA
BRANCH  79  82
HETATM   82  C   UNK N   1      22.877  11.699   4.475  0.00  0.00     0.177 C 
BRANCH  82  83
HETATM   83  C   UNK N   1      23.293  11.347   3.029  0.00  0.00     0.045 C 
BRANCH  83  84
HETATM   84  C   UNK N   1      22.725  10.010   2.544  0.00  0.00     0.076 C 
BRANCH  84  85
HETATM   85  S   UNK N   1      23.931   8.663   2.666  0.00  0.00    -0.173 SA
HETATM   86  C   UNK N   1      25.322   9.791   2.361  0.00  0.00     0.089 C 
ENDBRANCH  84  85
ENDBRANCH  83  84
ENDBRANCH  82  83
BRANCH  82  87
HETATM   87  C   UNK N   1      21.354  11.762   4.624  0.00  0.00     0.241 C 
HETATM   88  N   UNK N   1      20.591  12.575   3.854  0.00  0.00    -0.346 N 
HETATM   89  H   UNK N   1      19.617  12.555   3.995  0.00  0.00     0.163 HD
HETATM   90  O   UNK N   1      20.797  11.084   5.476  0.00  0.00    -0.271 OA
BRANCH  88  91
HETATM   91  C   UNK N   1      21.105  13.466   2.844  0.00  0.00     0.186 C 
BRANCH  91  92
HETATM   92  C   UNK N   1      20.656  12.920   1.486  0.00  0.00     0.144 C 
BRANCH  92  93
HETATM   93  C   UNK N   1      19.332  12.219   1.521  0.00  0.00     0.141 C 
HETATM   94  O   UNK N   1      19.252  11.032   1.254  0.00  0.00    -0.650 OA
BRANCH  93  95
HETATM   95  O   UNK N   1      18.216  12.923   1.776  0.00  0.00    -0.776 OA
HETATM   96  H   UNK N   1      18.222  13.677   2.331  0.00  0.00     0.167 HD
ENDBRANCH  93  95
ENDBRANCH  92  93
ENDBRANCH  91  92
BRANCH  91  97
HETATM   97  C   UNK N   1      20.600  14.845   3.109  0.00  0.00     0.241 C 
HETATM   98  O   UNK N   1      19.568  15.004   3.746  0.00  0.00    -0.271 OA
HETATM   99  N   UNK N   1      21.286  15.899   2.615  0.00  0.00    -0.346 N 
HETATM  100  H   UNK N   1      22.087  15.703   2.077  0.00  0.00     0.163 HD
BRANCH  99 101
HETATM  101  C   UNK N   1      20.944  17.284   2.809  0.00  0.00     0.180 C 
BRANCH 101 102
HETATM  102  C   UNK N   1      21.365  18.005   4.096  0.00  0.00     0.073 C 
BRANCH 102 103
HETATM  103  C   UNK N   1      22.604  18.834   3.977  0.00  0.00    -0.056 A 
HETATM  104  C   UNK N   1      23.756  18.468   4.684  0.00  0.00     0.007 A 
HETATM  105  C   UNK N   1      24.940  19.196   4.524  0.00  0.00     0.001 A 
HETATM  106  C   UNK N   1      24.979  20.282   3.644  0.00  0.00     0.000 A 
HETATM  107  C   UNK N   1      23.832  20.643   2.930  0.00  0.00     0.001 A 
HETATM  108  C   UNK N   1      22.647  19.918   3.093  0.00  0.00     0.007 A 
ENDBRANCH 102 103
ENDBRANCH 101 102
BRANCH 101 109
HETATM  109  C   UNK N   1      19.928  17.818   1.847  0.00  0.00     0.238 C 
HETATM  110  O   UNK N   1      20.017  17.566   0.658  0.00  0.00    -0.271 OA
HETATM  111  N   UNK N   1      18.878  18.534   2.302  0.00  0.00    -0.368 N 
HETATM  112  H   UNK N   1      18.699  18.998   3.153  0.00  0.00     0.159 HD
HETATM  113  H   UNK N   1      18.142  18.607   1.652  0.00  0.00     0.159 HD
ENDBRANCH 101 109
ENDBRANCH  99 101
ENDBRANCH  91  97
ENDBRANCH  88  91
ENDBRANCH  82  87
ENDBRANCH  79  82
ENDBRANCH  66  78
ENDBRANCH  63  66
ENDBRANCH  61  62
ENDBRANCH   1  61
TORSDOF 42
ENDMDL
MODEL 4
REMARK VINA RESULT:      -7.9      1.866      2.773
REMARK WARNING: 32 MAX_TORS EXCEEDED!!!
REMARK  42 active torsions:
REMARK  status: ('A' for Active; 'I' for Inactive)
REMARK    1  A    between atoms: C_1  and  C_28 
REMARK    2  A    between atoms: C_3  and  C_2 
REMARK    3  A    between atoms: C_2  and  C_82 
REMARK    4  A    between atoms: C_3  and  C_47 
REMARK    5  A    between atoms: N_4  and  C_3 
REMARK       I    between atoms: C_5  and  N_4 
REMARK    6  A    between atoms: C_6  and  C_5 
REMARK    7  A    between atoms: N_7  and  C_6 
REMARK       I    between atoms: C_8  and  N_7 
REMARK    8  A    between atoms: C_9  and  C_8 
REMARK    9  A    between atoms: N_10  and  C_9 
REMARK   10  A    between atoms: C_42  and  C_9 
REMARK       I    between atoms: C_11  and  N_10 
REMARK   11  A    between atoms: C_12  and  C_11 
REMARK   12  A    between atoms: C_12  and  C_13 
REMARK   13  A    between atoms: N_21  and  C_12 
REMARK   14  A    between atoms: C_14  and  C_13 
REMARK   15  A    between atoms: O_20  and  C_17 
REMARK   16  A    between atoms: O_20  and  S_91 
REMARK       I    between atoms: C_22  and  N_21 
REMARK   17  A    between atoms: C_23  and  C_22 
REMARK   18  A    between atoms: C_23  and  C_36 
REMARK   19  A    between atoms: N_24  and  C_23 
REMARK       I    between atoms: C_25  and  N_24 
REMARK   20  A    between atoms: C_26  and  C_25 
REMARK   21  A    between atoms: N_27  and  C_26 
REMARK   22  A    between atoms: C_26  and  C_30 
REMARK       I    between atoms: C_28  and  N_27 
REMARK   23  A    between atoms: C_31  and  C_30 
REMARK   24  A    between atoms: C_32  and  C_31 
REMARK       I    between atoms: N_33  and  C_32 
REMARK   25  A    between atoms: C_37  and  C_36 
REMARK   26  A    between atoms: O_39  and  C_37 
REMARK   27  A    between atoms: C_42  and  O_44 
REMARK       I    between atoms: N_48  and  C_47 
REMARK   28  A    between atoms: C_50  and  N_48 
REMARK   29  A    between atoms: C_51  and  C_50 
REMARK   30  A    between atoms: C_55  and  C_50 
REMARK   31  A    between atoms: C_52  and  C_51 
REMARK   32  A    between atoms: S_53  and  C_52 
REMARK       I    between atoms: N_56  and  C_55 
REMARK   33  A    between atoms: C_57  and  N_56 
REMARK   34  A    between atoms: C_58  and  C_57 
REMARK   35  A    between atoms: C_57  and  C_62 
REMARK   36  A    between atoms: C_59  and  C_58 
REMARK   37  A    between atoms: O_60  and  C_59 
REMARK       I    between atoms: N_65  and  C_62 
REMARK   38  A    between atoms: C_66  and  N_65 
REMARK   39  A    between atoms: C_67  and  C_66 
REMARK   40  A    between atoms: C_68  and  C_66 
REMARK   41  A    between atoms: C_71  and  C_67 
REMARK       I    between atoms: N_70  and  C_68 
REMARK   42  A    between atoms: S_91  and  O_92 
ROOT
HETATM    1  N   UNK N   1      31.593  16.609   5.375  0.00  0.00    -0.350 N 
HETATM    2  C   UNK N   1      30.745  16.804   6.360  0.00  0.00     0.243 C 
HETATM    3  O   UNK N   1      31.165  16.671   7.496  0.00  0.00    -0.271 OA
HETATM    4  H   UNK N   1      32.478  17.039   5.362  0.00  0.00     0.163 HD
ENDROOT
BRANCH   2   5
HETATM    5  C   UNK N   1      29.330  17.279   6.068  0.00  0.00     0.205 C 
BRANCH   5   6
HETATM    6  N   UNK N   1      28.559  16.065   5.938  0.00  0.00    -0.344 N 
HETATM    7  C   UNK N   1      27.411  15.894   6.623  0.00  0.00     0.241 C 
HETATM    8  O   UNK N   1      27.154  16.597   7.587  0.00  0.00    -0.271 OA
HETATM    9  H   UNK N   1      28.877  15.351   5.338  0.00  0.00     0.163 HD
BRANCH   7  10
HETATM   10  C   UNK N   1      26.413  14.901   6.175  0.00  0.00     0.180 C 
BRANCH  10  11
HETATM   11  C   UNK N   1      25.616  15.406   4.948  0.00  0.00     0.073 C 
BRANCH  11  12
HETATM   12  C   UNK N   1      25.235  14.356   3.913  0.00  0.00    -0.056 A 
HETATM   13  C   UNK N   1      24.015  13.659   3.961  0.00  0.00     0.010 A 
HETATM   14  C   UNK N   1      23.753  12.618   3.059  0.00  0.00     0.039 A 
HETATM   15  C   UNK N   1      24.698  12.272   2.081  0.00  0.00     0.091 A 
HETATM   16  C   UNK N   1      25.885  13.005   1.992  0.00  0.00     0.039 A 
HETATM   17  C   UNK N   1      26.157  14.031   2.908  0.00  0.00     0.010 A 
BRANCH  15  18
HETATM   18  O   UNK N   1      24.507  11.218   1.254  0.00  0.00    -0.221 OA
BRANCH  18  19
HETATM   19  S   UNK N   1      23.238  11.188   0.117  0.00  0.00     0.245 S 
HETATM   20  O   UNK N   1      22.036  10.571   0.835  0.00  0.00    -0.579 OA
HETATM   21  O   UNK N   1      22.786  12.608  -0.257  0.00  0.00    -0.579 OA
BRANCH  19  22
HETATM   22  O   UNK N   1      23.515  10.250  -1.294  0.00  0.00    -0.273 OA
HETATM   23  H   UNK N   1      24.185  10.505  -1.947  0.00  0.00     0.234 HD
ENDBRANCH  19  22
ENDBRANCH  18  19
ENDBRANCH  15  18
ENDBRANCH  11  12
ENDBRANCH  10  11
BRANCH  10  24
HETATM   24  N   UNK N   1      25.611  14.665   7.340  0.00  0.00    -0.346 N 
HETATM   25  C   UNK N   1      24.883  13.531   7.568  0.00  0.00     0.241 C 
HETATM   26  O   UNK N   1      25.131  12.483   6.986  0.00  0.00    -0.271 OA
HETATM   27  H   UNK N   1      25.584  15.371   8.027  0.00  0.00     0.163 HD
BRANCH  25  28
HETATM   28  C   UNK N   1      23.689  13.625   8.458  0.00  0.00     0.186 C 
BRANCH  28  29
HETATM   29  C   UNK N   1      24.081  12.995   9.815  0.00  0.00     0.144 C 
BRANCH  29  30
HETATM   30  C   UNK N   1      22.944  12.473  10.664  0.00  0.00     0.141 C 
HETATM   31  O   UNK N   1      23.134  11.517  11.396  0.00  0.00    -0.650 OA
BRANCH  30  32
HETATM   32  O   UNK N   1      21.727  13.054  10.630  0.00  0.00    -0.776 OA
HETATM   33  H   UNK N   1      21.301  13.887  10.649  0.00  0.00     0.167 HD
ENDBRANCH  30  32
ENDBRANCH  29  30
ENDBRANCH  28  29
BRANCH  28  34
HETATM   34  N   UNK N   1      22.601  12.894   7.845  0.00  0.00    -0.346 N 
HETATM   35  C   UNK N   1      21.492  13.498   7.339  0.00  0.00     0.241 C 
HETATM   36  O   UNK N   1      20.693  12.825   6.713  0.00  0.00    -0.271 OA
HETATM   37  H   UNK N   1      22.666  11.913   7.790  0.00  0.00     0.163 HD
BRANCH  35  38
HETATM   38  C   UNK N   1      21.162  14.954   7.605  0.00  0.00     0.177 C 
BRANCH  38  39
HETATM   39  N   UNK N   1      20.872  15.592   6.358  0.00  0.00    -0.346 N 
HETATM   40  C   UNK N   1      21.844  16.270   5.718  0.00  0.00     0.241 C 
HETATM   41  O   UNK N   1      22.930  16.441   6.258  0.00  0.00    -0.271 OA
HETATM   42  H   UNK N   1      19.970  15.535   5.970  0.00  0.00     0.163 HD
BRANCH  40  43
HETATM   43  C   UNK N   1      21.609  16.744   4.319  0.00  0.00     0.177 C 
HETATM   44  N   UNK N   1      20.655  17.813   4.349  0.00  0.00    -0.348 N 
HETATM   45  C   UNK N   1      21.234  18.992   4.141  0.00  0.00     0.218 C 
HETATM   46  H   UNK N   1      19.691  17.690   4.506  0.00  0.00     0.163 HD
HETATM   47  C   UNK N   1      22.684  18.924   3.878  0.00  0.00     0.105 C 
HETATM   48  O   UNK N   1      20.610  20.038   4.202  0.00  0.00    -0.274 OA
HETATM   49  C   UNK N   1      22.908  17.408   3.817  0.00  0.00     0.044 C 
ENDBRANCH  40  43
ENDBRANCH  38  39
BRANCH  38  50
HETATM   50  C   UNK N   1      20.092  15.337   8.617  0.00  0.00     0.044 C 
BRANCH  50  51
HETATM   51  C   UNK N   1      19.895  16.834   8.726  0.00  0.00     0.105 C 
BRANCH  51  52
HETATM   52  C   UNK N   1      18.500  17.097   9.200  0.00  0.00     0.215 C 
HETATM   53  N   UNK N   1      18.180  18.298   9.723  0.00  0.00    -0.370 N 
HETATM   54  H   UNK N   1      18.562  19.166   9.459  0.00  0.00     0.159 HD
HETATM   55  H   UNK N   1      17.500  18.307  10.434  0.00  0.00     0.159 HD
HETATM   56  O   UNK N   1      17.651  16.226   9.117  0.00  0.00    -0.274 OA
ENDBRANCH  51  52
ENDBRANCH  50  51
ENDBRANCH  38  50
ENDBRANCH  35  38
ENDBRANCH  28  34
ENDBRANCH  25  28
ENDBRANCH  10  24
ENDBRANCH   7  10
ENDBRANCH   5   6
BRANCH   5  57
HETATM   57  C   UNK N   1      29.213  18.296   4.908  0.00  0.00     0.146 C 
HETATM   58  C   UNK N   1      28.179  19.372   5.187  0.00  0.00     0.042 C 
BRANCH  57  59
HETATM   59  O   UNK N   1      28.994  17.730   3.654  0.00  0.00    -0.393 OA
HETATM   60  H   UNK N   1      28.827  16.982   3.059  0.00  0.00     0.210 HD
ENDBRANCH  57  59
ENDBRANCH   5  57
ENDBRANCH   2   5
BRANCH   1  61
HETATM   61  C   UNK N   1      31.176  15.761   4.346  0.00  0.00     0.225 C 
BRANCH  61  62
HETATM   62  C   UNK N   1      32.190  16.044   3.291  0.00  0.00     0.236 C 
HETATM   63  N   UNK N   1      32.775  15.014   2.667  0.00  0.00    -0.346 N 
HETATM   64  H   UNK N   1      33.232  15.122   1.802  0.00  0.00     0.163 HD
HETATM   65  O   UNK N   1      32.432  17.194   2.953  0.00  0.00    -0.272 OA
BRANCH  63  66
HETATM   66  C   UNK N   1      32.698  13.747   3.328  0.00  0.00     0.181 C 
BRANCH  66  67
HETATM   67  C   UNK N   1      32.522  12.605   2.344  0.00  0.00     0.075 C 
BRANCH  67  68
HETATM   68  C   UNK N   1      31.130  12.146   2.164  0.00  0.00    -0.028 A 
HETATM   69  C   UNK N   1      30.338  12.344   1.038  0.00  0.00     0.096 A 
HETATM   70  N   UNK N   1      29.149  11.731   1.212  0.00  0.00    -0.365 N 
HETATM   71  C   UNK N   1      29.201  11.148   2.434  0.00  0.00     0.042 A 
HETATM   72  H   UNK N   1      28.395  11.710   0.580  0.00  0.00     0.165 HD
HETATM   73  C   UNK N   1      30.402  11.391   3.029  0.00  0.00    -0.002 A 
HETATM   74  C   UNK N   1      28.216  10.384   3.033  0.00  0.00     0.030 A 
HETATM   75  C   UNK N   1      30.712  10.877   4.292  0.00  0.00     0.014 A 
HETATM   76  C   UNK N   1      29.736  10.096   4.934  0.00  0.00     0.001 A 
HETATM   77  C   UNK N   1      28.492   9.849   4.307  0.00  0.00     0.002 A 
ENDBRANCH  67  68
ENDBRANCH  66  67
BRANCH  66  78
HETATM   78  C   UNK N   1      33.820  13.802   4.320  0.00  0.00     0.241 C 
HETATM   79  N   UNK N   1      33.554  13.499   5.628  0.00  0.00    -0.346 N 
HETATM   80  H   UNK N   1      32.786  12.900   5.776  0.00  0.00     0.163 HD
HETATM   81  O   UNK N   1      34.829  14.393   3.989  0.00  0.00    -0.271 OA
BRANCH  79  82
HETATM   82  C   UNK N   1      34.250  13.941   6.841  0.00  0.00     0.177 C 
BRANCH  82  83
HETATM   83  C   UNK N   1      35.408  12.948   7.088  0.00  0.00     0.045 C 
BRANCH  83  84
HETATM   84  C   UNK N   1      34.933  11.513   7.339  0.00  0.00     0.076 C 
BRANCH  84  85
HETATM   85  S   UNK N   1      35.880  10.691   8.646  0.00  0.00    -0.173 SA
HETATM   86  C   UNK N   1      37.451  11.357   8.020  0.00  0.00     0.089 C 
ENDBRANCH  84  85
ENDBRANCH  83  84
ENDBRANCH  82  83
BRANCH  82  87
HETATM   87  C   UNK N   1      33.348  14.072   8.073  0.00  0.00     0.241 C 
HETATM   88  N   UNK N   1      33.614  14.954   9.065  0.00  0.00    -0.346 N 
HETATM   89  H   UNK N   1      32.984  14.995   9.821  0.00  0.00     0.163 HD
HETATM   90  O   UNK N   1      32.370  13.348   8.190  0.00  0.00    -0.271 OA
BRANCH  88  91
HETATM   91  C   UNK N   1      34.753  15.838   9.093  0.00  0.00     0.186 C 
BRANCH  91  92
HETATM   92  C   UNK N   1      34.217  17.264   9.254  0.00  0.00     0.144 C 
BRANCH  92  93
HETATM   93  C   UNK N   1      34.621  18.192   8.150  0.00  0.00     0.141 C 
HETATM   94  O   UNK N   1      35.284  19.188   8.389  0.00  0.00    -0.650 OA
BRANCH  93  95
HETATM   95  O   UNK N   1      34.185  17.964   6.899  0.00  0.00    -0.776 OA
HETATM   96  H   UNK N   1      34.358  18.561   6.198  0.00  0.00     0.167 HD
ENDBRANCH  93  95
ENDBRANCH  92  93
ENDBRANCH  91  92
BRANCH  91  97
HETATM   97  C   UNK N   1      35.657  15.431  10.208  0.00  0.00     0.241 C 
HETATM   98  O   UNK N   1      36.500  16.213  10.626  0.00  0.00    -0.271 OA
HETATM   99  N   UNK N   1      35.542  14.187  10.723  0.00  0.00    -0.346 N 
HETATM  100  H   UNK N   1      34.871  13.592  10.316  0.00  0.00     0.163 HD
BRANCH  99 101
HETATM  101  C   UNK N   1      36.317  13.659  11.815  0.00  0.00     0.180 C 
BRANCH 101 102
HETATM  102  C   UNK N   1      35.997  14.077  13.256  0.00  0.00     0.073 C 
BRANCH 102 103
HETATM  103  C   UNK N   1      35.419  12.994  14.111  0.00  0.00    -0.056 A 
HETATM  104  C   UNK N   1      34.631  11.994  13.528  0.00  0.00     0.007 A 
HETATM  105  C   UNK N   1      34.144  10.939  14.308  0.00  0.00     0.001 A 
HETATM  106  C   UNK N   1      34.459  10.873  15.669  0.00  0.00     0.000 A 
HETATM  107  C   UNK N   1      35.254  11.866  16.250  0.00  0.00     0.001 A 
HETATM  108  C   UNK N   1      35.736  12.923  15.472  0.00  0.00     0.007 A 
ENDBRANCH 102 103
ENDBRANCH 101 102
BRANCH 101 109
HETATM  109  C   UNK N   1      37.582  12.970  11.408  0.00  0.00     0.238 C 
HETATM  110  O   UNK N   1      37.730  11.779  11.621  0.00  0.00    -0.271 OA
HETATM  111  N   UNK N   1      38.542  13.654  10.749  0.00  0.00    -0.368 N 
HETATM  112  H   UNK N   1      38.721  14.616  10.631  0.00  0.00     0.159 HD
HETATM  113  H   UNK N   1      39.196  13.075  10.296  0.00  0.00     0.159 HD
ENDBRANCH 101 109
ENDBRANCH  99 101
ENDBRANCH  91  97
ENDBRANCH  88  91
ENDBRANCH  82  87
ENDBRANCH  79  82
ENDBRANCH  66  78
ENDBRANCH  63  66
ENDBRANCH  61  62
ENDBRANCH   1  61
TORSDOF 42
ENDMDL
MODEL 5
REMARK VINA RESULT:      -7.8      1.968      2.791
REMARK WARNING: 32 MAX_TORS EXCEEDED!!!
REMARK  42 active torsions:
REMARK  status: ('A' for Active; 'I' for Inactive)
REMARK    1  A    between atoms: C_1  and  C_28 
REMARK    2  A    between atoms: C_3  and  C_2 
REMARK    3  A    between atoms: C_2  and  C_82 
REMARK    4  A    between atoms: C_3  and  C_47 
REMARK    5  A    between atoms: N_4  and  C_3 
REMARK       I    between atoms: C_5  and  N_4 
REMARK    6  A    between atoms: C_6  and  C_5 
REMARK    7  A    between atoms: N_7  and  C_6 
REMARK       I    between atoms: C_8  and  N_7 
REMARK    8  A    between atoms: C_9  and  C_8 
REMARK    9  A    between atoms: N_10  and  C_9 
REMARK   10  A    between atoms: C_42  and  C_9 
REMARK       I    between atoms: C_11  and  N_10 
REMARK   11  A    between atoms: C_12  and  C_11 
REMARK   12  A    between atoms: C_12  and  C_13 
REMARK   13  A    between atoms: N_21  and  C_12 
REMARK   14  A    between atoms: C_14  and  C_13 
REMARK   15  A    between atoms: O_20  and  C_17 
REMARK   16  A    between atoms: O_20  and  S_91 
REMARK       I    between atoms: C_22  and  N_21 
REMARK   17  A    between atoms: C_23  and  C_22 
REMARK   18  A    between atoms: C_23  and  C_36 
REMARK   19  A    between atoms: N_24  and  C_23 
REMARK       I    between atoms: C_25  and  N_24 
REMARK   20  A    between atoms: C_26  and  C_25 
REMARK   21  A    between atoms: N_27  and  C_26 
REMARK   22  A    between atoms: C_26  and  C_30 
REMARK       I    between atoms: C_28  and  N_27 
REMARK   23  A    between atoms: C_31  and  C_30 
REMARK   24  A    between atoms: C_32  and  C_31 
REMARK       I    between atoms: N_33  and  C_32 
REMARK   25  A    between atoms: C_37  and  C_36 
REMARK   26  A    between atoms: O_39  and  C_37 
REMARK   27  A    between atoms: C_42  and  O_44 
REMARK       I    between atoms: N_48  and  C_47 
REMARK   28  A    between atoms: C_50  and  N_48 
REMARK   29  A    between atoms: C_51  and  C_50 
REMARK   30  A    between atoms: C_55  and  C_50 
REMARK   31  A    between atoms: C_52  and  C_51 
REMARK   32  A    between atoms: S_53  and  C_52 
REMARK       I    between atoms: N_56  and  C_55 
REMARK   33  A    between atoms: C_57  and  N_56 
REMARK   34  A    between atoms: C_58  and  C_57 
REMARK   35  A    between atoms: C_57  and  C_62 
REMARK   36  A    between atoms: C_59  and  C_58 
REMARK   37  A    between atoms: O_60  and  C_59 
REMARK       I    between atoms: N_65  and  C_62 
REMARK   38  A    between atoms: C_66  and  N_65 
REMARK   39  A    between atoms: C_67  and  C_66 
REMARK   40  A    between atoms: C_68  and  C_66 
REMARK   41  A    between atoms: C_71  and  C_67 
REMARK       I    between atoms: N_70  and  C_68 
REMARK   42  A    between atoms: S_91  and  O_92 
ROOT
HETATM    1  N   UNK N   1      30.825  16.622   5.880  0.00  0.00    -0.350 N 
HETATM    2  C   UNK N   1      29.668  17.224   6.039  0.00  0.00     0.243 C 
HETATM    3  O   UNK N   1      29.505  18.287   5.467  0.00  0.00    -0.271 OA
HETATM    4  H   UNK N   1      31.217  16.484   4.988  0.00  0.00     0.163 HD
ENDROOT
BRANCH   2   5
HETATM    5  C   UNK N   1      28.556  16.550   6.827  0.00  0.00     0.205 C 
BRANCH   5   6
HETATM    6  N   UNK N   1      27.638  16.069   5.821  0.00  0.00    -0.344 N 
HETATM    7  C   UNK N   1      27.752  14.824   5.316  0.00  0.00     0.241 C 
HETATM    8  O   UNK N   1      28.786  14.192   5.451  0.00  0.00    -0.271 OA
HETATM    9  H   UNK N   1      26.919  16.659   5.500  0.00  0.00     0.163 HD
BRANCH   7  10
HETATM   10  C   UNK N   1      26.599  14.179   4.654  0.00  0.00     0.180 C 
BRANCH  10  11
HETATM   11  C   UNK N   1      26.537  14.529   3.147  0.00  0.00     0.073 C 
BRANCH  11  12
HETATM   12  C   UNK N   1      25.393  13.908   2.357  0.00  0.00    -0.056 A 
HETATM   13  C   UNK N   1      24.754  14.581   1.301  0.00  0.00     0.010 A 
HETATM   14  C   UNK N   1      23.630  14.023   0.677  0.00  0.00     0.039 A 
HETATM   15  C   UNK N   1      23.138  12.774   1.085  0.00  0.00     0.091 A 
HETATM   16  C   UNK N   1      23.808  12.075   2.094  0.00  0.00     0.039 A 
HETATM   17  C   UNK N   1      24.919  12.643   2.733  0.00  0.00     0.010 A 
BRANCH  15  18
HETATM   18  O   UNK N   1      22.005  12.252   0.559  0.00  0.00    -0.221 OA
BRANCH  18  19
HETATM   19  S   UNK N   1      20.463  12.784   1.048  0.00  0.00     0.245 S 
HETATM   20  O   UNK N   1      19.455  12.044   0.166  0.00  0.00    -0.579 OA
HETATM   21  O   UNK N   1      20.139  12.330   2.480  0.00  0.00    -0.579 OA
BRANCH  19  22
HETATM   22  O   UNK N   1      20.153  14.462   0.862  0.00  0.00    -0.273 OA
HETATM   23  H   UNK N   1      20.874  15.102   0.760  0.00  0.00     0.234 HD
ENDBRANCH  19  22
ENDBRANCH  18  19
ENDBRANCH  15  18
ENDBRANCH  11  12
ENDBRANCH  10  11
BRANCH  10  24
HETATM   24  N   UNK N   1      25.468  14.631   5.409  0.00  0.00    -0.346 N 
HETATM   25  C   UNK N   1      24.610  13.815   6.092  0.00  0.00     0.241 C 
HETATM   26  O   UNK N   1      24.929  12.680   6.418  0.00  0.00    -0.271 OA
HETATM   27  H   UNK N   1      25.297  15.601   5.440  0.00  0.00     0.163 HD
BRANCH  25  28
HETATM   28  C   UNK N   1      23.216  14.294   6.329  0.00  0.00     0.186 C 
BRANCH  28  29
HETATM   29  C   UNK N   1      22.575  13.338   7.362  0.00  0.00     0.144 C 
BRANCH  29  30
HETATM   30  C   UNK N   1      21.077  13.156   7.266  0.00  0.00     0.141 C 
HETATM   31  O   UNK N   1      20.346  13.836   7.966  0.00  0.00    -0.650 OA
BRANCH  30  32
HETATM   32  O   UNK N   1      20.538  12.262   6.413  0.00  0.00    -0.776 OA
HETATM   33  H   UNK N   1      19.742  12.044   5.970  0.00  0.00     0.167 HD
ENDBRANCH  30  32
ENDBRANCH  29  30
ENDBRANCH  28  29
BRANCH  28  34
HETATM   34  N   UNK N   1      22.498  14.254   5.074  0.00  0.00    -0.346 N 
HETATM   35  C   UNK N   1      22.246  15.363   4.327  0.00  0.00     0.241 C 
HETATM   36  O   UNK N   1      21.764  15.224   3.216  0.00  0.00    -0.271 OA
HETATM   37  H   UNK N   1      22.176  13.385   4.744  0.00  0.00     0.163 HD
BRANCH  35  38
HETATM   38  C   UNK N   1      22.452  16.769   4.856  0.00  0.00     0.177 C 
BRANCH  38  39
HETATM   39  N   UNK N   1      23.388  17.443   4.010  0.00  0.00    -0.346 N 
HETATM   40  C   UNK N   1      24.644  17.657   4.448  0.00  0.00     0.241 C 
HETATM   41  O   UNK N   1      24.946  17.384   5.603  0.00  0.00    -0.271 OA
HETATM   42  H   UNK N   1      23.117  17.748   3.114  0.00  0.00     0.163 HD
BRANCH  40  43
HETATM   43  C   UNK N   1      25.680  18.155   3.491  0.00  0.00     0.177 C 
HETATM   44  N   UNK N   1      25.053  19.038   2.553  0.00  0.00    -0.348 N 
HETATM   45  C   UNK N   1      25.357  20.310   2.798  0.00  0.00     0.218 C 
HETATM   46  H   UNK N   1      24.468  18.741   1.819  0.00  0.00     0.163 HD
HETATM   47  C   UNK N   1      26.293  20.510   3.920  0.00  0.00     0.105 C 
HETATM   48  O   UNK N   1      24.865  21.227   2.162  0.00  0.00    -0.274 OA
HETATM   49  C   UNK N   1      26.654  19.061   4.272  0.00  0.00     0.044 C 
ENDBRANCH  40  43
ENDBRANCH  38  39
BRANCH  38  50
HETATM   50  C   UNK N   1      21.266  17.686   5.110  0.00  0.00     0.044 C 
BRANCH  50  51
HETATM   51  C   UNK N   1      20.869  18.488   3.888  0.00  0.00     0.105 C 
BRANCH  51  52
HETATM   52  C   UNK N   1      19.566  17.962   3.376  0.00  0.00     0.215 C 
HETATM   53  N   UNK N   1      18.954  18.566   2.338  0.00  0.00    -0.370 N 
HETATM   54  H   UNK N   1      19.400  19.014   1.582  0.00  0.00     0.159 HD
HETATM   55  H   UNK N   1      17.970  18.559   2.335  0.00  0.00     0.159 HD
HETATM   56  O   UNK N   1      19.053  16.986   3.897  0.00  0.00    -0.274 OA
ENDBRANCH  51  52
ENDBRANCH  50  51
ENDBRANCH  38  50
ENDBRANCH  35  38
ENDBRANCH  28  34
ENDBRANCH  25  28
ENDBRANCH  10  24
ENDBRANCH   7  10
ENDBRANCH   5   6
BRANCH   5  57
HETATM   57  C   UNK N   1      27.945  17.413   7.958  0.00  0.00     0.146 C 
HETATM   58  C   UNK N   1      29.003  18.175   8.735  0.00  0.00     0.042 C 
BRANCH  57  59
HETATM   59  O   UNK N   1      27.107  16.724   8.832  0.00  0.00    -0.393 OA
HETATM   60  H   UNK N   1      26.537  15.979   9.077  0.00  0.00     0.210 HD
ENDBRANCH  57  59
ENDBRANCH   5  57
ENDBRANCH   2   5
BRANCH   1  61
HETATM   61  C   UNK N   1      31.471  16.188   7.039  0.00  0.00     0.225 C 
BRANCH  61  62
HETATM   62  C   UNK N   1      32.623  17.130   7.114  0.00  0.00     0.236 C 
HETATM   63  N   UNK N   1      33.606  17.019   6.211  0.00  0.00    -0.346 N 
HETATM   64  H   UNK N   1      34.237  17.754   6.037  0.00  0.00     0.163 HD
HETATM   65  O   UNK N   1      32.637  18.032   7.940  0.00  0.00    -0.272 OA
BRANCH  63  66
HETATM   66  C   UNK N   1      33.687  15.773   5.514  0.00  0.00     0.181 C 
BRANCH  66  67
HETATM   67  C   UNK N   1      33.840  15.970   4.017  0.00  0.00     0.075 C 
BRANCH  67  68
HETATM   68  C   UNK N   1      33.711  14.741   3.210  0.00  0.00    -0.028 A 
HETATM   69  C   UNK N   1      34.751  13.919   2.790  0.00  0.00     0.096 A 
HETATM   70  N   UNK N   1      34.246  12.858   2.126  0.00  0.00    -0.365 N 
HETATM   71  C   UNK N   1      32.901  13.012   2.139  0.00  0.00     0.042 A 
HETATM   72  H   UNK N   1      34.753  12.121   1.716  0.00  0.00     0.165 HD
HETATM   73  C   UNK N   1      32.556  14.155   2.794  0.00  0.00    -0.002 A 
HETATM   74  C   UNK N   1      31.961  12.153   1.599  0.00  0.00     0.030 A 
HETATM   75  C   UNK N   1      31.219  14.529   2.963  0.00  0.00     0.014 A 
HETATM   76  C   UNK N   1      30.234  13.682   2.428  0.00  0.00     0.001 A 
HETATM   77  C   UNK N   1      30.602  12.497   1.748  0.00  0.00     0.002 A 
ENDBRANCH  67  68
ENDBRANCH  66  67
BRANCH  66  78
HETATM   78  C   UNK N   1      34.656  14.976   6.333  0.00  0.00     0.241 C 
HETATM   79  N   UNK N   1      34.344  13.680   6.642  0.00  0.00    -0.346 N 
HETATM   80  H   UNK N   1      33.736  13.229   6.011  0.00  0.00     0.163 HD
HETATM   81  O   UNK N   1      35.518  15.591   6.932  0.00  0.00    -0.271 OA
BRANCH  79  82
HETATM   82  C   UNK N   1      34.786  12.866   7.780  0.00  0.00     0.177 C 
BRANCH  82  83
HETATM   83  C   UNK N   1      35.418  11.580   7.201  0.00  0.00     0.045 C 
BRANCH  83  84
HETATM   84  C   UNK N   1      36.172  11.813   5.889  0.00  0.00     0.076 C 
BRANCH  84  85
HETATM   85  S   UNK N   1      37.919  12.209   6.159  0.00  0.00    -0.173 SA
HETATM   86  C   UNK N   1      37.836  13.645   5.050  0.00  0.00     0.089 C 
ENDBRANCH  84  85
ENDBRANCH  83  84
ENDBRANCH  82  83
BRANCH  82  87
HETATM   87  C   UNK N   1      33.681  12.545   8.792  0.00  0.00     0.241 C 
HETATM   88  N   UNK N   1      33.775  12.905  10.094  0.00  0.00    -0.346 N 
HETATM   89  H   UNK N   1      33.022  12.678  10.686  0.00  0.00     0.163 HD
HETATM   90  O   UNK N   1      32.690  11.925   8.435  0.00  0.00    -0.271 OA
BRANCH  88  91
HETATM   91  C   UNK N   1      34.900  13.595  10.675  0.00  0.00     0.186 C 
BRANCH  91  92
HETATM   92  C   UNK N   1      34.403  14.971  11.128  0.00  0.00     0.144 C 
BRANCH  92  93
HETATM   93  C   UNK N   1      35.161  16.118  10.533  0.00  0.00     0.141 C 
HETATM   94  O   UNK N   1      36.380  16.113  10.516  0.00  0.00    -0.650 OA
BRANCH  93  95
HETATM   95  O   UNK N   1      34.491  17.193  10.083  0.00  0.00    -0.776 OA
HETATM   96  H   UNK N   1      34.887  17.820   9.511  0.00  0.00     0.167 HD
ENDBRANCH  93  95
ENDBRANCH  92  93
ENDBRANCH  91  92
BRANCH  91  97
HETATM   97  C   UNK N   1      35.446  12.779  11.798  0.00  0.00     0.241 C 
HETATM   98  O   UNK N   1      36.509  12.189  11.663  0.00  0.00    -0.271 OA
HETATM   99  N   UNK N   1      34.736  12.686  12.945  0.00  0.00    -0.346 N 
HETATM  100  H   UNK N   1      33.869  13.152  12.976  0.00  0.00     0.163 HD
BRANCH  99 101
HETATM  101  C   UNK N   1      35.142  11.964  14.122  0.00  0.00     0.180 C 
BRANCH 101 102
HETATM  102  C   UNK N   1      36.477  12.294  14.803  0.00  0.00     0.073 C 
BRANCH 102 103
HETATM  103  C   UNK N   1      36.400  13.347  15.861  0.00  0.00    -0.056 A 
HETATM  104  C   UNK N   1      37.160  14.517  15.735  0.00  0.00     0.007 A 
HETATM  105  C   UNK N   1      37.042  15.539  16.684  0.00  0.00     0.001 A 
HETATM  106  C   UNK N   1      36.152  15.398  17.753  0.00  0.00     0.000 A 
HETATM  107  C   UNK N   1      35.385  14.235  17.876  0.00  0.00     0.001 A 
HETATM  108  C   UNK N   1      35.507  13.213  16.929  0.00  0.00     0.007 A 
ENDBRANCH 102 103
ENDBRANCH 101 102
BRANCH 101 109
HETATM  109  C   UNK N   1      34.345  10.729  14.404  0.00  0.00     0.238 C 
HETATM  110  O   UNK N   1      33.144  10.804  14.599  0.00  0.00    -0.271 OA
HETATM  111  N   UNK N   1      34.944   9.519  14.386  0.00  0.00    -0.368 N 
HETATM  112  H   UNK N   1      35.887   9.236  14.431  0.00  0.00     0.159 HD
HETATM  113  H   UNK N   1      34.312   8.769  14.313  0.00  0.00     0.159 HD
ENDBRANCH 101 109
ENDBRANCH  99 101
ENDBRANCH  91  97
ENDBRANCH  88  91
ENDBRANCH  82  87
ENDBRANCH  79  82
ENDBRANCH  66  78
ENDBRANCH  63  66
ENDBRANCH  61  62
ENDBRANCH   1  61
TORSDOF 42
ENDMDL
MODEL 6
REMARK VINA RESULT:      -7.8      2.634      5.352
REMARK WARNING: 32 MAX_TORS EXCEEDED!!!
REMARK  42 active torsions:
REMARK  status: ('A' for Active; 'I' for Inactive)
REMARK    1  A    between atoms: C_1  and  C_28 
REMARK    2  A    between atoms: C_3  and  C_2 
REMARK    3  A    between atoms: C_2  and  C_82 
REMARK    4  A    between atoms: C_3  and  C_47 
REMARK    5  A    between atoms: N_4  and  C_3 
REMARK       I    between atoms: C_5  and  N_4 
REMARK    6  A    between atoms: C_6  and  C_5 
REMARK    7  A    between atoms: N_7  and  C_6 
REMARK       I    between atoms: C_8  and  N_7 
REMARK    8  A    between atoms: C_9  and  C_8 
REMARK    9  A    between atoms: N_10  and  C_9 
REMARK   10  A    between atoms: C_42  and  C_9 
REMARK       I    between atoms: C_11  and  N_10 
REMARK   11  A    between atoms: C_12  and  C_11 
REMARK   12  A    between atoms: C_12  and  C_13 
REMARK   13  A    between atoms: N_21  and  C_12 
REMARK   14  A    between atoms: C_14  and  C_13 
REMARK   15  A    between atoms: O_20  and  C_17 
REMARK   16  A    between atoms: O_20  and  S_91 
REMARK       I    between atoms: C_22  and  N_21 
REMARK   17  A    between atoms: C_23  and  C_22 
REMARK   18  A    between atoms: C_23  and  C_36 
REMARK   19  A    between atoms: N_24  and  C_23 
REMARK       I    between atoms: C_25  and  N_24 
REMARK   20  A    between atoms: C_26  and  C_25 
REMARK   21  A    between atoms: N_27  and  C_26 
REMARK   22  A    between atoms: C_26  and  C_30 
REMARK       I    between atoms: C_28  and  N_27 
REMARK   23  A    between atoms: C_31  and  C_30 
REMARK   24  A    between atoms: C_32  and  C_31 
REMARK       I    between atoms: N_33  and  C_32 
REMARK   25  A    between atoms: C_37  and  C_36 
REMARK   26  A    between atoms: O_39  and  C_37 
REMARK   27  A    between atoms: C_42  and  O_44 
REMARK       I    between atoms: N_48  and  C_47 
REMARK   28  A    between atoms: C_50  and  N_48 
REMARK   29  A    between atoms: C_51  and  C_50 
REMARK   30  A    between atoms: C_55  and  C_50 
REMARK   31  A    between atoms: C_52  and  C_51 
REMARK   32  A    between atoms: S_53  and  C_52 
REMARK       I    between atoms: N_56  and  C_55 
REMARK   33  A    between atoms: C_57  and  N_56 
REMARK   34  A    between atoms: C_58  and  C_57 
REMARK   35  A    between atoms: C_57  and  C_62 
REMARK   36  A    between atoms: C_59  and  C_58 
REMARK   37  A    between atoms: O_60  and  C_59 
REMARK       I    between atoms: N_65  and  C_62 
REMARK   38  A    between atoms: C_66  and  N_65 
REMARK   39  A    between atoms: C_67  and  C_66 
REMARK   40  A    between atoms: C_68  and  C_66 
REMARK   41  A    between atoms: C_71  and  C_67 
REMARK       I    between atoms: N_70  and  C_68 
REMARK   42  A    between atoms: S_91  and  O_92 
ROOT
HETATM    1  N   UNK N   1      30.854   9.286   3.213  0.00  0.00    -0.350 N 
HETATM    2  C   UNK N   1      30.415   9.751   2.065  0.00  0.00     0.243 C 
HETATM    3  O   UNK N   1      30.359   8.973   1.129  0.00  0.00    -0.271 OA
HETATM    4  H   UNK N   1      30.498   8.455   3.604  0.00  0.00     0.163 HD
ENDROOT
BRANCH   2   5
HETATM    5  C   UNK N   1      29.906  11.180   1.964  0.00  0.00     0.205 C 
BRANCH   5   6
HETATM    6  N   UNK N   1      28.468  11.053   1.942  0.00  0.00    -0.344 N 
HETATM    7  C   UNK N   1      27.712  11.544   2.945  0.00  0.00     0.241 C 
HETATM    8  O   UNK N   1      28.215  11.821   4.022  0.00  0.00    -0.271 OA
HETATM    9  H   UNK N   1      28.033  10.601   1.183  0.00  0.00     0.163 HD
BRANCH   7  10
HETATM   10  C   UNK N   1      26.277  11.822   2.732  0.00  0.00     0.180 C 
BRANCH  10  11
HETATM   11  C   UNK N   1      26.063  12.992   1.741  0.00  0.00     0.073 C 
BRANCH  11  12
HETATM   12  C   UNK N   1      26.534  14.363   2.207  0.00  0.00    -0.056 A 
HETATM   13  C   UNK N   1      27.890  14.737   2.200  0.00  0.00     0.010 A 
HETATM   14  C   UNK N   1      28.294  15.963   2.745  0.00  0.00     0.039 A 
HETATM   15  C   UNK N   1      27.347  16.845   3.287  0.00  0.00     0.091 A 
HETATM   16  C   UNK N   1      25.992  16.503   3.241  0.00  0.00     0.039 A 
HETATM   17  C   UNK N   1      25.590  15.267   2.715  0.00  0.00     0.010 A 
BRANCH  15  18
HETATM   18  O   UNK N   1      27.718  17.996   3.897  0.00  0.00    -0.221 OA
BRANCH  18  19
HETATM   19  S   UNK N   1      27.105  18.439   5.423  0.00  0.00     0.245 S 
HETATM   20  O   UNK N   1      28.060  19.498   5.978  0.00  0.00    -0.579 OA
HETATM   21  O   UNK N   1      25.752  19.158   5.298  0.00  0.00    -0.579 OA
BRANCH  19  22
HETATM   22  O   UNK N   1      27.016  17.184   6.591  0.00  0.00    -0.273 OA
HETATM   23  H   UNK N   1      26.711  17.355   7.496  0.00  0.00     0.234 HD
ENDBRANCH  19  22
ENDBRANCH  18  19
ENDBRANCH  15  18
ENDBRANCH  11  12
ENDBRANCH  10  11
BRANCH  10  24
HETATM   24  N   UNK N   1      25.772  12.069   4.052  0.00  0.00    -0.346 N 
HETATM   25  C   UNK N   1      24.475  11.880   4.438  0.00  0.00     0.241 C 
HETATM   26  O   UNK N   1      23.720  11.151   3.808  0.00  0.00    -0.271 OA
HETATM   27  H   UNK N   1      26.407  12.398   4.730  0.00  0.00     0.163 HD
BRANCH  25  28
HETATM   28  C   UNK N   1      23.954  12.682   5.583  0.00  0.00     0.186 C 
BRANCH  28  29
HETATM   29  C   UNK N   1      25.070  12.728   6.653  0.00  0.00     0.144 C 
BRANCH  29  30
HETATM   30  C   UNK N   1      25.861  14.014   6.738  0.00  0.00     0.141 C 
HETATM   31  O   UNK N   1      26.715  14.248   5.899  0.00  0.00    -0.650 OA
BRANCH  30  32
HETATM   32  O   UNK N   1      25.632  14.907   7.721  0.00  0.00    -0.776 OA
HETATM   33  H   UNK N   1      25.878  15.760   8.023  0.00  0.00     0.167 HD
ENDBRANCH  30  32
ENDBRANCH  29  30
ENDBRANCH  28  29
BRANCH  28  34
HETATM   34  N   UNK N   1      22.770  12.030   6.099  0.00  0.00    -0.346 N 
HETATM   35  C   UNK N   1      22.009  12.554   7.097  0.00  0.00     0.241 C 
HETATM   36  O   UNK N   1      20.952  12.014   7.373  0.00  0.00    -0.271 OA
HETATM   37  H   UNK N   1      22.503  11.166   5.711  0.00  0.00     0.163 HD
BRANCH  35  38
HETATM   38  C   UNK N   1      22.466  13.726   7.944  0.00  0.00     0.177 C 
BRANCH  38  39
HETATM   39  N   UNK N   1      21.537  14.801   7.777  0.00  0.00    -0.346 N 
HETATM   40  C   UNK N   1      21.862  15.842   6.986  0.00  0.00     0.241 C 
HETATM   41  O   UNK N   1      22.988  15.924   6.513  0.00  0.00    -0.271 OA
HETATM   42  H   UNK N   1      20.666  14.779   8.235  0.00  0.00     0.163 HD
BRANCH  40  43
HETATM   43  C   UNK N   1      20.814  16.849   6.633  0.00  0.00     0.177 C 
HETATM   44  N   UNK N   1      21.078  17.342   5.313  0.00  0.00    -0.348 N 
HETATM   45  C   UNK N   1      20.221  16.848   4.425  0.00  0.00     0.218 C 
HETATM   46  H   UNK N   1      21.804  17.969   5.092  0.00  0.00     0.163 HD
HETATM   47  C   UNK N   1      19.185  15.968   4.997  0.00  0.00     0.105 C 
HETATM   48  O   UNK N   1      20.319  17.082   3.232  0.00  0.00    -0.274 OA
HETATM   49  C   UNK N   1      19.467  16.109   6.499  0.00  0.00     0.044 C 
ENDBRANCH  40  43
ENDBRANCH  38  39
BRANCH  38  50
HETATM   50  C   UNK N   1      22.755  13.549   9.427  0.00  0.00     0.044 C 
BRANCH  50  51
HETATM   51  C   UNK N   1      23.462  12.246   9.736  0.00  0.00     0.105 C 
BRANCH  51  52
HETATM   52  C   UNK N   1      24.592  12.529  10.674  0.00  0.00     0.215 C 
HETATM   53  N   UNK N   1      25.526  13.446  10.350  0.00  0.00    -0.370 N 
HETATM   54  H   UNK N   1      25.377  14.265   9.824  0.00  0.00     0.159 HD
HETATM   55  H   UNK N   1      26.442  13.281  10.668  0.00  0.00     0.159 HD
HETATM   56  O   UNK N   1      24.673  11.930  11.734  0.00  0.00    -0.274 OA
ENDBRANCH  51  52
ENDBRANCH  50  51
ENDBRANCH  38  50
ENDBRANCH  35  38
ENDBRANCH  28  34
ENDBRANCH  25  28
ENDBRANCH  10  24
ENDBRANCH   7  10
ENDBRANCH   5   6
BRANCH   5  57
HETATM   57  C   UNK N   1      30.539  12.016   0.824  0.00  0.00     0.146 C 
HETATM   58  C   UNK N   1      29.650  12.083  -0.403  0.00  0.00     0.042 C 
BRANCH  57  59
HETATM   59  O   UNK N   1      31.829  11.632   0.466  0.00  0.00    -0.393 OA
HETATM   60  H   UNK N   1      32.494  11.318  -0.167  0.00  0.00     0.210 HD
ENDBRANCH  57  59
ENDBRANCH   5  57
ENDBRANCH   2   5
BRANCH   1  61
HETATM   61  C   UNK N   1      31.850  10.027   3.852  0.00  0.00     0.225 C 
BRANCH  61  62
HETATM   62  C   UNK N   1      31.115  10.572   5.028  0.00  0.00     0.236 C 
HETATM   63  N   UNK N   1      31.254  11.870   5.329  0.00  0.00    -0.346 N 
HETATM   64  H   UNK N   1      30.608  12.343   5.902  0.00  0.00     0.163 HD
HETATM   65  O   UNK N   1      30.345   9.866   5.663  0.00  0.00    -0.272 OA
BRANCH  63  66
HETATM   66  C   UNK N   1      32.394  12.531   4.770  0.00  0.00     0.181 C 
BRANCH  66  67
HETATM   67  C   UNK N   1      32.040  13.898   4.217  0.00  0.00     0.075 C 
BRANCH  67  68
HETATM   68  C   UNK N   1      31.263  14.759   5.132  0.00  0.00    -0.028 A 
HETATM   69  C   UNK N   1      29.889  14.709   5.340  0.00  0.00     0.096 A 
HETATM   70  N   UNK N   1      29.545  15.603   6.291  0.00  0.00    -0.365 N 
HETATM   71  C   UNK N   1      30.697  16.201   6.678  0.00  0.00     0.042 A 
HETATM   72  H   UNK N   1      28.641  15.784   6.634  0.00  0.00     0.165 HD
HETATM   73  C   UNK N   1      31.755  15.700   5.981  0.00  0.00    -0.002 A 
HETATM   74  C   UNK N   1      30.842  17.172   7.653  0.00  0.00     0.030 A 
HETATM   75  C   UNK N   1      33.061  16.140   6.214  0.00  0.00     0.014 A 
HETATM   76  C   UNK N   1      33.249  17.127   7.197  0.00  0.00     0.001 A 
HETATM   77  C   UNK N   1      32.145  17.642   7.914  0.00  0.00     0.002 A 
ENDBRANCH  67  68
ENDBRANCH  66  67
BRANCH  66  78
HETATM   78  C   UNK N   1      33.459  12.321   5.802  0.00  0.00     0.241 C 
HETATM   79  N   UNK N   1      33.097  12.286   7.122  0.00  0.00    -0.346 N 
HETATM   80  H   UNK N   1      32.169  12.004   7.298  0.00  0.00     0.163 HD
HETATM   81  O   UNK N   1      34.613  12.490   5.457  0.00  0.00    -0.271 OA
BRANCH  79  82
HETATM   82  C   UNK N   1      33.894  12.607   8.311  0.00  0.00     0.177 C 
BRANCH  82  83
HETATM   83  C   UNK N   1      34.034  11.305   9.131  0.00  0.00     0.045 C 
BRANCH  83  84
HETATM   84  C   UNK N   1      33.061  10.206   8.694  0.00  0.00     0.076 C 
BRANCH  84  85
HETATM   85  S   UNK N   1      33.455   8.601   9.435  0.00  0.00    -0.173 SA
HETATM   86  C   UNK N   1      31.717   8.299   9.869  0.00  0.00     0.089 C 
ENDBRANCH  84  85
ENDBRANCH  83  84
ENDBRANCH  82  83
BRANCH  82  87
HETATM   87  C   UNK N   1      33.326  13.749   9.160  0.00  0.00     0.241 C 
HETATM   88  N   UNK N   1      34.082  14.414  10.066  0.00  0.00    -0.346 N 
HETATM   89  H   UNK N   1      33.655  15.146  10.567  0.00  0.00     0.163 HD
HETATM   90  O   UNK N   1      32.150  14.065   9.046  0.00  0.00    -0.271 OA
BRANCH  88  91
HETATM   91  C   UNK N   1      35.466  14.125  10.347  0.00  0.00     0.186 C 
BRANCH  91  92
HETATM   92  C   UNK N   1      36.245  15.433  10.179  0.00  0.00     0.144 C 
BRANCH  92  93
HETATM   93  C   UNK N   1      35.436  16.662  10.457  0.00  0.00     0.141 C 
HETATM   94  O   UNK N   1      35.316  17.531   9.609  0.00  0.00    -0.650 OA
BRANCH  93  95
HETATM   95  O   UNK N   1      34.899  16.842  11.676  0.00  0.00    -0.776 OA
HETATM   96  H   UNK N   1      35.035  16.230  12.372  0.00  0.00     0.167 HD
ENDBRANCH  93  95
ENDBRANCH  92  93
ENDBRANCH  91  92
BRANCH  91  97
HETATM   97  C   UNK N   1      35.575  13.560  11.724  0.00  0.00     0.241 C 
HETATM   98  O   UNK N   1      35.637  14.309  12.688  0.00  0.00    -0.271 OA
HETATM   99  N   UNK N   1      35.628  12.218  11.877  0.00  0.00    -0.346 N 
HETATM  100  H   UNK N   1      35.614  11.670  11.058  0.00  0.00     0.163 HD
BRANCH  99 101
HETATM  101  C   UNK N   1      35.704  11.523  13.136  0.00  0.00     0.180 C 
BRANCH 101 102
HETATM  102  C   UNK N   1      34.485  11.488  14.067  0.00  0.00     0.073 C 
BRANCH 102 103
HETATM  103  C   UNK N   1      34.788  11.739  15.510  0.00  0.00    -0.056 A 
HETATM  104  C   UNK N   1      34.793  13.051  16.001  0.00  0.00     0.007 A 
HETATM  105  C   UNK N   1      35.006  13.291  17.363  0.00  0.00     0.001 A 
HETATM  106  C   UNK N   1      35.199  12.218  18.239  0.00  0.00     0.000 A 
HETATM  107  C   UNK N   1      35.185  10.907  17.752  0.00  0.00     0.001 A 
HETATM  108  C   UNK N   1      34.977  10.668  16.390  0.00  0.00     0.007 A 
ENDBRANCH 102 103
ENDBRANCH 101 102
BRANCH 101 109
HETATM  109  C   UNK N   1      37.089  11.146  13.559  0.00  0.00     0.238 C 
HETATM  110  O   UNK N   1      37.534  10.041  13.295  0.00  0.00    -0.271 OA
HETATM  111  N   UNK N   1      37.873  12.049  14.186  0.00  0.00    -0.368 N 
HETATM  112  H   UNK N   1      37.683  12.898  14.647  0.00  0.00     0.159 HD
HETATM  113  H   UNK N   1      38.828  11.809  14.182  0.00  0.00     0.159 HD
ENDBRANCH 101 109
ENDBRANCH  99 101
ENDBRANCH  91  97
ENDBRANCH  88  91
ENDBRANCH  82  87
ENDBRANCH  79  82
ENDBRANCH  66  78
ENDBRANCH  63  66
ENDBRANCH  61  62
ENDBRANCH   1  61
TORSDOF 42
ENDMDL
MODEL 7
REMARK VINA RESULT:      -7.8      2.821      5.161
REMARK WARNING: 32 MAX_TORS EXCEEDED!!!
REMARK  42 active torsions:
REMARK  status: ('A' for Active; 'I' for Inactive)
REMARK    1  A    between atoms: C_1  and  C_28 
REMARK    2  A    between atoms: C_3  and  C_2 
REMARK    3  A    between atoms: C_2  and  C_82 
REMARK    4  A    between atoms: C_3  and  C_47 
REMARK    5  A    between atoms: N_4  and  C_3 
REMARK       I    between atoms: C_5  and  N_4 
REMARK    6  A    between atoms: C_6  and  C_5 
REMARK    7  A    between atoms: N_7  and  C_6 
REMARK       I    between atoms: C_8  and  N_7 
REMARK    8  A    between atoms: C_9  and  C_8 
REMARK    9  A    between atoms: N_10  and  C_9 
REMARK   10  A    between atoms: C_42  and  C_9 
REMARK       I    between atoms: C_11  and  N_10 
REMARK   11  A    between atoms: C_12  and  C_11 
REMARK   12  A    between atoms: C_12  and  C_13 
REMARK   13  A    between atoms: N_21  and  C_12 
REMARK   14  A    between atoms: C_14  and  C_13 
REMARK   15  A    between atoms: O_20  and  C_17 
REMARK   16  A    between atoms: O_20  and  S_91 
REMARK       I    between atoms: C_22  and  N_21 
REMARK   17  A    between atoms: C_23  and  C_22 
REMARK   18  A    between atoms: C_23  and  C_36 
REMARK   19  A    between atoms: N_24  and  C_23 
REMARK       I    between atoms: C_25  and  N_24 
REMARK   20  A    between atoms: C_26  and  C_25 
REMARK   21  A    between atoms: N_27  and  C_26 
REMARK   22  A    between atoms: C_26  and  C_30 
REMARK       I    between atoms: C_28  and  N_27 
REMARK   23  A    between atoms: C_31  and  C_30 
REMARK   24  A    between atoms: C_32  and  C_31 
REMARK       I    between atoms: N_33  and  C_32 
REMARK   25  A    between atoms: C_37  and  C_36 
REMARK   26  A    between atoms: O_39  and  C_37 
REMARK   27  A    between atoms: C_42  and  O_44 
REMARK       I    between atoms: N_48  and  C_47 
REMARK   28  A    between atoms: C_50  and  N_48 
REMARK   29  A    between atoms: C_51  and  C_50 
REMARK   30  A    between atoms: C_55  and  C_50 
REMARK   31  A    between atoms: C_52  and  C_51 
REMARK   32  A    between atoms: S_53  and  C_52 
REMARK       I    between atoms: N_56  and  C_55 
REMARK   33  A    between atoms: C_57  and  N_56 
REMARK   34  A    between atoms: C_58  and  C_57 
REMARK   35  A    between atoms: C_57  and  C_62 
REMARK   36  A    between atoms: C_59  and  C_58 
REMARK   37  A    between atoms: O_60  and  C_59 
REMARK       I    between atoms: N_65  and  C_62 
REMARK   38  A    between atoms: C_66  and  N_65 
REMARK   39  A    between atoms: C_67  and  C_66 
REMARK   40  A    between atoms: C_68  and  C_66 
REMARK   41  A    between atoms: C_71  and  C_67 
REMARK       I    between atoms: N_70  and  C_68 
REMARK   42  A    between atoms: S_91  and  O_92 
ROOT
HETATM    1  N   UNK N   1      28.139  14.952   3.044  0.00  0.00    -0.350 N 
HETATM    2  C   UNK N   1      26.984  15.577   3.091  0.00  0.00     0.243 C 
HETATM    3  O   UNK N   1      26.391  15.739   2.039  0.00  0.00    -0.271 OA
HETATM    4  H   UNK N   1      28.245  14.098   2.567  0.00  0.00     0.163 HD
ENDROOT
BRANCH   2   5
HETATM    5  C   UNK N   1      26.385  15.978   4.430  0.00  0.00     0.205 C 
BRANCH   5   6
HETATM    6  N   UNK N   1      25.256  15.095   4.602  0.00  0.00    -0.344 N 
HETATM    7  C   UNK N   1      25.101  14.377   5.733  0.00  0.00     0.241 C 
HETATM    8  O   UNK N   1      26.040  14.209   6.494  0.00  0.00    -0.271 OA
HETATM    9  H   UNK N   1      24.588  15.016   3.882  0.00  0.00     0.163 HD
BRANCH   7  10
HETATM   10  C   UNK N   1      23.775  13.843   6.104  0.00  0.00     0.180 C 
BRANCH  10  11
HETATM   11  C   UNK N   1      23.302  12.750   5.113  0.00  0.00     0.073 C 
BRANCH  11  12
HETATM   12  C   UNK N   1      23.546  11.308   5.536  0.00  0.00    -0.056 A 
HETATM   13  C   UNK N   1      23.480  10.895   6.878  0.00  0.00     0.010 A 
HETATM   14  C   UNK N   1      23.825   9.585   7.239  0.00  0.00     0.039 A 
HETATM   15  C   UNK N   1      24.222   8.661   6.260  0.00  0.00     0.091 A 
HETATM   16  C   UNK N   1      24.230   9.052   4.917  0.00  0.00     0.039 A 
HETATM   17  C   UNK N   1      23.905  10.368   4.559  0.00  0.00     0.010 A 
BRANCH  15  18
HETATM   18  O   UNK N   1      24.642   7.417   6.589  0.00  0.00    -0.221 OA
BRANCH  18  19
HETATM   19  S   UNK N   1      23.568   6.235   7.181  0.00  0.00     0.245 S 
HETATM   20  O   UNK N   1      22.160   6.724   6.834  0.00  0.00    -0.579 OA
HETATM   21  O   UNK N   1      23.720   4.907   6.423  0.00  0.00    -0.579 OA
BRANCH  19  22
HETATM   22  O   UNK N   1      23.601   5.970   8.877  0.00  0.00    -0.273 OA
HETATM   23  H   UNK N   1      22.834   5.610   9.348  0.00  0.00     0.234 HD
ENDBRANCH  19  22
ENDBRANCH  18  19
ENDBRANCH  15  18
ENDBRANCH  11  12
ENDBRANCH  10  11
BRANCH  10  24
HETATM   24  N   UNK N   1      22.933  15.004   6.143  0.00  0.00    -0.346 N 
HETATM   25  C   UNK N   1      21.804  15.121   6.904  0.00  0.00     0.241 C 
HETATM   26  O   UNK N   1      21.610  14.405   7.878  0.00  0.00    -0.271 OA
HETATM   27  H   UNK N   1      23.188  15.773   5.583  0.00  0.00     0.163 HD
BRANCH  25  28
HETATM   28  C   UNK N   1      20.741  16.066   6.451  0.00  0.00     0.186 C 
BRANCH  28  29
HETATM   29  C   UNK N   1      20.084  16.656   7.721  0.00  0.00     0.144 C 
BRANCH  29  30
HETATM   30  C   UNK N   1      20.309  18.131   7.966  0.00  0.00     0.141 C 
HETATM   31  O   UNK N   1      20.976  18.774   7.173  0.00  0.00    -0.650 OA
BRANCH  30  32
HETATM   32  O   UNK N   1      19.778  18.747   9.041  0.00  0.00    -0.776 OA
HETATM   33  H   UNK N   1      19.667  19.589   9.436  0.00  0.00     0.167 HD
ENDBRANCH  30  32
ENDBRANCH  29  30
ENDBRANCH  28  29
BRANCH  28  34
HETATM   34  N   UNK N   1      19.776  15.328   5.666  0.00  0.00    -0.346 N 
HETATM   35  C   UNK N   1      19.715  15.396   4.309  0.00  0.00     0.241 C 
HETATM   36  O   UNK N   1      18.969  14.635   3.717  0.00  0.00    -0.271 OA
HETATM   37  H   UNK N   1      19.132  14.750   6.135  0.00  0.00     0.163 HD
BRANCH  35  38
HETATM   38  C   UNK N   1      20.464  16.444   3.509  0.00  0.00     0.177 C 
BRANCH  38  39
HETATM   39  N   UNK N   1      20.883  15.862   2.271  0.00  0.00    -0.346 N 
HETATM   40  C   UNK N   1      22.120  15.339   2.169  0.00  0.00     0.241 C 
HETATM   41  O   UNK N   1      22.919  15.471   3.087  0.00  0.00    -0.271 OA
HETATM   42  H   UNK N   1      20.271  15.841   1.501  0.00  0.00     0.163 HD
BRANCH  40  43
HETATM   43  C   UNK N   1      22.479  14.535   0.960  0.00  0.00     0.177 C 
HETATM   44  N   UNK N   1      23.878  14.230   1.010  0.00  0.00    -0.348 N 
HETATM   45  C   UNK N   1      24.091  12.957   1.329  0.00  0.00     0.218 C 
HETATM   46  H   UNK N   1      24.593  14.883   0.830  0.00  0.00     0.163 HD
HETATM   47  C   UNK N   1      22.865  12.156   1.502  0.00  0.00     0.105 C 
HETATM   48  O   UNK N   1      25.214  12.512   1.499  0.00  0.00    -0.274 OA
HETATM   49  C   UNK N   1      21.787  13.162   1.078  0.00  0.00     0.044 C 
ENDBRANCH  40  43
ENDBRANCH  38  39
BRANCH  38  50
HETATM   50  C   UNK N   1      19.840  17.803   3.229  0.00  0.00     0.044 C 
BRANCH  50  51
HETATM   51  C   UNK N   1      20.365  18.442   1.961  0.00  0.00     0.105 C 
BRANCH  51  52
HETATM   52  C   UNK N   1      20.770  19.849   2.269  0.00  0.00     0.215 C 
HETATM   53  N   UNK N   1      20.380  20.426   3.423  0.00  0.00    -0.370 N 
HETATM   54  H   UNK N   1      20.250  19.970   4.286  0.00  0.00     0.159 HD
HETATM   55  H   UNK N   1      20.211  21.396   3.402  0.00  0.00     0.159 HD
HETATM   56  O   UNK N   1      21.452  20.477   1.477  0.00  0.00    -0.274 OA
ENDBRANCH  51  52
ENDBRANCH  50  51
ENDBRANCH  38  50
ENDBRANCH  35  38
ENDBRANCH  28  34
ENDBRANCH  25  28
ENDBRANCH  10  24
ENDBRANCH   7  10
ENDBRANCH   5   6
BRANCH   5  57
HETATM   57  C   UNK N   1      26.104  17.492   4.588  0.00  0.00     0.146 C 
HETATM   58  C   UNK N   1      24.621  17.811   4.537  0.00  0.00     0.042 C 
BRANCH  57  59
HETATM   59  O   UNK N   1      26.805  18.312   3.707  0.00  0.00    -0.393 OA
HETATM   60  H   UNK N   1      27.157  19.167   3.415  0.00  0.00     0.210 HD
ENDBRANCH  57  59
ENDBRANCH   5  57
ENDBRANCH   2   5
BRANCH   1  61
HETATM   61  C   UNK N   1      29.209  15.560   3.705  0.00  0.00     0.225 C 
BRANCH  61  62
HETATM   62  C   UNK N   1      29.582  14.517   4.701  0.00  0.00     0.236 C 
HETATM   63  N   UNK N   1      30.720  14.664   5.393  0.00  0.00    -0.346 N 
HETATM   64  H   UNK N   1      30.885  14.176   6.231  0.00  0.00     0.163 HD
HETATM   65  O   UNK N   1      28.831  13.580   4.933  0.00  0.00    -0.272 OA
BRANCH  63  66
HETATM   66  C   UNK N   1      31.681  15.571   4.845  0.00  0.00     0.181 C 
BRANCH  66  67
HETATM   67  C   UNK N   1      31.415  17.002   5.271  0.00  0.00     0.075 C 
BRANCH  67  68
HETATM   68  C   UNK N   1      31.292  17.206   6.729  0.00  0.00    -0.028 A 
HETATM   69  C   UNK N   1      32.341  17.336   7.632  0.00  0.00     0.096 A 
HETATM   70  N   UNK N   1      31.846  17.571   8.865  0.00  0.00    -0.365 N 
HETATM   71  C   UNK N   1      30.499  17.594   8.732  0.00  0.00     0.042 A 
HETATM   72  H   UNK N   1      32.360  17.699   9.695  0.00  0.00     0.165 HD
HETATM   73  C   UNK N   1      30.142  17.373   7.436  0.00  0.00    -0.002 A 
HETATM   74  C   UNK N   1      29.568  17.828   9.728  0.00  0.00     0.030 A 
HETATM   75  C   UNK N   1      28.803  17.370   7.033  0.00  0.00     0.014 A 
HETATM   76  C   UNK N   1      27.828  17.603   8.018  0.00  0.00     0.001 A 
HETATM   77  C   UNK N   1      28.207  17.831   9.361  0.00  0.00     0.002 A 
ENDBRANCH  67  68
ENDBRANCH  66  67
BRANCH  66  78
HETATM   78  C   UNK N   1      32.989  14.880   5.082  0.00  0.00     0.241 C 
HETATM   79  N   UNK N   1      32.994  13.715   5.801  0.00  0.00    -0.346 N 
HETATM   80  H   UNK N   1      32.155  13.199   5.776  0.00  0.00     0.163 HD
HETATM   81  O   UNK N   1      34.003  15.524   4.894  0.00  0.00    -0.271 OA
BRANCH  79  82
HETATM   82  C   UNK N   1      34.072  13.124   6.601  0.00  0.00     0.177 C 
BRANCH  82  83
HETATM   83  C   UNK N   1      34.521  11.834   5.879  0.00  0.00     0.045 C 
BRANCH  83  84
HETATM   84  C   UNK N   1      35.904  11.344   6.319  0.00  0.00     0.076 C 
BRANCH  84  85
HETATM   85  S   UNK N   1      36.547  10.037   5.241  0.00  0.00    -0.173 SA
HETATM   86  C   UNK N   1      35.164  10.221   4.078  0.00  0.00     0.089 C 
ENDBRANCH  84  85
ENDBRANCH  83  84
ENDBRANCH  82  83
BRANCH  82  87
HETATM   87  C   UNK N   1      33.696  12.851   8.061  0.00  0.00     0.241 C 
HETATM   88  N   UNK N   1      34.442  13.313   9.092  0.00  0.00    -0.346 N 
HETATM   89  H   UNK N   1      34.134  13.111  10.005  0.00  0.00     0.163 HD
HETATM   90  O   UNK N   1      32.709  12.176   8.319  0.00  0.00    -0.271 OA
BRANCH  88  91
HETATM   91  C   UNK N   1      35.655  14.078   8.948  0.00  0.00     0.186 C 
BRANCH  91  92
HETATM   92  C   UNK N   1      35.253  15.552   8.850  0.00  0.00     0.144 C 
BRANCH  92  93
HETATM   93  C   UNK N   1      34.975  16.195  10.174  0.00  0.00     0.141 C 
HETATM   94  O   UNK N   1      35.577  17.200  10.514  0.00  0.00    -0.650 OA
BRANCH  93  95
HETATM   95  O   UNK N   1      34.108  15.617  11.023  0.00  0.00    -0.776 OA
HETATM   96  H   UNK N   1      34.104  14.692  11.174  0.00  0.00     0.167 HD
ENDBRANCH  93  95
ENDBRANCH  92  93
ENDBRANCH  91  92
BRANCH  91  97
HETATM   97  C   UNK N   1      36.549  13.798  10.110  0.00  0.00     0.241 C 
HETATM   98  O   UNK N   1      37.711  14.178  10.091  0.00  0.00    -0.271 OA
HETATM   99  N   UNK N   1      36.057  13.103  11.160  0.00  0.00    -0.346 N 
HETATM  100  H   UNK N   1      35.126  12.791  11.097  0.00  0.00     0.163 HD
BRANCH  99 101
HETATM  101  C   UNK N   1      36.782  12.781  12.361  0.00  0.00     0.180 C 
BRANCH 101 102
HETATM  102  C   UNK N   1      37.636  11.508  12.424  0.00  0.00     0.073 C 
BRANCH 102 103
HETATM  103  C   UNK N   1      36.861  10.237  12.561  0.00  0.00    -0.056 A 
HETATM  104  C   UNK N   1      36.711   9.393  11.453  0.00  0.00     0.007 A 
HETATM  105  C   UNK N   1      36.048   8.168  11.588  0.00  0.00     0.001 A 
HETATM  106  C   UNK N   1      35.548   7.778  12.835  0.00  0.00     0.000 A 
HETATM  107  C   UNK N   1      35.706   8.615  13.943  0.00  0.00     0.001 A 
HETATM  108  C   UNK N   1      36.364   9.841  13.807  0.00  0.00     0.007 A 
ENDBRANCH 102 103
ENDBRANCH 101 102
BRANCH 101 109
HETATM  109  C   UNK N   1      36.387  13.582  13.563  0.00  0.00     0.238 C 
HETATM  110  O   UNK N   1      35.348  14.219  13.563  0.00  0.00    -0.271 OA
HETATM  111  N   UNK N   1      37.153  13.555  14.675  0.00  0.00    -0.368 N 
HETATM  112  H   UNK N   1      38.083  13.275  14.844  0.00  0.00     0.159 HD
HETATM  113  H   UNK N   1      36.689  13.881  15.479  0.00  0.00     0.159 HD
ENDBRANCH 101 109
ENDBRANCH  99 101
ENDBRANCH  91  97
ENDBRANCH  88  91
ENDBRANCH  82  87
ENDBRANCH  79  82
ENDBRANCH  66  78
ENDBRANCH  63  66
ENDBRANCH  61  62
ENDBRANCH   1  61
TORSDOF 42
ENDMDL
MODEL 8
REMARK VINA RESULT:      -7.8      2.573     13.247
REMARK WARNING: 32 MAX_TORS EXCEEDED!!!
REMARK  42 active torsions:
REMARK  status: ('A' for Active; 'I' for Inactive)
REMARK    1  A    between atoms: C_1  and  C_28 
REMARK    2  A    between atoms: C_3  and  C_2 
REMARK    3  A    between atoms: C_2  and  C_82 
REMARK    4  A    between atoms: C_3  and  C_47 
REMARK    5  A    between atoms: N_4  and  C_3 
REMARK       I    between atoms: C_5  and  N_4 
REMARK    6  A    between atoms: C_6  and  C_5 
REMARK    7  A    between atoms: N_7  and  C_6 
REMARK       I    between atoms: C_8  and  N_7 
REMARK    8  A    between atoms: C_9  and  C_8 
REMARK    9  A    between atoms: N_10  and  C_9 
REMARK   10  A    between atoms: C_42  and  C_9 
REMARK       I    between atoms: C_11  and  N_10 
REMARK   11  A    between atoms: C_12  and  C_11 
REMARK   12  A    between atoms: C_12  and  C_13 
REMARK   13  A    between atoms: N_21  and  C_12 
REMARK   14  A    between atoms: C_14  and  C_13 
REMARK   15  A    between atoms: O_20  and  C_17 
REMARK   16  A    between atoms: O_20  and  S_91 
REMARK       I    between atoms: C_22  and  N_21 
REMARK   17  A    between atoms: C_23  and  C_22 
REMARK   18  A    between atoms: C_23  and  C_36 
REMARK   19  A    between atoms: N_24  and  C_23 
REMARK       I    between atoms: C_25  and  N_24 
REMARK   20  A    between atoms: C_26  and  C_25 
REMARK   21  A    between atoms: N_27  and  C_26 
REMARK   22  A    between atoms: C_26  and  C_30 
REMARK       I    between atoms: C_28  and  N_27 
REMARK   23  A    between atoms: C_31  and  C_30 
REMARK   24  A    between atoms: C_32  and  C_31 
REMARK       I    between atoms: N_33  and  C_32 
REMARK   25  A    between atoms: C_37  and  C_36 
REMARK   26  A    between atoms: O_39  and  C_37 
REMARK   27  A    between atoms: C_42  and  O_44 
REMARK       I    between atoms: N_48  and  C_47 
REMARK   28  A    between atoms: C_50  and  N_48 
REMARK   29  A    between atoms: C_51  and  C_50 
REMARK   30  A    between atoms: C_55  and  C_50 
REMARK   31  A    between atoms: C_52  and  C_51 
REMARK   32  A    between atoms: S_53  and  C_52 
REMARK       I    between atoms: N_56  and  C_55 
REMARK   33  A    between atoms: C_57  and  N_56 
REMARK   34  A    between atoms: C_58  and  C_57 
REMARK   35  A    between atoms: C_57  and  C_62 
REMARK   36  A    between atoms: C_59  and  C_58 
REMARK   37  A    between atoms: O_60  and  C_59 
REMARK       I    between atoms: N_65  and  C_62 
REMARK   38  A    between atoms: C_66  and  N_65 
REMARK   39  A    between atoms: C_67  and  C_66 
REMARK   40  A    between atoms: C_68  and  C_66 
REMARK   41  A    between atoms: C_71  and  C_67 
REMARK       I    between atoms: N_70  and  C_68 
REMARK   42  A    between atoms: S_91  and  O_92 
ROOT
HETATM    1  N   UNK N   1      27.313  15.434   4.883  0.00  0.00    -0.350 N 
HETATM    2  C   UNK N   1      27.483  16.504   5.626  0.00  0.00     0.243 C 
HETATM    3  O   UNK N   1      27.072  16.463   6.772  0.00  0.00    -0.271 OA
HETATM    4  H   UNK N   1      27.564  14.537   5.203  0.00  0.00     0.163 HD
ENDROOT
BRANCH   2   5
HETATM    5  C   UNK N   1      28.259  17.695   5.086  0.00  0.00     0.205 C 
BRANCH   5   6
HETATM    6  N   UNK N   1      29.640  17.389   5.371  0.00  0.00    -0.344 N 
HETATM    7  C   UNK N   1      30.526  17.182   4.375  0.00  0.00     0.241 C 
HETATM    8  O   UNK N   1      30.140  16.940   3.243  0.00  0.00    -0.271 OA
HETATM    9  H   UNK N   1      29.940  17.330   6.307  0.00  0.00     0.163 HD
BRANCH   7  10
HETATM   10  C   UNK N   1      31.975  17.317   4.624  0.00  0.00     0.180 C 
BRANCH  10  11
HETATM   11  C   UNK N   1      32.798  16.336   3.753  0.00  0.00     0.073 C 
BRANCH  11  12
HETATM   12  C   UNK N   1      33.039  14.952   4.341  0.00  0.00    -0.056 A 
HETATM   13  C   UNK N   1      31.988  14.068   4.641  0.00  0.00     0.010 A 
HETATM   14  C   UNK N   1      32.244  12.851   5.290  0.00  0.00     0.039 A 
HETATM   15  C   UNK N   1      33.557  12.490   5.629  0.00  0.00     0.091 A 
HETATM   16  C   UNK N   1      34.610  13.340   5.277  0.00  0.00     0.039 A 
HETATM   17  C   UNK N   1      34.352  14.567   4.648  0.00  0.00     0.010 A 
BRANCH  15  18
HETATM   18  O   UNK N   1      33.823  11.363   6.331  0.00  0.00    -0.221 OA
BRANCH  18  19
HETATM   19  S   UNK N   1      33.517  11.256   8.003  0.00  0.00     0.245 S 
HETATM   20  O   UNK N   1      32.313  10.324   8.159  0.00  0.00    -0.579 OA
HETATM   21  O   UNK N   1      34.662  10.544   8.739  0.00  0.00    -0.579 OA
BRANCH  19  22
HETATM   22  O   UNK N   1      33.116  12.728   8.790  0.00  0.00    -0.273 OA
HETATM   23  H   UNK N   1      33.639  13.533   8.654  0.00  0.00     0.234 HD
ENDBRANCH  19  22
ENDBRANCH  18  19
ENDBRANCH  15  18
ENDBRANCH  11  12
ENDBRANCH  10  11
BRANCH  10  24
HETATM   24  N   UNK N   1      32.106  17.099   6.036  0.00  0.00    -0.346 N 
HETATM   25  C   UNK N   1      33.263  17.258   6.745  0.00  0.00     0.241 C 
HETATM   26  O   UNK N   1      34.187  17.938   6.318  0.00  0.00    -0.271 OA
HETATM   27  H   UNK N   1      31.302  16.817   6.531  0.00  0.00     0.163 HD
BRANCH  25  28
HETATM   28  C   UNK N   1      33.432  16.480   8.007  0.00  0.00     0.186 C 
BRANCH  28  29
HETATM   29  C   UNK N   1      32.015  16.138   8.525  0.00  0.00     0.144 C 
BRANCH  29  30
HETATM   30  C   UNK N   1      31.042  17.292   8.618  0.00  0.00     0.141 C 
HETATM   31  O   UNK N   1      31.423  18.362   9.061  0.00  0.00    -0.650 OA
BRANCH  30  32
HETATM   32  O   UNK N   1      29.764  17.158   8.210  0.00  0.00    -0.776 OA
HETATM   33  H   UNK N   1      29.169  16.552   7.815  0.00  0.00     0.167 HD
ENDBRANCH  30  32
ENDBRANCH  29  30
ENDBRANCH  28  29
BRANCH  28  34
HETATM   34  N   UNK N   1      34.147  17.300   8.960  0.00  0.00    -0.346 N 
HETATM   35  C   UNK N   1      35.018  16.790   9.872  0.00  0.00     0.241 C 
HETATM   36  O   UNK N   1      35.685  17.562  10.539  0.00  0.00    -0.271 OA
HETATM   37  H   UNK N   1      33.996  18.272   8.949  0.00  0.00     0.163 HD
BRANCH  35  38
HETATM   38  C   UNK N   1      35.125  15.305  10.159  0.00  0.00     0.177 C 
BRANCH  38  39
HETATM   39  N   UNK N   1      36.503  14.925  10.095  0.00  0.00    -0.346 N 
HETATM   40  C   UNK N   1      36.921  14.108   9.109  0.00  0.00     0.241 C 
HETATM   41  O   UNK N   1      36.107  13.600   8.348  0.00  0.00    -0.271 OA
HETATM   42  H   UNK N   1      37.141  15.260  10.765  0.00  0.00     0.163 HD
BRANCH  40  43
HETATM   43  C   UNK N   1      38.387  13.892   8.908  0.00  0.00     0.177 C 
HETATM   44  N   UNK N   1      38.799  12.772   9.700  0.00  0.00    -0.348 N 
HETATM   45  C   UNK N   1      39.025  11.697   8.950  0.00  0.00     0.218 C 
HETATM   46  H   UNK N   1      38.902  12.795  10.679  0.00  0.00     0.163 HD
HETATM   47  C   UNK N   1      38.855  11.915   7.501  0.00  0.00     0.105 C 
HETATM   48  O   UNK N   1      39.311  10.616   9.438  0.00  0.00    -0.274 OA
HETATM   49  C   UNK N   1      38.605  13.428   7.453  0.00  0.00     0.044 C 
ENDBRANCH  40  43
ENDBRANCH  38  39
BRANCH  38  50
HETATM   50  C   UNK N   1      34.506  14.709  11.413  0.00  0.00     0.044 C 
BRANCH  50  51
HETATM   51  C   UNK N   1      35.282  13.522  11.946  0.00  0.00     0.105 C 
BRANCH  51  52
HETATM   52  C   UNK N   1      35.665  13.802  13.365  0.00  0.00     0.215 C 
HETATM   53  N   UNK N   1      36.811  14.458  13.639  0.00  0.00    -0.370 N 
HETATM   54  H   UNK N   1      37.223  15.161  13.086  0.00  0.00     0.159 HD
HETATM   55  H   UNK N   1      37.278  14.212  14.469  0.00  0.00     0.159 HD
HETATM   56  O   UNK N   1      34.943  13.437  14.277  0.00  0.00    -0.274 OA
ENDBRANCH  51  52
ENDBRANCH  50  51
ENDBRANCH  38  50
ENDBRANCH  35  38
ENDBRANCH  28  34
ENDBRANCH  25  28
ENDBRANCH  10  24
ENDBRANCH   7  10
ENDBRANCH   5   6
BRANCH   5  57
HETATM   57  C   UNK N   1      27.747  19.075   5.566  0.00  0.00     0.146 C 
HETATM   58  C   UNK N   1      28.034  20.177   4.563  0.00  0.00     0.042 C 
BRANCH  57  59
HETATM   59  O   UNK N   1      28.183  19.451   6.834  0.00  0.00    -0.393 OA
HETATM   60  H   UNK N   1      28.620  19.284   7.684  0.00  0.00     0.210 HD
ENDBRANCH  57  59
ENDBRANCH   5  57
ENDBRANCH   2   5
BRANCH   1  61
HETATM   61  C   UNK N   1      26.756  15.630   3.617  0.00  0.00     0.225 C 
BRANCH  61  62
HETATM   62  C   UNK N   1      27.337  14.491   2.852  0.00  0.00     0.236 C 
HETATM   63  N   UNK N   1      26.553  13.827   1.991  0.00  0.00    -0.346 N 
HETATM   64  H   UNK N   1      26.927  13.264   1.277  0.00  0.00     0.163 HD
HETATM   65  O   UNK N   1      28.522  14.211   2.954  0.00  0.00    -0.272 OA
BRANCH  63  66
HETATM   66  C   UNK N   1      25.143  13.984   2.170  0.00  0.00     0.181 C 
BRANCH  66  67
HETATM   67  C   UNK N   1      24.424  14.190   0.850  0.00  0.00     0.075 C 
BRANCH  67  68
HETATM   68  C   UNK N   1      23.158  13.444   0.705  0.00  0.00    -0.028 A 
HETATM   69  C   UNK N   1      23.030  12.086   0.437  0.00  0.00     0.096 A 
HETATM   70  N   UNK N   1      21.723  11.749   0.438  0.00  0.00    -0.365 N 
HETATM   71  C   UNK N   1      21.042  12.887   0.713  0.00  0.00     0.042 A 
HETATM   72  H   UNK N   1      21.341  10.857   0.273  0.00  0.00     0.165 HD
HETATM   73  C   UNK N   1      21.900  13.931   0.878  0.00  0.00    -0.002 A 
HETATM   74  C   UNK N   1      19.671  13.024   0.842  0.00  0.00     0.030 A 
HETATM   75  C   UNK N   1      21.443  15.214   1.193  0.00  0.00     0.014 A 
HETATM   76  C   UNK N   1      20.056  15.394   1.332  0.00  0.00     0.001 A 
HETATM   77  C   UNK N   1      19.172  14.304   1.158  0.00  0.00     0.002 A 
ENDBRANCH  67  68
ENDBRANCH  66  67
BRANCH  66  78
HETATM   78  C   UNK N   1      24.788  12.886   3.127  0.00  0.00     0.241 C 
HETATM   79  N   UNK N   1      24.224  13.221   4.329  0.00  0.00    -0.346 N 
HETATM   80  H   UNK N   1      23.729  14.073   4.341  0.00  0.00     0.163 HD
HETATM   81  O   UNK N   1      25.281  11.793   2.931  0.00  0.00    -0.271 OA
BRANCH  79  82
HETATM   82  C   UNK N   1      24.251  12.490   5.601  0.00  0.00     0.177 C 
BRANCH  82  83
HETATM   83  C   UNK N   1      22.959  11.644   5.667  0.00  0.00     0.045 C 
BRANCH  83  84
HETATM   84  C   UNK N   1      23.226  10.147   5.853  0.00  0.00     0.076 C 
BRANCH  84  85
HETATM   85  S   UNK N   1      21.894   9.120   5.180  0.00  0.00    -0.173 SA
HETATM   86  C   UNK N   1      20.672  10.449   5.389  0.00  0.00     0.089 C 
ENDBRANCH  84  85
ENDBRANCH  83  84
ENDBRANCH  82  83
BRANCH  82  87
HETATM   87  C   UNK N   1      24.403  13.383   6.836  0.00  0.00     0.241 C 
HETATM   88  N   UNK N   1      23.359  13.662   7.653  0.00  0.00    -0.346 N 
HETATM   89  H   UNK N   1      23.532  14.231   8.437  0.00  0.00     0.163 HD
HETATM   90  O   UNK N   1      25.487  13.887   7.093  0.00  0.00    -0.271 OA
BRANCH  88  91
HETATM   91  C   UNK N   1      22.014  13.183   7.455  0.00  0.00     0.186 C 
BRANCH  91  92
HETATM   92  C   UNK N   1      21.547  12.580   8.783  0.00  0.00     0.144 C 
BRANCH  92  93
HETATM   93  C   UNK N   1      22.663  12.238   9.721  0.00  0.00     0.141 C 
HETATM   94  O   UNK N   1      23.274  11.188   9.602  0.00  0.00    -0.650 OA
BRANCH  93  95
HETATM   95  O   UNK N   1      22.944  13.061  10.746  0.00  0.00    -0.776 OA
HETATM   96  H   UNK N   1      22.736  12.838  11.632  0.00  0.00     0.167 HD
ENDBRANCH  93  95
ENDBRANCH  92  93
ENDBRANCH  91  92
BRANCH  91  97
HETATM   97  C   UNK N   1      21.155  14.316   7.000  0.00  0.00     0.241 C 
HETATM   98  O   UNK N   1      19.938  14.211   7.037  0.00  0.00    -0.271 OA
HETATM   99  N   UNK N   1      21.747  15.437   6.531  0.00  0.00    -0.346 N 
HETATM  100  H   UNK N   1      22.731  15.443   6.490  0.00  0.00     0.163 HD
BRANCH  99 101
HETATM  101  C   UNK N   1      21.059  16.621   6.085  0.00  0.00     0.180 C 
BRANCH 101 102
HETATM  102  C   UNK N   1      21.025  16.972   4.593  0.00  0.00     0.073 C 
BRANCH 102 103
HETATM  103  C   UNK N   1      22.084  17.929   4.147  0.00  0.00    -0.056 A 
HETATM  104  C   UNK N   1      21.726  19.074   3.424  0.00  0.00     0.007 A 
HETATM  105  C   UNK N   1      22.700  20.011   3.063  0.00  0.00     0.001 A 
HETATM  106  C   UNK N   1      24.033  19.812   3.439  0.00  0.00     0.000 A 
HETATM  107  C   UNK N   1      24.391  18.674   4.169  0.00  0.00     0.001 A 
HETATM  108  C   UNK N   1      23.417  17.736   4.525  0.00  0.00     0.007 A 
ENDBRANCH 102 103
ENDBRANCH 101 102
BRANCH 101 109
HETATM  109  C   UNK N   1      20.690  17.576   7.177  0.00  0.00     0.238 C 
HETATM  110  O   UNK N   1      21.063  18.736   7.130  0.00  0.00    -0.271 OA
HETATM  111  N   UNK N   1      19.893  17.171   8.189  0.00  0.00    -0.368 N 
HETATM  112  H   UNK N   1      19.631  16.282   8.522  0.00  0.00     0.159 HD
HETATM  113  H   UNK N   1      19.494  17.914   8.696  0.00  0.00     0.159 HD
ENDBRANCH 101 109
ENDBRANCH  99 101
ENDBRANCH  91  97
ENDBRANCH  88  91
ENDBRANCH  82  87
ENDBRANCH  79  82
ENDBRANCH  66  78
ENDBRANCH  63  66
ENDBRANCH  61  62
ENDBRANCH   1  61
TORSDOF 42
ENDMDL
MODEL 9
REMARK VINA RESULT:      -7.7      2.828      5.022
REMARK WARNING: 32 MAX_TORS EXCEEDED!!!
REMARK  42 active torsions:
REMARK  status: ('A' for Active; 'I' for Inactive)
REMARK    1  A    between atoms: C_1  and  C_28 
REMARK    2  A    between atoms: C_3  and  C_2 
REMARK    3  A    between atoms: C_2  and  C_82 
REMARK    4  A    between atoms: C_3  and  C_47 
REMARK    5  A    between atoms: N_4  and  C_3 
REMARK       I    between atoms: C_5  and  N_4 
REMARK    6  A    between atoms: C_6  and  C_5 
REMARK    7  A    between atoms: N_7  and  C_6 
REMARK       I    between atoms: C_8  and  N_7 
REMARK    8  A    between atoms: C_9  and  C_8 
REMARK    9  A    between atoms: N_10  and  C_9 
REMARK   10  A    between atoms: C_42  and  C_9 
REMARK       I    between atoms: C_11  and  N_10 
REMARK   11  A    between atoms: C_12  and  C_11 
REMARK   12  A    between atoms: C_12  and  C_13 
REMARK   13  A    between atoms: N_21  and  C_12 
REMARK   14  A    between atoms: C_14  and  C_13 
REMARK   15  A    between atoms: O_20  and  C_17 
REMARK   16  A    between atoms: O_20  and  S_91 
REMARK       I    between atoms: C_22  and  N_21 
REMARK   17  A    between atoms: C_23  and  C_22 
REMARK   18  A    between atoms: C_23  and  C_36 
REMARK   19  A    between atoms: N_24  and  C_23 
REMARK       I    between atoms: C_25  and  N_24 
REMARK   20  A    between atoms: C_26  and  C_25 
REMARK   21  A    between atoms: N_27  and  C_26 
REMARK   22  A    between atoms: C_26  and  C_30 
REMARK       I    between atoms: C_28  and  N_27 
REMARK   23  A    between atoms: C_31  and  C_30 
REMARK   24  A    between atoms: C_32  and  C_31 
REMARK       I    between atoms: N_33  and  C_32 
REMARK   25  A    between atoms: C_37  and  C_36 
REMARK   26  A    between atoms: O_39  and  C_37 
REMARK   27  A    between atoms: C_42  and  O_44 
REMARK       I    between atoms: N_48  and  C_47 
REMARK   28  A    between atoms: C_50  and  N_48 
REMARK   29  A    between atoms: C_51  and  C_50 
REMARK   30  A    between atoms: C_55  and  C_50 
REMARK   31  A    between atoms: C_52  and  C_51 
REMARK   32  A    between atoms: S_53  and  C_52 
REMARK       I    between atoms: N_56  and  C_55 
REMARK   33  A    between atoms: C_57  and  N_56 
REMARK   34  A    between atoms: C_58  and  C_57 
REMARK   35  A    between atoms: C_57  and  C_62 
REMARK   36  A    between atoms: C_59  and  C_58 
REMARK   37  A    between atoms: O_60  and  C_59 
REMARK       I    between atoms: N_65  and  C_62 
REMARK   38  A    between atoms: C_66  and  N_65 
REMARK   39  A    between atoms: C_67  and  C_66 
REMARK   40  A    between atoms: C_68  and  C_66 
REMARK   41  A    between atoms: C_71  and  C_67 
REMARK       I    between atoms: N_70  and  C_68 
REMARK   42  A    between atoms: S_91  and  O_92 
ROOT
HETATM    1  N   UNK N   1      27.644  15.455   4.356  0.00  0.00    -0.350 N 
HETATM    2  C   UNK N   1      26.681  16.285   4.025  0.00  0.00     0.243 C 
HETATM    3  O   UNK N   1      26.438  16.418   2.838  0.00  0.00    -0.271 OA
HETATM    4  H   UNK N   1      27.688  14.542   3.992  0.00  0.00     0.163 HD
ENDROOT
BRANCH   2   5
HETATM    5  C   UNK N   1      25.847  16.959   5.103  0.00  0.00     0.205 C 
BRANCH   5   6
HETATM    6  N   UNK N   1      24.672  16.129   5.227  0.00  0.00    -0.344 N 
HETATM    7  C   UNK N   1      24.618  15.134   6.135  0.00  0.00     0.241 C 
HETATM    8  O   UNK N   1      25.639  14.707   6.649  0.00  0.00    -0.271 OA
HETATM    9  H   UNK N   1      23.899  16.293   4.639  0.00  0.00     0.163 HD
BRANCH   7  10
HETATM   10  C   UNK N   1      23.315  14.594   6.574  0.00  0.00     0.180 C 
BRANCH  10  11
HETATM   11  C   UNK N   1      22.827  13.456   5.645  0.00  0.00     0.073 C 
BRANCH  11  12
HETATM   12  C   UNK N   1      23.071  12.035   6.135  0.00  0.00    -0.056 A 
HETATM   13  C   UNK N   1      23.157  11.714   7.502  0.00  0.00     0.010 A 
HETATM   14  C   UNK N   1      23.499  10.416   7.909  0.00  0.00     0.039 A 
HETATM   15  C   UNK N   1      23.739   9.414   6.956  0.00  0.00     0.091 A 
HETATM   16  C   UNK N   1      23.595   9.716   5.599  0.00  0.00     0.039 A 
HETATM   17  C   UNK N   1      23.274  11.018   5.191  0.00  0.00     0.010 A 
BRANCH  15  18
HETATM   18  O   UNK N   1      24.154   8.177   7.319  0.00  0.00    -0.221 OA
BRANCH  18  19
HETATM   19  S   UNK N   1      23.347   6.772   6.794  0.00  0.00     0.245 S 
HETATM   20  O   UNK N   1      23.440   5.769   7.946  0.00  0.00    -0.579 OA
HETATM   21  O   UNK N   1      21.842   7.024   6.613  0.00  0.00    -0.579 OA
BRANCH  19  22
HETATM   22  O   UNK N   1      24.003   6.003   5.406  0.00  0.00    -0.273 OA
HETATM   23  H   UNK N   1      23.531   6.000   4.559  0.00  0.00     0.234 HD
ENDBRANCH  19  22
ENDBRANCH  18  19
ENDBRANCH  15  18
ENDBRANCH  11  12
ENDBRANCH  10  11
BRANCH  10  24
HETATM   24  N   UNK N   1      22.455  15.742   6.600  0.00  0.00    -0.346 N 
HETATM   25  C   UNK N   1      21.396  15.903   7.448  0.00  0.00     0.241 C 
HETATM   26  O   UNK N   1      21.305  15.263   8.487  0.00  0.00    -0.271 OA
HETATM   27  H   UNK N   1      22.643  16.467   5.960  0.00  0.00     0.163 HD
BRANCH  25  28
HETATM   28  C   UNK N   1      20.277  16.792   7.020  0.00  0.00     0.186 C 
BRANCH  28  29
HETATM   29  C   UNK N   1      19.703  17.449   8.298  0.00  0.00     0.144 C 
BRANCH  29  30
HETATM   30  C   UNK N   1      18.447  16.826   8.864  0.00  0.00     0.141 C 
HETATM   31  O   UNK N   1      17.392  17.434   8.790  0.00  0.00    -0.650 OA
BRANCH  30  32
HETATM   32  O   UNK N   1      18.473  15.608   9.439  0.00  0.00    -0.776 OA
HETATM   33  H   UNK N   1      17.918  14.939   9.789  0.00  0.00     0.167 HD
ENDBRANCH  30  32
ENDBRANCH  29  30
ENDBRANCH  28  29
BRANCH  28  34
HETATM   34  N   UNK N   1      19.274  15.985   6.360  0.00  0.00    -0.346 N 
HETATM   35  C   UNK N   1      19.249  15.786   5.015  0.00  0.00     0.241 C 
HETATM   36  O   UNK N   1      18.460  14.978   4.557  0.00  0.00    -0.271 OA
HETATM   37  H   UNK N   1      18.578  15.559   6.909  0.00  0.00     0.163 HD
BRANCH  35  38
HETATM   38  C   UNK N   1      20.095  16.597   4.052  0.00  0.00     0.177 C 
BRANCH  38  39
HETATM   39  N   UNK N   1      20.259  15.848   2.845  0.00  0.00    -0.346 N 
HETATM   40  C   UNK N   1      21.497  15.505   2.439  0.00  0.00     0.241 C 
HETATM   41  O   UNK N   1      22.478  15.934   3.034  0.00  0.00    -0.271 OA
HETATM   42  H   UNK N   1      19.473  15.584   2.315  0.00  0.00     0.163 HD
BRANCH  40  43
HETATM   43  C   UNK N   1      21.657  14.539   1.309  0.00  0.00     0.177 C 
HETATM   44  N   UNK N   1      22.985  14.000   1.350  0.00  0.00    -0.348 N 
HETATM   45  C   UNK N   1      22.992  12.746   1.792  0.00  0.00     0.218 C 
HETATM   46  H   UNK N   1      23.792  14.498   1.084  0.00  0.00     0.163 HD
HETATM   47  C   UNK N   1      21.656  12.191   2.081  0.00  0.00     0.105 C 
HETATM   48  O   UNK N   1      24.028  12.130   1.974  0.00  0.00    -0.274 OA
HETATM   49  C   UNK N   1      20.747  13.325   1.588  0.00  0.00     0.044 C 
ENDBRANCH  40  43
ENDBRANCH  38  39
BRANCH  38  50
HETATM   50  C   UNK N   1      19.717  18.027   3.700  0.00  0.00     0.044 C 
BRANCH  50  51
HETATM   51  C   UNK N   1      20.850  19.007   3.925  0.00  0.00     0.105 C 
BRANCH  51  52
HETATM   52  C   UNK N   1      20.856  19.993   2.799  0.00  0.00     0.215 C 
HETATM   53  N   UNK N   1      20.320  19.661   1.608  0.00  0.00    -0.370 N 
HETATM   54  H   UNK N   1      19.548  19.067   1.464  0.00  0.00     0.159 HD
HETATM   55  H   UNK N   1      20.738  20.051   0.807  0.00  0.00     0.159 HD
HETATM   56  O   UNK N   1      21.348  21.098   2.956  0.00  0.00    -0.274 OA
ENDBRANCH  51  52
ENDBRANCH  50  51
ENDBRANCH  38  50
ENDBRANCH  35  38
ENDBRANCH  28  34
ENDBRANCH  25  28
ENDBRANCH  10  24
ENDBRANCH   7  10
ENDBRANCH   5   6
BRANCH   5  57
HETATM   57  C   UNK N   1      25.600  18.472   4.881  0.00  0.00     0.146 C 
HETATM   58  C   UNK N   1      24.255  18.747   4.234  0.00  0.00     0.042 C 
BRANCH  57  59
HETATM   59  O   UNK N   1      26.612  19.135   4.191  0.00  0.00    -0.393 OA
HETATM   60  H   UNK N   1      26.943  19.809   3.577  0.00  0.00     0.210 HD
ENDBRANCH  57  59
ENDBRANCH   5  57
ENDBRANCH   2   5
BRANCH   1  61
HETATM   61  C   UNK N   1      28.604  15.933   5.251  0.00  0.00     0.225 C 
BRANCH  61  62
HETATM   62  C   UNK N   1      29.644  16.463   4.325  0.00  0.00     0.236 C 
HETATM   63  N   UNK N   1      30.798  15.794   4.200  0.00  0.00    -0.346 N 
HETATM   64  H   UNK N   1      31.395  15.928   3.430  0.00  0.00     0.163 HD
HETATM   65  O   UNK N   1      29.422  17.450   3.638  0.00  0.00    -0.272 OA
BRANCH  63  66
HETATM   66  C   UNK N   1      31.111  14.874   5.250  0.00  0.00     0.181 C 
BRANCH  66  67
HETATM   67  C   UNK N   1      31.514  13.514   4.708  0.00  0.00     0.075 C 
BRANCH  67  68
HETATM   68  C   UNK N   1      30.702  13.029   3.574  0.00  0.00    -0.028 A 
HETATM   69  C   UNK N   1      31.068  13.049   2.233  0.00  0.00     0.096 A 
HETATM   70  N   UNK N   1      30.101  12.467   1.494  0.00  0.00    -0.365 N 
HETATM   71  C   UNK N   1      29.141  12.081   2.368  0.00  0.00     0.042 A 
HETATM   72  H   UNK N   1      30.093  12.347   0.517  0.00  0.00     0.165 HD
HETATM   73  C   UNK N   1      29.490  12.416   3.641  0.00  0.00    -0.002 A 
HETATM   74  C   UNK N   1      27.965  11.416   2.071  0.00  0.00     0.030 A 
HETATM   75  C   UNK N   1      28.673  12.104   4.733  0.00  0.00     0.014 A 
HETATM   76  C   UNK N   1      27.469  11.430   4.471  0.00  0.00     0.001 A 
HETATM   77  C   UNK N   1      27.114  11.086   3.146  0.00  0.00     0.002 A 
ENDBRANCH  67  68
ENDBRANCH  66  67
BRANCH  66  78
HETATM   78  C   UNK N   1      31.982  15.675   6.168  0.00  0.00     0.241 C 
HETATM   79  N   UNK N   1      31.651  15.740   7.495  0.00  0.00    -0.346 N 
HETATM   80  H   UNK N   1      31.132  14.977   7.839  0.00  0.00     0.163 HD
HETATM   81  O   UNK N   1      32.756  16.463   5.659  0.00  0.00    -0.271 OA
BRANCH  79  82
HETATM   82  C   UNK N   1      31.961  16.786   8.477  0.00  0.00     0.177 C 
BRANCH  82  83
HETATM   83  C   UNK N   1      30.931  17.921   8.273  0.00  0.00     0.045 C 
BRANCH  83  84
HETATM   84  C   UNK N   1      30.007  18.124   9.477  0.00  0.00     0.076 C 
BRANCH  84  85
HETATM   85  S   UNK N   1      28.280  17.734   9.095  0.00  0.00    -0.173 SA
HETATM   86  C   UNK N   1      28.280  18.835   7.650  0.00  0.00     0.089 C 
ENDBRANCH  84  85
ENDBRANCH  83  84
ENDBRANCH  82  83
BRANCH  82  87
HETATM   87  C   UNK N   1      33.398  17.310   8.406  0.00  0.00     0.241 C 
HETATM   88  N   UNK N   1      34.456  16.556   8.791  0.00  0.00    -0.346 N 
HETATM   89  H   UNK N   1      35.353  16.951   8.706  0.00  0.00     0.163 HD
HETATM   90  O   UNK N   1      33.613  18.449   8.018  0.00  0.00    -0.271 OA
BRANCH  88  91
HETATM   91  C   UNK N   1      34.359  15.216   9.315  0.00  0.00     0.186 C 
BRANCH  91  92
HETATM   92  C   UNK N   1      34.495  14.255   8.131  0.00  0.00     0.144 C 
BRANCH  92  93
HETATM   93  C   UNK N   1      33.542  13.099   8.174  0.00  0.00     0.141 C 
HETATM   94  O   UNK N   1      33.710  12.130   7.453  0.00  0.00    -0.650 OA
BRANCH  93  95
HETATM   95  O   UNK N   1      32.455  13.166   8.962  0.00  0.00    -0.776 OA
HETATM   96  H   UNK N   1      31.774  13.792   8.814  0.00  0.00     0.167 HD
ENDBRANCH  93  95
ENDBRANCH  92  93
ENDBRANCH  91  92
BRANCH  91  97
HETATM   97  C   UNK N   1      35.422  15.019  10.345  0.00  0.00     0.241 C 
HETATM   98  O   UNK N   1      36.258  15.891  10.533  0.00  0.00    -0.271 OA
HETATM   99  N   UNK N   1      35.453  13.858  11.038  0.00  0.00    -0.346 N 
HETATM  100  H   UNK N   1      34.777  13.180  10.811  0.00  0.00     0.163 HD
BRANCH  99 101
HETATM  101  C   UNK N   1      36.393  13.532  12.078  0.00  0.00     0.180 C 
BRANCH 101 102
HETATM  102  C   UNK N   1      36.333  14.266  13.424  0.00  0.00     0.073 C 
BRANCH 102 103
HETATM  103  C   UNK N   1      35.839  13.440  14.569  0.00  0.00    -0.056 A 
HETATM  104  C   UNK N   1      36.172  13.800  15.881  0.00  0.00     0.007 A 
HETATM  105  C   UNK N   1      35.658  13.076  16.962  0.00  0.00     0.001 A 
HETATM  106  C   UNK N   1      34.796  11.999  16.733  0.00  0.00     0.000 A 
HETATM  107  C   UNK N   1      34.455  11.643  15.424  0.00  0.00     0.001 A 
HETATM  108  C   UNK N   1      34.973  12.365  14.344  0.00  0.00     0.007 A 
ENDBRANCH 102 103
ENDBRANCH 101 102
BRANCH 101 109
HETATM  109  C   UNK N   1      37.556  12.701  11.632  0.00  0.00     0.238 C 
HETATM  110  O   UNK N   1      38.405  13.175  10.898  0.00  0.00    -0.271 OA
HETATM  111  N   UNK N   1      37.697  11.438  12.089  0.00  0.00    -0.368 N 
HETATM  112  H   UNK N   1      37.077  10.806  12.522  0.00  0.00     0.159 HD
HETATM  113  H   UNK N   1      38.603  11.075  11.964  0.00  0.00     0.159 HD
ENDBRANCH 101 109
ENDBRANCH  99 101
ENDBRANCH  91  97
ENDBRANCH  88  91
ENDBRANCH  82  87
ENDBRANCH  79  82
ENDBRANCH  66  78
ENDBRANCH  63  66
ENDBRANCH  61  62
ENDBRANCH   1  61
TORSDOF 42
ENDMDL
