MODEL 1
REMARK VINA RESULT:      -5.5      0.000      0.000
REMARK  4 active torsions:
REMARK  status: ('A' for Active; 'I' for Inactive)
REMARK    1  A    between atoms: C_6  and  C_7 
REMARK    2  A    between atoms: C_6  and  C_8 
REMARK    3  A    between atoms: C_7  and  C_9 
REMARK    4  A    between atoms: C_8  and  C_15 
ROOT
HETATM    1  O   UNK N   1      34.824  19.032   8.282  0.00  0.00    -0.272 OA
HETATM    2  O   UNK N   1      32.433  15.031   7.540  0.00  0.00    -0.272 OA
HETATM    3  O   UNK N   1      35.089  15.581  11.060  0.00  0.00    -0.247 OA
HETATM    4  N   UNK N   1      34.948  17.308   9.670  0.00  0.00    -0.278 N 
HETATM    5  N   UNK N   1      33.765  15.306   9.293  0.00  0.00    -0.278 N 
HETATM    6  C   UNK N   1      33.487  17.168   7.621  0.00  0.00     0.128 A 
HETATM    7  C   UNK N   1      34.459  17.898   8.552  0.00  0.00     0.244 A 
HETATM    8  C   UNK N   1      33.198  15.763   8.150  0.00  0.00     0.244 A 
HETATM    9  C   UNK N   1      34.614  16.051  10.038  0.00  0.00     0.329 A 
HETATM   10  H   UNK N   1      35.572  17.816  10.236  0.00  0.00     0.173 HD
HETATM   11  H   UNK N   1      33.549  14.394   9.595  0.00  0.00     0.173 HD
ENDROOT
BRANCH   6  12
HETATM   12  C   UNK N   1      34.119  17.087   6.194  0.00  0.00     0.008 C 
HETATM   13  C   UNK N   1      34.751  15.727   5.929  0.00  0.00     0.011 C 
BRANCH  12  14
HETATM   14  C   UNK N   1      33.159  17.391   5.041  0.00  0.00     0.001 C 
HETATM   15  C   UNK N   1      33.109  16.258   4.035  0.00  0.00     0.005 C 
ENDBRANCH  12  14
ENDBRANCH   6  12
BRANCH   6  16
HETATM   16  C   UNK N   1      32.131  17.917   7.589  0.00  0.00     0.056 C 
BRANCH  16  17
HETATM   17  C   UNK N   1      31.306  17.895   8.850  0.00  0.00    -0.035 C 
HETATM   18  C   UNK N   1      30.257  18.695   9.027  0.00  0.00     0.007 C 
ENDBRANCH  16  17
ENDBRANCH   6  16
TORSDOF 4
ENDMDL
MODEL 2
REMARK VINA RESULT:      -5.3      1.333      3.830
REMARK  4 active torsions:
REMARK  status: ('A' for Active; 'I' for Inactive)
REMARK    1  A    between atoms: C_6  and  C_7 
REMARK    2  A    between atoms: C_6  and  C_8 
REMARK    3  A    between atoms: C_7  and  C_9 
REMARK    4  A    between atoms: C_8  and  C_15 
ROOT
HETATM    1  O   UNK N   1      32.087  14.759   8.979  0.00  0.00    -0.272 OA
HETATM    2  O   UNK N   1      34.522  18.307   7.040  0.00  0.00    -0.272 OA
HETATM    3  O   UNK N   1      35.320  16.869  11.168  0.00  0.00    -0.247 OA
HETATM    4  N   UNK N   1      33.707  15.811  10.066  0.00  0.00    -0.278 N 
HETATM    5  N   UNK N   1      34.914  17.591   9.103  0.00  0.00    -0.278 N 
HETATM    6  C   UNK N   1      33.122  16.499   7.713  0.00  0.00     0.128 A 
HETATM    7  C   UNK N   1      32.945  15.629   8.960  0.00  0.00     0.244 A 
HETATM    8  C   UNK N   1      34.231  17.527   7.934  0.00  0.00     0.244 A 
HETATM    9  C   UNK N   1      34.667  16.760  10.143  0.00  0.00     0.329 A 
HETATM   10  H   UNK N   1      33.555  15.229  10.844  0.00  0.00     0.173 HD
HETATM   11  H   UNK N   1      35.620  18.270   9.201  0.00  0.00     0.173 HD
ENDROOT
BRANCH   6  12
HETATM   12  C   UNK N   1      31.771  17.221   7.405  0.00  0.00     0.008 C 
HETATM   13  C   UNK N   1      30.763  16.285   6.751  0.00  0.00     0.011 C 
BRANCH  12  14
HETATM   14  C   UNK N   1      31.092  17.872   8.613  0.00  0.00     0.001 C 
HETATM   15  C   UNK N   1      29.622  17.512   8.695  0.00  0.00     0.005 C 
ENDBRANCH  12  14
ENDBRANCH   6  12
BRANCH   6  16
HETATM   16  C   UNK N   1      33.568  15.617   6.518  0.00  0.00     0.056 C 
BRANCH  16  17
HETATM   17  C   UNK N   1      34.816  14.792   6.704  0.00  0.00    -0.035 C 
HETATM   18  C   UNK N   1      35.811  14.800   5.821  0.00  0.00     0.007 C 
ENDBRANCH  16  17
ENDBRANCH   6  16
TORSDOF 4
ENDMDL
MODEL 3
REMARK VINA RESULT:      -5.3      6.340      9.208
REMARK  4 active torsions:
REMARK  status: ('A' for Active; 'I' for Inactive)
REMARK    1  A    between atoms: C_6  and  C_7 
REMARK    2  A    between atoms: C_6  and  C_8 
REMARK    3  A    between atoms: C_7  and  C_9 
REMARK    4  A    between atoms: C_8  and  C_15 
ROOT
HETATM    1  O   UNK N   1      34.342  11.716  13.683  0.00  0.00    -0.272 OA
HETATM    2  O   UNK N   1      37.362  14.544  15.954  0.00  0.00    -0.272 OA
HETATM    3  O   UNK N   1      36.090  15.316  11.767  0.00  0.00    -0.247 OA
HETATM    4  N   UNK N   1      35.212  13.519  12.733  0.00  0.00    -0.278 N 
HETATM    5  N   UNK N   1      36.730  14.923  13.861  0.00  0.00    -0.278 N 
HETATM    6  C   UNK N   1      35.826  12.930  15.105  0.00  0.00     0.128 A 
HETATM    7  C   UNK N   1      35.073  12.688  13.794  0.00  0.00     0.244 A 
HETATM    8  C   UNK N   1      36.692  14.185  14.997  0.00  0.00     0.244 A 
HETATM    9  C   UNK N   1      36.013  14.608  12.758  0.00  0.00     0.329 A 
HETATM   10  H   UNK N   1      34.710  13.321  11.910  0.00  0.00     0.173 HD
HETATM   11  H   UNK N   1      37.303  15.724  13.837  0.00  0.00     0.173 HD
ENDROOT
BRANCH   6  12
HETATM   12  C   UNK N   1      36.717  11.685  15.414  0.00  0.00     0.008 C 
HETATM   13  C   UNK N   1      35.882  10.431  15.639  0.00  0.00     0.011 C 
BRANCH  12  14
HETATM   14  C   UNK N   1      37.772  11.361  14.351  0.00  0.00     0.001 C 
HETATM   15  C   UNK N   1      37.723   9.905  13.934  0.00  0.00     0.005 C 
ENDBRANCH  12  14
ENDBRANCH   6  12
BRANCH   6  16
HETATM   16  C   UNK N   1      34.814  13.188  16.250  0.00  0.00     0.056 C 
BRANCH  16  17
HETATM   17  C   UNK N   1      35.222  12.757  17.635  0.00  0.00    -0.035 C 
HETATM   18  C   UNK N   1      35.193  13.585  18.676  0.00  0.00     0.007 C 
ENDBRANCH  16  17
ENDBRANCH   6  16
TORSDOF 4
ENDMDL
MODEL 4
REMARK VINA RESULT:      -5.1     16.352     18.088
REMARK  4 active torsions:
REMARK  status: ('A' for Active; 'I' for Inactive)
REMARK    1  A    between atoms: C_6  and  C_7 
REMARK    2  A    between atoms: C_6  and  C_8 
REMARK    3  A    between atoms: C_7  and  C_9 
REMARK    4  A    between atoms: C_8  and  C_15 
ROOT
HETATM    1  O   UNK N   1      26.346  25.920  -2.948  0.00  0.00    -0.272 OA
HETATM    2  O   UNK N   1      27.433  28.645  -6.644  0.00  0.00    -0.272 OA
HETATM    3  O   UNK N   1      26.629  30.336  -2.614  0.00  0.00    -0.247 OA
HETATM    4  N   UNK N   1      26.495  28.125  -2.784  0.00  0.00    -0.278 N 
HETATM    5  N   UNK N   1      27.025  29.487  -4.632  0.00  0.00    -0.278 N 
HETATM    6  C   UNK N   1      26.920  26.999  -4.998  0.00  0.00     0.128 A 
HETATM    7  C   UNK N   1      26.575  26.982  -3.507  0.00  0.00     0.244 A 
HETATM    8  C   UNK N   1      27.139  28.433  -5.477  0.00  0.00     0.244 A 
HETATM    9  C   UNK N   1      26.715  29.346  -3.322  0.00  0.00     0.329 A 
HETATM   10  H   UNK N   1      26.268  28.064  -1.829  0.00  0.00     0.173 HD
HETATM   11  H   UNK N   1      27.175  30.394  -4.985  0.00  0.00     0.173 HD
ENDROOT
BRANCH   6  12
HETATM   12  C   UNK N   1      25.750  26.337  -5.795  0.00  0.00     0.008 C 
HETATM   13  C   UNK N   1      24.478  27.172  -5.732  0.00  0.00     0.011 C 
BRANCH  12  14
HETATM   14  C   UNK N   1      26.050  26.048  -7.268  0.00  0.00     0.001 C 
HETATM   15  C   UNK N   1      25.864  24.582  -7.605  0.00  0.00     0.005 C 
ENDBRANCH  12  14
ENDBRANCH   6  12
BRANCH   6  16
HETATM   16  C   UNK N   1      28.253  26.244  -5.237  0.00  0.00     0.056 C 
BRANCH  16  17
HETATM   17  C   UNK N   1      29.450  26.700  -4.442  0.00  0.00    -0.035 C 
HETATM   18  C   UNK N   1      30.240  25.848  -3.793  0.00  0.00     0.007 C 
ENDBRANCH  16  17
ENDBRANCH   6  16
TORSDOF 4
ENDMDL
MODEL 5
REMARK VINA RESULT:      -5.1      1.918      3.676
REMARK  4 active torsions:
REMARK  status: ('A' for Active; 'I' for Inactive)
REMARK    1  A    between atoms: C_6  and  C_7 
REMARK    2  A    between atoms: C_6  and  C_8 
REMARK    3  A    between atoms: C_7  and  C_9 
REMARK    4  A    between atoms: C_8  and  C_15 
ROOT
HETATM    1  O   UNK N   1      31.646  14.996   6.431  0.00  0.00    -0.272 OA
HETATM    2  O   UNK N   1      34.750  18.399   7.458  0.00  0.00    -0.272 OA
HETATM    3  O   UNK N   1      30.644  18.351   9.158  0.00  0.00    -0.247 OA
HETATM    4  N   UNK N   1      31.152  16.669   7.798  0.00  0.00    -0.278 N 
HETATM    5  N   UNK N   1      32.697  18.376   8.300  0.00  0.00    -0.278 N 
HETATM    6  C   UNK N   1      33.438  16.541   6.744  0.00  0.00     0.128 A 
HETATM    7  C   UNK N   1      32.021  16.016   6.988  0.00  0.00     0.244 A 
HETATM    8  C   UNK N   1      33.667  17.836   7.523  0.00  0.00     0.244 A 
HETATM    9  C   UNK N   1      31.473  17.814   8.440  0.00  0.00     0.329 A 
HETATM   10  H   UNK N   1      30.251  16.295   7.922  0.00  0.00     0.173 HD
HETATM   11  H   UNK N   1      32.890  19.211   8.784  0.00  0.00     0.173 HD
ENDROOT
BRANCH   6  12
HETATM   12  C   UNK N   1      33.627  16.793   5.213  0.00  0.00     0.008 C 
HETATM   13  C   UNK N   1      33.859  15.496   4.449  0.00  0.00     0.011 C 
BRANCH  12  14
HETATM   14  C   UNK N   1      32.477  17.539   4.531  0.00  0.00     0.001 C 
HETATM   15  C   UNK N   1      32.279  17.083   3.099  0.00  0.00     0.005 C 
ENDBRANCH  12  14
ENDBRANCH   6  12
BRANCH   6  16
HETATM   16  C   UNK N   1      34.474  15.517   7.272  0.00  0.00     0.056 C 
BRANCH  16  17
HETATM   17  C   UNK N   1      34.337  15.082   8.708  0.00  0.00    -0.035 C 
HETATM   18  C   UNK N   1      34.190  13.805   9.054  0.00  0.00     0.007 C 
ENDBRANCH  16  17
ENDBRANCH   6  16
TORSDOF 4
ENDMDL
MODEL 6
REMARK VINA RESULT:      -5.1     12.887     14.779
REMARK  4 active torsions:
REMARK  status: ('A' for Active; 'I' for Inactive)
REMARK    1  A    between atoms: C_6  and  C_7 
REMARK    2  A    between atoms: C_6  and  C_8 
REMARK    3  A    between atoms: C_7  and  C_9 
REMARK    4  A    between atoms: C_8  and  C_15 
ROOT
HETATM    1  O   UNK N   1      29.601  24.619  -5.940  0.00  0.00    -0.272 OA
HETATM    2  O   UNK N   1      30.600  22.916  -1.654  0.00  0.00    -0.272 OA
HETATM    3  O   UNK N   1      26.454  23.932  -2.888  0.00  0.00    -0.247 OA
HETATM    4  N   UNK N   1      28.031  24.268  -4.415  0.00  0.00    -0.278 N 
HETATM    5  N   UNK N   1      28.532  23.430  -2.271  0.00  0.00    -0.278 N 
HETATM    6  C   UNK N   1      30.439  23.746  -3.883  0.00  0.00     0.128 A 
HETATM    7  C   UNK N   1      29.326  24.233  -4.814  0.00  0.00     0.244 A 
HETATM    8  C   UNK N   1      29.859  23.341  -2.528  0.00  0.00     0.244 A 
HETATM    9  C   UNK N   1      27.637  23.877  -3.183  0.00  0.00     0.329 A 
HETATM   10  H   UNK N   1      27.351  24.591  -5.049  0.00  0.00     0.173 HD
HETATM   11  H   UNK N   1      28.203  23.158  -1.383  0.00  0.00     0.173 HD
ENDROOT
BRANCH   6  12
HETATM   12  C   UNK N   1      31.483  24.894  -3.700  0.00  0.00     0.008 C 
HETATM   13  C   UNK N   1      32.462  24.961  -4.866  0.00  0.00     0.011 C 
BRANCH  12  14
HETATM   14  C   UNK N   1      30.886  26.290  -3.508  0.00  0.00     0.001 C 
HETATM   15  C   UNK N   1      31.545  27.315  -4.410  0.00  0.00     0.005 C 
ENDBRANCH  12  14
ENDBRANCH   6  12
BRANCH   6  16
HETATM   16  C   UNK N   1      31.103  22.478  -4.478  0.00  0.00     0.056 C 
BRANCH  16  17
HETATM   17  C   UNK N   1      30.194  21.328  -4.826  0.00  0.00    -0.035 C 
HETATM   18  C   UNK N   1      30.115  20.832  -6.058  0.00  0.00     0.007 C 
ENDBRANCH  16  17
ENDBRANCH   6  16
TORSDOF 4
ENDMDL
MODEL 7
REMARK VINA RESULT:      -5.1      6.717      8.764
REMARK  4 active torsions:
REMARK  status: ('A' for Active; 'I' for Inactive)
REMARK    1  A    between atoms: C_6  and  C_7 
REMARK    2  A    between atoms: C_6  and  C_8 
REMARK    3  A    between atoms: C_7  and  C_9 
REMARK    4  A    between atoms: C_8  and  C_15 
ROOT
HETATM    1  O   UNK N   1      37.355  11.189  15.086  0.00  0.00    -0.272 OA
HETATM    2  O   UNK N   1      34.557  14.061  12.597  0.00  0.00    -0.272 OA
HETATM    3  O   UNK N   1      38.281  12.329  10.899  0.00  0.00    -0.247 OA
HETATM    4  N   UNK N   1      37.810  11.755  12.993  0.00  0.00    -0.278 N 
HETATM    5  N   UNK N   1      36.421  13.200  11.754  0.00  0.00    -0.278 N 
HETATM    6  C   UNK N   1      35.736  12.648  14.113  0.00  0.00     0.128 A 
HETATM    7  C   UNK N   1      37.018  11.811  14.091  0.00  0.00     0.244 A 
HETATM    8  C   UNK N   1      35.537  13.351  12.771  0.00  0.00     0.244 A 
HETATM    9  C   UNK N   1      37.526  12.425  11.853  0.00  0.00     0.329 A 
HETATM   10  H   UNK N   1      38.625  11.206  13.027  0.00  0.00     0.173 HD
HETATM   11  H   UNK N   1      36.251  13.672  10.907  0.00  0.00     0.173 HD
ENDROOT
BRANCH   6  12
HETATM   12  C   UNK N   1      35.840  13.701  15.263  0.00  0.00     0.008 C 
HETATM   13  C   UNK N   1      35.380  13.130  16.598  0.00  0.00     0.011 C 
BRANCH  12  14
HETATM   14  C   UNK N   1      37.232  14.305  15.466  0.00  0.00     0.001 C 
HETATM   15  C   UNK N   1      37.185  15.552  16.326  0.00  0.00     0.005 C 
ENDBRANCH  12  14
ENDBRANCH   6  12
BRANCH   6  16
HETATM   16  C   UNK N   1      34.509  11.722  14.314  0.00  0.00     0.056 C 
BRANCH  16  17
HETATM   17  C   UNK N   1      34.523  10.399  13.592  0.00  0.00    -0.035 C 
HETATM   18  C   UNK N   1      33.818  10.187  12.484  0.00  0.00     0.007 C 
ENDBRANCH  16  17
ENDBRANCH   6  16
TORSDOF 4
ENDMDL
MODEL 8
REMARK VINA RESULT:      -5.0     16.034     17.749
REMARK  4 active torsions:
REMARK  status: ('A' for Active; 'I' for Inactive)
REMARK    1  A    between atoms: C_6  and  C_7 
REMARK    2  A    between atoms: C_6  and  C_8 
REMARK    3  A    between atoms: C_7  and  C_9 
REMARK    4  A    between atoms: C_8  and  C_15 
ROOT
HETATM    1  O   UNK N   1      27.298  26.568  -7.599  0.00  0.00    -0.272 OA
HETATM    2  O   UNK N   1      26.310  25.423  -3.128  0.00  0.00    -0.272 OA
HETATM    3  O   UNK N   1      25.768  22.556  -6.480  0.00  0.00    -0.247 OA
HETATM    4  N   UNK N   1      26.540  24.563  -7.035  0.00  0.00    -0.278 N 
HETATM    5  N   UNK N   1      26.034  23.995  -4.805  0.00  0.00    -0.278 N 
HETATM    6  C   UNK N   1      26.906  26.313  -5.258  0.00  0.00     0.128 A 
HETATM    7  C   UNK N   1      26.933  25.818  -6.706  0.00  0.00     0.244 A 
HETATM    8  C   UNK N   1      26.393  25.213  -4.330  0.00  0.00     0.244 A 
HETATM    9  C   UNK N   1      26.104  23.671  -6.117  0.00  0.00     0.329 A 
HETATM   10  H   UNK N   1      26.573  24.291  -7.980  0.00  0.00     0.173 HD
HETATM   11  H   UNK N   1      25.709  23.317  -4.169  0.00  0.00     0.173 HD
ENDROOT
BRANCH   6  12
HETATM   12  C   UNK N   1      25.979  27.568  -5.171  0.00  0.00     0.008 C 
HETATM   13  C   UNK N   1      24.540  27.238  -5.548  0.00  0.00     0.011 C 
BRANCH  12  14
HETATM   14  C   UNK N   1      25.958  28.266  -3.808  0.00  0.00     0.001 C 
HETATM   15  C   UNK N   1      26.419  29.707  -3.906  0.00  0.00     0.005 C 
ENDBRANCH  12  14
ENDBRANCH   6  12
BRANCH   6  16
HETATM   16  C   UNK N   1      28.345  26.650  -4.792  0.00  0.00     0.056 C 
BRANCH  16  17
HETATM   17  C   UNK N   1      29.344  25.521  -4.780  0.00  0.00    -0.035 C 
HETATM   18  C   UNK N   1      30.112  25.262  -3.725  0.00  0.00     0.007 C 
ENDBRANCH  16  17
ENDBRANCH   6  16
TORSDOF 4
ENDMDL
MODEL 9
REMARK VINA RESULT:      -4.9     16.374     18.020
REMARK  4 active torsions:
REMARK  status: ('A' for Active; 'I' for Inactive)
REMARK    1  A    between atoms: C_6  and  C_7 
REMARK    2  A    between atoms: C_6  and  C_8 
REMARK    3  A    between atoms: C_7  and  C_9 
REMARK    4  A    between atoms: C_8  and  C_15 
ROOT
HETATM    1  O   UNK N   1      24.527  27.453  -5.319  0.00  0.00    -0.272 OA
HETATM    2  O   UNK N   1      29.158  26.552  -5.194  0.00  0.00    -0.272 OA
HETATM    3  O   UNK N   1      27.162  29.102  -2.151  0.00  0.00    -0.247 OA
HETATM    4  N   UNK N   1      25.845  28.269  -3.735  0.00  0.00    -0.278 N 
HETATM    5  N   UNK N   1      28.159  27.830  -3.680  0.00  0.00    -0.278 N 
HETATM    6  C   UNK N   1      26.812  26.802  -5.542  0.00  0.00     0.128 A 
HETATM    7  C   UNK N   1      25.653  27.525  -4.851  0.00  0.00     0.244 A 
HETATM    8  C   UNK N   1      28.120  27.058  -4.793  0.00  0.00     0.244 A 
HETATM    9  C   UNK N   1      27.059  28.420  -3.158  0.00  0.00     0.329 A 
HETATM   10  H   UNK N   1      25.070  28.717  -3.328  0.00  0.00     0.173 HD
HETATM   11  H   UNK N   1      29.025  27.967  -3.231  0.00  0.00     0.173 HD
ENDROOT
BRANCH   6  12
HETATM   12  C   UNK N   1      26.924  27.316  -7.013  0.00  0.00     0.008 C 
HETATM   13  C   UNK N   1      27.899  28.480  -7.135  0.00  0.00     0.011 C 
BRANCH  12  14
HETATM   14  C   UNK N   1      27.328  26.257  -8.042  0.00  0.00     0.001 C 
HETATM   15  C   UNK N   1      26.281  26.097  -9.127  0.00  0.00     0.005 C 
ENDBRANCH  12  14
ENDBRANCH   6  12
BRANCH   6  16
HETATM   16  C   UNK N   1      26.573  25.271  -5.503  0.00  0.00     0.056 C 
BRANCH  16  17
HETATM   17  C   UNK N   1      26.176  24.673  -4.178  0.00  0.00    -0.035 C 
HETATM   18  C   UNK N   1      27.057  24.086  -3.371  0.00  0.00     0.007 C 
ENDBRANCH  16  17
ENDBRANCH   6  16
TORSDOF 4
ENDMDL
