REMARK  4 active torsions:
REMARK  status: ('A' for Active; 'I' for Inactive)
REMARK    1  A    between atoms: C_14  and  O_20 
REMARK    2  A    between atoms: C_21  and  C_24 
REMARK    3  A    between atoms: C_24  and  C_25 
REMARK    4  A    between atoms: C_25  and  O_27 
ROOT
HETATM    1  C   UNK N   1       4.190  -5.996  -1.143  0.00  0.00     0.052 C 
HETATM    2  C   UNK N   1       3.946  -7.428  -0.854  0.00  0.00     0.172 C 
HETATM    3  C   UNK N   1       5.113  -8.243  -0.462  0.00  0.00     0.061 C 
HETATM    4  C   UNK N   1       6.188  -7.624   0.059  0.00  0.00    -0.029 C 
HETATM    5  C   UNK N   1       6.114  -6.131   0.422  0.00  0.00     0.024 C 
HETATM    6  C   UNK N   1       5.315  -5.428  -0.667  0.00  0.00    -0.007 C 
HETATM    7  C   UNK N   1       7.481  -8.374   0.127  0.00  0.00     0.201 C 
HETATM    8  C   UNK N   1       8.623  -7.581  -0.530  0.00  0.00     0.049 C 
HETATM    9  C   UNK N   1       8.537  -6.033  -0.443  0.00  0.00     0.021 C 
HETATM   10  C   UNK N   1       7.554  -5.535   0.680  0.00  0.00     0.081 C 
HETATM   11  C   UNK N   1       9.944  -5.462  -0.159  0.00  0.00     0.001 C 
HETATM   12  C   UNK N   1       9.972  -3.937  -0.116  0.00  0.00    -0.027 C 
HETATM   13  C   UNK N   1       9.017  -3.434   0.979  0.00  0.00     0.044 C 
HETATM   14  C   UNK N   1       7.581  -3.972   0.773  0.00  0.00     0.144 C 
HETATM   15  F   UNK N   1       7.802  -8.709   1.427  0.00  0.00    -0.245 F 
HETATM   16 Cl   UNK N   1       8.141  -6.097   2.308  0.00  0.00    -0.115 Cl
HETATM   17  C   UNK N   1       9.622  -3.301  -1.473  0.00  0.00     0.016 C 
HETATM   18  C   UNK N   1       5.257  -5.977   1.683  0.00  0.00     0.027 C 
HETATM   19  O   UNK N   1       2.876  -7.950  -1.115  0.00  0.00    -0.289 OA
HETATM   20  C   UNK N   1      11.453  -3.745   0.196  0.00  0.00     0.070 C 
HETATM   21  C   UNK N   1      12.175  -4.781  -0.693  0.00  0.00    -0.006 C 
HETATM   22  C   UNK N   1      11.093  -5.800  -1.095  0.00  0.00     0.011 C 
HETATM   23  C   UNK N   1      13.259  -5.472   0.113  0.00  0.00     0.011 C 
ENDROOT
BRANCH  20  24
HETATM   24  C   UNK N   1      12.000  -2.334   0.166  0.00  0.00     0.155 C 
HETATM   25  O   UNK N   1      11.396  -1.442   0.739  0.00  0.00    -0.295 OA
BRANCH  24  26
HETATM   26  C   UNK N   1      13.295  -2.010  -0.507  0.00  0.00     0.242 C 
BRANCH  26  27
HETATM   27  O   UNK N   1      14.348  -2.599   0.197  0.00  0.00    -0.394 OA
HETATM   28  H   UNK N   1      14.359  -3.437   0.686  0.00  0.00     0.209 HD
ENDBRANCH  26  27
ENDBRANCH  24  26
ENDBRANCH  20  24
BRANCH  14  29
HETATM   29  O   UNK N   1       7.021  -3.356  -0.349  0.00  0.00    -0.394 OA
HETATM   30  H   UNK N   1       7.196  -2.806  -1.128  0.00  0.00     0.210 HD
ENDBRANCH  14  29
TORSDOF 4
