MODEL 1
REMARK VINA RESULT:      -4.5      0.000      0.000
REMARK  3 active torsions:
REMARK  status: ('A' for Active; 'I' for Inactive)
REMARK    1  A    between atoms: C_2  and  C_1 
REMARK    2  A    between atoms: C_3  and  C_2 
REMARK    3  A    between atoms: C_2  and  O_7 
ROOT
HETATM    1  C   UNK N   1      23.788  11.934  10.927  0.00  0.00     0.139 C 
HETATM    2  C   UNK N   1      23.511  11.983  12.385  0.00  0.00    -0.075 C 
HETATM    3  C   UNK N   1      23.333  12.048  13.585  0.00  0.00     0.015 C 
ENDROOT
BRANCH   1   4
HETATM    4  C   UNK N   1      22.283  11.907  10.593  0.00  0.00     0.051 C 
HETATM    5  C   UNK N   1      21.715  13.270  10.168  0.00  0.00     0.009 C 
ENDBRANCH   1   4
BRANCH   1   6
HETATM    6  C   UNK N   1      24.257  12.522   9.563  0.00  0.00     0.036 C 
HETATM    7  C   UNK N   1      25.186  13.473   9.254  0.00  0.00     0.084 C 
HETATM    8 Cl   UNK N   1      25.372  14.058   7.615  0.00  0.00    -0.097 Cl
ENDBRANCH   1   6
BRANCH   1   9
HETATM    9  O   UNK N   1      24.916  12.498  11.517  0.00  0.00    -0.374 OA
HETATM   10  H   UNK N   1      25.073  12.392  12.468  0.00  0.00     0.212 HD
ENDBRANCH   1   9
TORSDOF 3
ENDMDL
MODEL 2
REMARK VINA RESULT:      -4.1     19.836     21.291
REMARK  3 active torsions:
REMARK  status: ('A' for Active; 'I' for Inactive)
REMARK    1  A    between atoms: C_2  and  C_1 
REMARK    2  A    between atoms: C_3  and  C_2 
REMARK    3  A    between atoms: C_2  and  O_7 
ROOT
HETATM    1  C   UNK N   1      26.013  28.115  -3.735  0.00  0.00     0.139 C 
HETATM    2  C   UNK N   1      26.374  29.538  -3.959  0.00  0.00    -0.075 C 
HETATM    3  C   UNK N   1      26.695  30.702  -4.094  0.00  0.00     0.015 C 
ENDROOT
BRANCH   1   4
HETATM    4  C   UNK N   1      25.943  27.843  -5.250  0.00  0.00     0.051 C 
HETATM    5  C   UNK N   1      24.639  27.168  -5.703  0.00  0.00     0.009 C 
ENDBRANCH   1   4
BRANCH   1   6
HETATM    6  C   UNK N   1      26.292  26.643  -3.308  0.00  0.00     0.036 C 
HETATM    7  C   UNK N   1      27.238  25.743  -3.707  0.00  0.00     0.084 C 
HETATM    8 Cl   UNK N   1      27.191  24.080  -3.165  0.00  0.00    -0.097 Cl
ENDBRANCH   1   6
BRANCH   1   9
HETATM    9  O   UNK N   1      26.670  28.536  -2.580  0.00  0.00    -0.374 OA
HETATM   10  H   UNK N   1      26.517  29.427  -2.231  0.00  0.00     0.212 HD
ENDBRANCH   1   9
TORSDOF 3
ENDMDL
MODEL 3
REMARK VINA RESULT:      -4.1     12.184     12.959
REMARK  3 active torsions:
REMARK  status: ('A' for Active; 'I' for Inactive)
REMARK    1  A    between atoms: C_2  and  C_1 
REMARK    2  A    between atoms: C_3  and  C_2 
REMARK    3  A    between atoms: C_2  and  O_7 
ROOT
HETATM    1  C   UNK N   1      34.701  12.485  15.812  0.00  0.00     0.139 C 
HETATM    2  C   UNK N   1      34.202  11.392  14.938  0.00  0.00    -0.075 C 
HETATM    3  C   UNK N   1      33.793  10.534  14.182  0.00  0.00     0.015 C 
ENDROOT
BRANCH   1   4
HETATM    4  C   UNK N   1      35.419  11.484  16.738  0.00  0.00     0.051 C 
HETATM    5  C   UNK N   1      35.325  11.837  18.230  0.00  0.00     0.009 C 
ENDBRANCH   1   4
BRANCH   1   6
HETATM    6  C   UNK N   1      35.595  13.713  16.158  0.00  0.00     0.036 C 
HETATM    7  C   UNK N   1      36.673  14.261  15.526  0.00  0.00     0.084 C 
HETATM    8 Cl   UNK N   1      37.593  15.556  16.260  0.00  0.00    -0.097 Cl
ENDBRANCH   1   6
BRANCH   1   9
HETATM    9  O   UNK N   1      34.450  13.065  14.570  0.00  0.00    -0.374 OA
HETATM   10  H   UNK N   1      35.177  13.451  14.058  0.00  0.00     0.212 HD
ENDBRANCH   1   9
TORSDOF 3
ENDMDL
MODEL 4
REMARK VINA RESULT:      -4.1     10.377     11.763
REMARK  3 active torsions:
REMARK  status: ('A' for Active; 'I' for Inactive)
REMARK    1  A    between atoms: C_2  and  C_1 
REMARK    2  A    between atoms: C_3  and  C_2 
REMARK    3  A    between atoms: C_2  and  O_7 
ROOT
HETATM    1  C   UNK N   1      33.393  17.819   7.188  0.00  0.00     0.139 C 
HETATM    2  C   UNK N   1      33.164  17.497   5.756  0.00  0.00    -0.075 C 
HETATM    3  C   UNK N   1      33.031  17.233   4.578  0.00  0.00     0.015 C 
ENDROOT
BRANCH   1   4
HETATM    4  C   UNK N   1      32.048  17.187   7.596  0.00  0.00     0.051 C 
HETATM    5  C   UNK N   1      31.251  18.020   8.611  0.00  0.00     0.009 C 
ENDBRANCH   1   4
BRANCH   1   6
HETATM    6  C   UNK N   1      34.088  17.657   8.574  0.00  0.00     0.036 C 
HETATM    7  C   UNK N   1      34.733  16.602   9.149  0.00  0.00     0.084 C 
HETATM    8 Cl   UNK N   1      35.267  16.666  10.815  0.00  0.00    -0.097 Cl
ENDBRANCH   1   6
BRANCH   1   9
HETATM    9  O   UNK N   1      34.653  17.777   6.593  0.00  0.00    -0.374 OA
HETATM   10  H   UNK N   1      35.450  17.759   7.144  0.00  0.00     0.212 HD
ENDBRANCH   1   9
TORSDOF 3
ENDMDL
MODEL 5
REMARK VINA RESULT:      -4.0     12.433     13.284
REMARK  3 active torsions:
REMARK  status: ('A' for Active; 'I' for Inactive)
REMARK    1  A    between atoms: C_2  and  C_1 
REMARK    2  A    between atoms: C_3  and  C_2 
REMARK    3  A    between atoms: C_2  and  O_7 
ROOT
HETATM    1  C   UNK N   1      36.217  13.281  15.662  0.00  0.00     0.139 C 
HETATM    2  C   UNK N   1      36.867  14.578  15.978  0.00  0.00    -0.075 C 
HETATM    3  C   UNK N   1      37.424  15.637  16.188  0.00  0.00     0.015 C 
ENDROOT
BRANCH   1   4
HETATM    4  C   UNK N   1      35.020  13.601  16.578  0.00  0.00     0.051 C 
HETATM    5  C   UNK N   1      35.239  13.213  18.049  0.00  0.00     0.009 C 
ENDBRANCH   1   4
BRANCH   1   6
HETATM    6  C   UNK N   1      35.466  12.269  14.745  0.00  0.00     0.036 C 
HETATM    7  C   UNK N   1      34.229  11.701  14.839  0.00  0.00     0.084 C 
HETATM    8 Cl   UNK N   1      33.722  10.446  13.729  0.00  0.00    -0.097 Cl
ENDBRANCH   1   6
BRANCH   1   9
HETATM    9  O   UNK N   1      37.071  13.557  14.596  0.00  0.00    -0.374 OA
HETATM   10  H   UNK N   1      37.911  14.015  14.751  0.00  0.00     0.212 HD
ENDBRANCH   1   9
TORSDOF 3
ENDMDL
MODEL 6
REMARK VINA RESULT:      -3.9     11.835     12.677
REMARK  3 active torsions:
REMARK  status: ('A' for Active; 'I' for Inactive)
REMARK    1  A    between atoms: C_2  and  C_1 
REMARK    2  A    between atoms: C_3  and  C_2 
REMARK    3  A    between atoms: C_2  and  O_7 
ROOT
HETATM    1  C   UNK N   1      35.325  13.455  15.233  0.00  0.00     0.139 C 
HETATM    2  C   UNK N   1      35.221  13.203  16.692  0.00  0.00    -0.075 C 
HETATM    3  C   UNK N   1      35.092  12.967  17.877  0.00  0.00     0.015 C 
ENDROOT
BRANCH   1   4
HETATM    4  C   UNK N   1      36.849  13.667  15.327  0.00  0.00     0.051 C 
HETATM    5  C   UNK N   1      37.258  15.101  15.694  0.00  0.00     0.009 C 
ENDBRANCH   1   4
BRANCH   1   6
HETATM    6  C   UNK N   1      35.301  13.048  13.728  0.00  0.00     0.036 C 
HETATM    7  C   UNK N   1      35.407  13.784  12.585  0.00  0.00     0.084 C 
HETATM    8 Cl   UNK N   1      35.165  13.055  11.012  0.00  0.00    -0.097 Cl
ENDBRANCH   1   6
BRANCH   1   9
HETATM    9  O   UNK N   1      34.164  12.707  15.416  0.00  0.00    -0.374 OA
HETATM   10  H   UNK N   1      34.210  11.829  15.824  0.00  0.00     0.212 HD
ENDBRANCH   1   9
TORSDOF 3
ENDMDL
MODEL 7
REMARK VINA RESULT:      -3.8     21.765     22.269
REMARK  3 active torsions:
REMARK  status: ('A' for Active; 'I' for Inactive)
REMARK    1  A    between atoms: C_2  and  C_1 
REMARK    2  A    between atoms: C_3  and  C_2 
REMARK    3  A    between atoms: C_2  and  O_7 
ROOT
HETATM    1  C   UNK N   1      26.466  28.500  -4.135  0.00  0.00     0.139 C 
HETATM    2  C   UNK N   1      25.494  27.744  -4.965  0.00  0.00    -0.075 C 
HETATM    3  C   UNK N   1      24.665  27.126  -5.602  0.00  0.00     0.015 C 
ENDROOT
BRANCH   1   4
HETATM    4  C   UNK N   1      27.119  29.128  -5.382  0.00  0.00     0.051 C 
HETATM    5  C   UNK N   1      28.160  28.225  -6.061  0.00  0.00     0.009 C 
ENDBRANCH   1   4
BRANCH   1   6
HETATM    6  C   UNK N   1      26.894  29.617  -3.136  0.00  0.00     0.036 C 
HETATM    7  C   UNK N   1      27.900  29.678  -2.216  0.00  0.00     0.084 C 
HETATM    8 Cl   UNK N   1      28.027  31.019  -1.099  0.00  0.00    -0.097 Cl
ENDBRANCH   1   6
BRANCH   1   9
HETATM    9  O   UNK N   1      25.376  28.231  -3.309  0.00  0.00    -0.374 OA
HETATM   10  H   UNK N   1      25.258  28.724  -2.483  0.00  0.00     0.212 HD
ENDBRANCH   1   9
TORSDOF 3
ENDMDL
MODEL 8
REMARK VINA RESULT:      -3.7     19.650     20.748
REMARK  3 active torsions:
REMARK  status: ('A' for Active; 'I' for Inactive)
REMARK    1  A    between atoms: C_2  and  C_1 
REMARK    2  A    between atoms: C_3  and  C_2 
REMARK    3  A    between atoms: C_2  and  O_7 
ROOT
HETATM    1  C   UNK N   1      25.946  24.509  -6.114  0.00  0.00     0.139 C 
HETATM    2  C   UNK N   1      25.427  25.881  -5.888  0.00  0.00    -0.075 C 
HETATM    3  C   UNK N   1      24.978  27.002  -5.753  0.00  0.00     0.015 C 
ENDROOT
BRANCH   1   4
HETATM    4  C   UNK N   1      25.999  24.227  -4.600  0.00  0.00     0.051 C 
HETATM    5  C   UNK N   1      27.411  24.308  -4.000  0.00  0.00     0.009 C 
ENDBRANCH   1   4
BRANCH   1   6
HETATM    6  C   UNK N   1      25.841  23.020  -6.563  0.00  0.00     0.036 C 
HETATM    7  C   UNK N   1      26.045  22.418  -7.770  0.00  0.00     0.084 C 
HETATM    8 Cl   UNK N   1      25.675  20.724  -8.012  0.00  0.00    -0.097 Cl
ENDBRANCH   1   6
BRANCH   1   9
HETATM    9  O   UNK N   1      25.283  24.870  -7.285  0.00  0.00    -0.374 OA
HETATM   10  H   UNK N   1      24.401  24.513  -7.474  0.00  0.00     0.212 HD
ENDBRANCH   1   9
TORSDOF 3
ENDMDL
MODEL 9
REMARK VINA RESULT:      -3.7     12.328     13.269
REMARK  3 active torsions:
REMARK  status: ('A' for Active; 'I' for Inactive)
REMARK    1  A    between atoms: C_2  and  C_1 
REMARK    2  A    between atoms: C_3  and  C_2 
REMARK    3  A    between atoms: C_2  and  O_7 
ROOT
HETATM    1  C   UNK N   1      35.041  13.063  15.545  0.00  0.00     0.139 C 
HETATM    2  C   UNK N   1      35.691  13.293  14.230  0.00  0.00    -0.075 C 
HETATM    3  C   UNK N   1      36.266  13.504  13.181  0.00  0.00     0.015 C 
ENDROOT
BRANCH   1   4
HETATM    4  C   UNK N   1      34.255  11.854  15.001  0.00  0.00     0.051 C 
HETATM    5  C   UNK N   1      34.579  10.530  15.710  0.00  0.00     0.009 C 
ENDBRANCH   1   4
BRANCH   1   6
HETATM    6  C   UNK N   1      35.005  12.632  17.042  0.00  0.00     0.036 C 
HETATM    7  C   UNK N   1      35.166  13.341  18.197  0.00  0.00     0.084 C 
HETATM    8 Cl   UNK N   1      35.247  12.537  19.750  0.00  0.00    -0.097 Cl
ENDBRANCH   1   6
BRANCH   1   9
HETATM    9  O   UNK N   1      36.219  13.758  15.811  0.00  0.00    -0.374 OA
HETATM   10  H   UNK N   1      36.746  14.119  15.082  0.00  0.00     0.212 HD
ENDBRANCH   1   9
TORSDOF 3
ENDMDL
