MODEL 1
REMARK VINA RESULT:      -6.8      0.000      0.000
REMARK WARNING: 32 MAX_TORS EXCEEDED!!!
REMARK  35 active torsions:
REMARK  status: ('A' for Active; 'I' for Inactive)
REMARK    1  A    between atoms: C_3  and  C_9 
REMARK    2  A    between atoms: C_6  and  C_7 
REMARK    3  A    between atoms: C_7  and  N_8 
REMARK    4  A    between atoms: C_7  and  C_26 
REMARK       I    between atoms: C_9  and  N_10 
REMARK    5  A    between atoms: N_10  and  C_11 
REMARK    6  A    between atoms: C_11  and  C_12 
REMARK    7  A    between atoms: C_11  and  C_36 
REMARK       I    between atoms: C_12  and  N_13 
REMARK    8  A    between atoms: N_13  and  C_14 
REMARK    9  A    between atoms: C_14  and  C_15 
REMARK   10  A    between atoms: C_14  and  C_40 
REMARK       I    between atoms: C_15  and  N_16 
REMARK   11  A    between atoms: C_17  and  N_16 
REMARK   12  A    between atoms: C_17  and  C_18 
REMARK   13  A    between atoms: C_17  and  C_45 
REMARK       I    between atoms: C_18  and  N_19 
REMARK   14  A    between atoms: N_19  and  C_20 
REMARK   15  A    between atoms: C_23  and  C_50 
REMARK   16  A    between atoms: C_26  and  C_28 
REMARK   17  A    between atoms: C_36  and  C_37 
REMARK   18  A    between atoms: C_40  and  C_41 
REMARK   19  A    between atoms: C_41  and  C_42 
REMARK   20  A    between atoms: C_42  and  O_43 
REMARK   21  A    between atoms: C_45  and  C_46 
REMARK   22  A    between atoms: C_50  and  C_68 
REMARK   23  A    between atoms: C_51  and  C_71 
REMARK   24  A    between atoms: C_55  and  C_75 
REMARK   25  A    between atoms: C_59  and  C_82 
REMARK   26  A    between atoms: C_63  and  C_98 
REMARK   27  A    between atoms: C_68  and  C_69 
REMARK   28  A    between atoms: C_69  and  N_70 
REMARK   29  A    between atoms: C_71  and  C_73 
REMARK   30  A    between atoms: C_75  and  C_76 
REMARK   31  A    between atoms: C_82  and  C_83 
REMARK   32  A    between atoms: C_89  and  C_93 
REMARK   33  A    between atoms: C_93  and  C_94 
REMARK       I    between atoms: C_94  and  N_96 
REMARK   34  A    between atoms: C_98  and  C_100 
REMARK   35  A    between atoms: C_100  and  O_102 
ROOT
HETATM    1  C   UNK N   1      33.227  11.093   4.274  0.00  0.00     0.176 C 
HETATM    2  C   UNK N   1      34.128  12.266   4.400  0.00  0.00     0.241 C 
HETATM    3  N   UNK N   1      33.781  13.195   5.319  0.00  0.00    -0.346 N 
HETATM    4  C   UNK N   1      34.137  14.592   5.258  0.00  0.00     0.176 C 
HETATM    5  C   UNK N   1      33.396  15.262   4.133  0.00  0.00     0.241 C 
HETATM    6  N   UNK N   1      32.275  15.990   4.361  0.00  0.00    -0.346 N 
HETATM    7  O   UNK N   1      34.980  12.497   3.556  0.00  0.00    -0.271 OA
HETATM    8  O   UNK N   1      33.800  15.139   2.987  0.00  0.00    -0.271 OA
HETATM    9  C   UNK N   1      32.291  11.183   3.078  0.00  0.00     0.035 C 
HETATM   10  C   UNK N   1      31.553  16.072   5.620  0.00  0.00     0.180 C 
HETATM   11  C   UNK N   1      30.730  14.820   5.834  0.00  0.00     0.241 C 
HETATM   12  O   UNK N   1      31.205  13.883   6.459  0.00  0.00    -0.271 OA
HETATM   13  N   UNK N   1      29.471  14.709   5.339  0.00  0.00    -0.346 N 
HETATM   14  C   UNK N   1      28.805  15.770   4.620  0.00  0.00     0.180 C 
HETATM   15  C   UNK N   1      29.110  15.986   3.157  0.00  0.00     0.241 C 
HETATM   16  N   UNK N   1      28.287  15.549   2.174  0.00  0.00    -0.346 N 
HETATM   17  O   UNK N   1      30.124  16.588   2.848  0.00  0.00    -0.271 OA
HETATM   18  C   UNK N   1      27.058  14.850   2.449  0.00  0.00     0.182 C 
HETATM   19  C   UNK N   1      27.299  13.385   2.408  0.00  0.00     0.241 C 
HETATM   20  N   UNK N   1      27.767  12.815   1.278  0.00  0.00    -0.346 N 
HETATM   21  O   UNK N   1      27.118  12.726   3.427  0.00  0.00    -0.271 OA
HETATM   22  C   UNK N   1      28.284  11.461   1.171  0.00  0.00     0.186 C 
HETATM   23  C   UNK N   1      27.272  10.346   1.425  0.00  0.00     0.241 C 
HETATM   24  N   UNK N   1      27.639   9.049   1.156  0.00  0.00    -0.346 N 
HETATM   25  O   UNK N   1      26.183  10.586   1.843  0.00  0.00    -0.271 OA
HETATM   26  C   UNK N   1      32.747  10.547   1.786  0.00  0.00     0.004 C 
HETATM   27  C   UNK N   1      28.914   8.714   0.587  0.00  0.00     0.185 C 
HETATM   28  C   UNK N   1      29.480   7.419   1.093  0.00  0.00     0.240 C 
HETATM   29  N   UNK N   1      30.577   7.406   1.886  0.00  0.00    -0.359 N 
HETATM   30  O   UNK N   1      28.959   6.359   0.772  0.00  0.00    -0.271 OA
HETATM   31  C   UNK N   1      31.725   9.525   1.272  0.00  0.00     0.020 C 
HETATM   32  C   UNK N   1      31.209   8.608   2.388  0.00  0.00     0.122 C 
HETATM   33  H   UNK N   1      33.245  12.897   6.088  0.00  0.00     0.163 HD
HETATM   34  H   UNK N   1      31.917  16.509   3.604  0.00  0.00     0.163 HD
HETATM   35  H   UNK N   1      28.987  13.862   5.477  0.00  0.00     0.163 HD
HETATM   36  H   UNK N   1      28.539  15.715   1.238  0.00  0.00     0.163 HD
HETATM   37  H   UNK N   1      27.758  13.361   0.458  0.00  0.00     0.163 HD
HETATM   38  H   UNK N   1      27.005   8.324   1.359  0.00  0.00     0.163 HD
HETATM   39  H   UNK N   1      30.965   6.535   2.133  0.00  0.00     0.162 HD
ENDROOT
BRANCH   1  40
HETATM   40  N   UNK N   1      33.686   9.773   4.665  0.00  0.00    -0.346 N 
HETATM   41  C   UNK N   1      33.644   9.248   5.912  0.00  0.00     0.241 C 
HETATM   42  O   UNK N   1      34.147   8.152   6.109  0.00  0.00    -0.271 OA
HETATM   43  H   UNK N   1      34.065   9.206   3.955  0.00  0.00     0.163 HD
BRANCH  41  44
HETATM   44  C   UNK N   1      32.995   9.990   7.057  0.00  0.00     0.180 C 
BRANCH  44  45
HETATM   45  N   UNK N   1      33.921  10.592   8.014  0.00  0.00    -0.346 N 
HETATM   46  C   UNK N   1      33.835  11.825   8.588  0.00  0.00     0.241 C 
HETATM   47  O   UNK N   1      32.949  12.606   8.284  0.00  0.00    -0.271 OA
HETATM   48  H   UNK N   1      34.697  10.045   8.274  0.00  0.00     0.163 HD
BRANCH  46  49
HETATM   49  C   UNK N   1      34.932  12.316   9.475  0.00  0.00     0.177 C 
BRANCH  49  50
HETATM   50  N   UNK N   1      35.366  11.169  10.215  0.00  0.00    -0.346 N 
HETATM   51  C   UNK N   1      36.620  10.730   9.962  0.00  0.00     0.241 C 
HETATM   52  O   UNK N   1      37.391  11.431   9.310  0.00  0.00    -0.271 OA
HETATM   53  H   UNK N   1      34.784  10.724  10.873  0.00  0.00     0.163 HD
BRANCH  51  54
HETATM   54  C   UNK N   1      37.093   9.407  10.435  0.00  0.00     0.177 C 
BRANCH  54  55
HETATM   55  N   UNK N   1      36.288   9.184  11.612  0.00  0.00    -0.346 N 
HETATM   56  C   UNK N   1      36.645   8.326  12.612  0.00  0.00     0.241 C 
HETATM   57  O   UNK N   1      37.291   7.316  12.385  0.00  0.00    -0.271 OA
HETATM   58  H   UNK N   1      35.440   9.677  11.699  0.00  0.00     0.163 HD
BRANCH  56  59
HETATM   59  C   UNK N   1      36.401   8.719  14.031  0.00  0.00     0.184 C 
HETATM   60  C   UNK N   1      37.717   8.752  14.825  0.00  0.00     0.115 C 
HETATM   61  S   UNK N   1      38.403  10.441  14.707  0.00  0.00    -0.112 SA
HETATM   62  C   UNK N   1      36.758  10.958  14.252  0.00  0.00     0.066 C 
HETATM   63  N   UNK N   1      35.920  10.042  13.978  0.00  0.00    -0.372 N 
ATOM     64  HN  UNK N   1      34.953  10.254  13.734  1.00  0.00     0.160 HD
BRANCH  62  65
HETATM   65  C   UNK N   1      36.424  12.354  13.884  0.00  0.00     0.135 C 
BRANCH  65  66
HETATM   66  N   UNK N   1      37.300  12.759  12.795  0.00  0.00    -0.420 N 
HETATM   67  H   UNK N   1      37.260  13.066  11.822  0.00  0.00     0.150 HD
HETATM   68  H   UNK N   1      38.270  12.725  13.104  0.00  0.00     0.150 HD
ENDBRANCH  65  66
BRANCH  65  69
HETATM   69  C   UNK N   1      36.718  13.172  15.154  0.00  0.00     0.010 C 
HETATM   70  C   UNK N   1      35.656  12.928  16.224  0.00  0.00     0.012 C 
BRANCH  69  71
HETATM   71  C   UNK N   1      36.914  14.653  14.924  0.00  0.00     0.002 C 
HETATM   72  C   UNK N   1      37.312  15.304  16.238  0.00  0.00     0.005 C 
ENDBRANCH  69  71
ENDBRANCH  65  69
ENDBRANCH  62  65
ENDBRANCH  56  59
ENDBRANCH  54  55
BRANCH  54  73
HETATM   73  C   UNK N   1      38.583   9.551  10.774  0.00  0.00     0.038 C 
BRANCH  73  74
HETATM   74  C   UNK N   1      39.523   8.671   9.992  0.00  0.00    -0.020 C 
HETATM   75  C   UNK N   1      40.347   9.585   9.107  0.00  0.00     0.009 C 
HETATM   76  C   UNK N   1      40.459   7.982  10.962  0.00  0.00     0.009 C 
ENDBRANCH  73  74
ENDBRANCH  54  73
ENDBRANCH  51  54
ENDBRANCH  49  50
BRANCH  49  77
HETATM   77  C   UNK N   1      34.613  13.513  10.358  0.00  0.00     0.045 C 
BRANCH  77  78
HETATM   78  C   UNK N   1      35.137  14.825   9.750  0.00  0.00     0.112 C 
BRANCH  78  79
HETATM   79  C   UNK N   1      36.453  15.276  10.326  0.00  0.00     0.139 C 
HETATM   80  O   UNK N   1      36.555  16.390  10.811  0.00  0.00    -0.650 OA
BRANCH  79  81
HETATM   81  O   UNK N   1      37.526  14.462  10.293  0.00  0.00    -0.776 OA
HETATM   82  H   UNK N   1      38.281  14.555  10.841  0.00  0.00     0.167 HD
ENDBRANCH  79  81
ENDBRANCH  78  79
ENDBRANCH  77  78
ENDBRANCH  49  77
ENDBRANCH  46  49
ENDBRANCH  44  45
BRANCH  44  83
HETATM   83  C   UNK N   1      31.952   9.138   7.801  0.00  0.00     0.013 C 
HETATM   84  C   UNK N   1      31.075   8.420   6.793  0.00  0.00     0.012 C 
BRANCH  83  85
HETATM   85  C   UNK N   1      32.568   8.091   8.722  0.00  0.00     0.002 C 
HETATM   86  C   UNK N   1      32.067   8.282  10.141  0.00  0.00     0.005 C 
ENDBRANCH  83  85
ENDBRANCH  44  83
ENDBRANCH  41  44
ENDBRANCH   1  40
BRANCH   4  87
HETATM   87  C   UNK N   1      35.633  14.874   5.191  0.00  0.00     0.036 C 
BRANCH  87  88
HETATM   88  C   UNK N   1      36.307  14.551   6.510  0.00  0.00     0.021 C 
BRANCH  88  89
HETATM   89  C   UNK N   1      37.423  13.546   6.315  0.00  0.00     0.111 C 
BRANCH  89  90
HETATM   90  N   UNK N   1      38.341  13.608   7.438  0.00  0.00    -0.430 N 
HETATM   91  H   UNK N   1      39.297  13.260   7.514  0.00  0.00     0.149 HD
HETATM   92  H   UNK N   1      37.977  14.067   8.274  0.00  0.00     0.149 HD
ENDBRANCH  89  90
ENDBRANCH  88  89
ENDBRANCH  87  88
ENDBRANCH   4  87
BRANCH  10  93
HETATM   93  C   UNK N   1      32.419  16.474   6.822  0.00  0.00     0.013 C 
HETATM   94  C   UNK N   1      31.547  16.803   8.026  0.00  0.00     0.012 C 
BRANCH  93  95
HETATM   95  C   UNK N   1      33.309  17.664   6.492  0.00  0.00     0.002 C 
HETATM   96  C   UNK N   1      34.250  17.950   7.647  0.00  0.00     0.005 C 
ENDBRANCH  93  95
ENDBRANCH  10  93
BRANCH  27  97
HETATM   97  C   UNK N   1      28.943   8.859  -0.938  0.00  0.00     0.137 C 
BRANCH  97  98
HETATM   98  C   UNK N   1      27.971   7.964  -1.642  0.00  0.00     0.217 C 
HETATM   99  O   UNK N   1      26.774   8.171  -1.530  0.00  0.00    -0.274 OA
HETATM  100  N   UNK N   1      28.405   6.929  -2.386  0.00  0.00    -0.370 N 
HETATM  101  H   UNK N   1      29.294   6.610  -2.666  0.00  0.00     0.159 HD
HETATM  102  H   UNK N   1      27.672   6.366  -2.726  0.00  0.00     0.159 HD
ENDBRANCH  97  98
ENDBRANCH  27  97
BRANCH  14 103
HETATM  103  C   UNK N   1      27.574  16.345   5.299  0.00  0.00     0.073 C 
BRANCH 103 104
HETATM  104  C   UNK N   1      27.326  17.733   4.804  0.00  0.00    -0.056 A 
HETATM  105  C   UNK N   1      28.220  18.755   5.131  0.00  0.00     0.007 A 
HETATM  106  C   UNK N   1      27.994  20.055   4.668  0.00  0.00     0.001 A 
HETATM  107  C   UNK N   1      26.867  20.336   3.887  0.00  0.00     0.000 A 
HETATM  108  C   UNK N   1      25.972  19.316   3.557  0.00  0.00     0.001 A 
HETATM  109  C   UNK N   1      26.206  18.016   4.006  0.00  0.00     0.007 A 
ENDBRANCH 103 104
ENDBRANCH  14 103
BRANCH  22 110
HETATM  110  C   UNK N   1      29.559  11.339   1.984  0.00  0.00     0.144 C 
BRANCH 110 111
HETATM  111  C   UNK N   1      29.383  11.116   3.459  0.00  0.00     0.141 C 
HETATM  112  O   UNK N   1      29.010  10.033   3.881  0.00  0.00    -0.650 OA
BRANCH 111 113
HETATM  113  O   UNK N   1      29.712  12.091   4.324  0.00  0.00    -0.776 OA
HETATM  114  H   UNK N   1      29.318  12.118   5.174  0.00  0.00     0.167 HD
ENDBRANCH 111 113
ENDBRANCH 110 111
ENDBRANCH  22 110
BRANCH  18 115
HETATM  115  C   UNK N   1      26.005  15.239   1.428  0.00  0.00     0.093 C 
BRANCH 115 116
HETATM  116  C   UNK N   1      24.661  14.742   1.841  0.00  0.00     0.028 A 
HETATM  117  N   UNK N   1      24.115  14.999   3.038  0.00  0.00    -0.354 N 
HETATM  118  C   UNK N   1      22.926  14.363   3.020  0.00  0.00     0.180 A 
ATOM    119  HN  UNK N   1      24.512  15.555   3.795  1.00  0.00     0.166 HD
HETATM  120  N   UNK N   1      22.719  13.717   1.854  0.00  0.00    -0.360 N 
HETATM  121  C   UNK N   1      23.810  13.951   1.105  0.00  0.00     0.114 A 
HETATM  122  H   UNK N   1      21.931  13.182   1.604  0.00  0.00     0.166 HD
ENDBRANCH 115 116
ENDBRANCH  18 115
TORSDOF 35
ENDMDL
MODEL 2
REMARK VINA RESULT:      -6.8      3.326     11.641
REMARK WARNING: 32 MAX_TORS EXCEEDED!!!
REMARK  35 active torsions:
REMARK  status: ('A' for Active; 'I' for Inactive)
REMARK    1  A    between atoms: C_3  and  C_9 
REMARK    2  A    between atoms: C_6  and  C_7 
REMARK    3  A    between atoms: C_7  and  N_8 
REMARK    4  A    between atoms: C_7  and  C_26 
REMARK       I    between atoms: C_9  and  N_10 
REMARK    5  A    between atoms: N_10  and  C_11 
REMARK    6  A    between atoms: C_11  and  C_12 
REMARK    7  A    between atoms: C_11  and  C_36 
REMARK       I    between atoms: C_12  and  N_13 
REMARK    8  A    between atoms: N_13  and  C_14 
REMARK    9  A    between atoms: C_14  and  C_15 
REMARK   10  A    between atoms: C_14  and  C_40 
REMARK       I    between atoms: C_15  and  N_16 
REMARK   11  A    between atoms: C_17  and  N_16 
REMARK   12  A    between atoms: C_17  and  C_18 
REMARK   13  A    between atoms: C_17  and  C_45 
REMARK       I    between atoms: C_18  and  N_19 
REMARK   14  A    between atoms: N_19  and  C_20 
REMARK   15  A    between atoms: C_23  and  C_50 
REMARK   16  A    between atoms: C_26  and  C_28 
REMARK   17  A    between atoms: C_36  and  C_37 
REMARK   18  A    between atoms: C_40  and  C_41 
REMARK   19  A    between atoms: C_41  and  C_42 
REMARK   20  A    between atoms: C_42  and  O_43 
REMARK   21  A    between atoms: C_45  and  C_46 
REMARK   22  A    between atoms: C_50  and  C_68 
REMARK   23  A    between atoms: C_51  and  C_71 
REMARK   24  A    between atoms: C_55  and  C_75 
REMARK   25  A    between atoms: C_59  and  C_82 
REMARK   26  A    between atoms: C_63  and  C_98 
REMARK   27  A    between atoms: C_68  and  C_69 
REMARK   28  A    between atoms: C_69  and  N_70 
REMARK   29  A    between atoms: C_71  and  C_73 
REMARK   30  A    between atoms: C_75  and  C_76 
REMARK   31  A    between atoms: C_82  and  C_83 
REMARK   32  A    between atoms: C_89  and  C_93 
REMARK   33  A    between atoms: C_93  and  C_94 
REMARK       I    between atoms: C_94  and  N_96 
REMARK   34  A    between atoms: C_98  and  C_100 
REMARK   35  A    between atoms: C_100  and  O_102 
ROOT
HETATM    1  C   UNK N   1      34.771  14.419   5.326  0.00  0.00     0.176 C 
HETATM    2  C   UNK N   1      34.878  14.018   3.901  0.00  0.00     0.241 C 
HETATM    3  N   UNK N   1      33.735  13.614   3.302  0.00  0.00    -0.346 N 
HETATM    4  C   UNK N   1      33.664  12.705   2.183  0.00  0.00     0.176 C 
HETATM    5  C   UNK N   1      34.058  11.321   2.621  0.00  0.00     0.241 C 
HETATM    6  N   UNK N   1      33.127  10.378   2.907  0.00  0.00    -0.346 N 
HETATM    7  O   UNK N   1      35.968  13.823   3.384  0.00  0.00    -0.271 OA
HETATM    8  O   UNK N   1      35.241  11.039   2.736  0.00  0.00    -0.271 OA
HETATM    9  C   UNK N   1      35.250  13.344   6.289  0.00  0.00     0.035 C 
HETATM   10  C   UNK N   1      31.694  10.600   3.013  0.00  0.00     0.180 C 
HETATM   11  C   UNK N   1      31.364  11.263   4.334  0.00  0.00     0.241 C 
HETATM   12  O   UNK N   1      31.302  12.481   4.400  0.00  0.00    -0.271 OA
HETATM   13  N   UNK N   1      31.141  10.530   5.455  0.00  0.00    -0.346 N 
HETATM   14  C   UNK N   1      31.154   9.086   5.475  0.00  0.00     0.180 C 
HETATM   15  C   UNK N   1      32.471   8.353   5.540  0.00  0.00     0.241 C 
HETATM   16  N   UNK N   1      32.950   7.826   6.693  0.00  0.00    -0.346 N 
HETATM   17  O   UNK N   1      33.123   8.216   4.518  0.00  0.00    -0.271 OA
HETATM   18  C   UNK N   1      32.237   7.919   7.940  0.00  0.00     0.182 C 
HETATM   19  C   UNK N   1      32.718   9.102   8.700  0.00  0.00     0.241 C 
HETATM   20  N   UNK N   1      34.020   9.190   9.046  0.00  0.00    -0.346 N 
HETATM   21  O   UNK N   1      31.928  10.006   8.951  0.00  0.00    -0.271 OA
HETATM   22  C   UNK N   1      34.675  10.383   9.556  0.00  0.00     0.186 C 
HETATM   23  C   UNK N   1      34.183  10.876  10.915  0.00  0.00     0.241 C 
HETATM   24  N   UNK N   1      34.881  11.879  11.544  0.00  0.00    -0.346 N 
HETATM   25  O   UNK N   1      33.219  10.404  11.429  0.00  0.00    -0.271 OA
HETATM   26  C   UNK N   1      36.693  13.397   6.733  0.00  0.00     0.004 C 
HETATM   27  C   UNK N   1      36.088  12.433  10.998  0.00  0.00     0.185 C 
HETATM   28  C   UNK N   1      36.251  13.903  11.259  0.00  0.00     0.240 C 
HETATM   29  N   UNK N   1      36.171  14.799  10.247  0.00  0.00    -0.359 N 
HETATM   30  O   UNK N   1      36.477  14.300  12.394  0.00  0.00    -0.271 OA
HETATM   31  C   UNK N   1      36.809  13.443   8.262  0.00  0.00     0.020 C 
HETATM   32  C   UNK N   1      35.821  14.435   8.889  0.00  0.00     0.122 C 
HETATM   33  H   UNK N   1      32.887  13.966   3.655  0.00  0.00     0.163 HD
HETATM   34  H   UNK N   1      33.450   9.460   3.055  0.00  0.00     0.163 HD
HETATM   35  H   UNK N   1      30.962  11.008   6.297  0.00  0.00     0.163 HD
HETATM   36  H   UNK N   1      33.817   7.361   6.676  0.00  0.00     0.163 HD
HETATM   37  H   UNK N   1      34.571   8.380   8.945  0.00  0.00     0.163 HD
HETATM   38  H   UNK N   1      34.542  12.230  12.399  0.00  0.00     0.163 HD
HETATM   39  H   UNK N   1      36.360  15.744  10.444  0.00  0.00     0.162 HD
ENDROOT
BRANCH   1  40
HETATM   40  N   UNK N   1      34.977  15.803   5.712  0.00  0.00    -0.346 N 
HETATM   41  C   UNK N   1      34.104  16.583   6.392  0.00  0.00     0.241 C 
HETATM   42  O   UNK N   1      34.380  17.760   6.573  0.00  0.00    -0.271 OA
HETATM   43  H   UNK N   1      35.834  16.212   5.456  0.00  0.00     0.163 HD
BRANCH  41  44
HETATM   44  C   UNK N   1      32.801  16.031   6.921  0.00  0.00     0.180 C 
BRANCH  44  45
HETATM   45  N   UNK N   1      31.650  16.192   6.035  0.00  0.00    -0.346 N 
HETATM   46  C   UNK N   1      31.663  16.415   4.691  0.00  0.00     0.241 C 
HETATM   47  O   UNK N   1      32.708  16.569   4.082  0.00  0.00    -0.271 OA
HETATM   48  H   UNK N   1      30.763  16.134   6.459  0.00  0.00     0.163 HD
BRANCH  46  49
HETATM   49  C   UNK N   1      30.382  16.653   3.961  0.00  0.00     0.177 C 
BRANCH  49  50
HETATM   50  N   UNK N   1      29.358  16.615   4.962  0.00  0.00    -0.346 N 
HETATM   51  C   UNK N   1      28.539  17.689   5.024  0.00  0.00     0.241 C 
HETATM   52  O   UNK N   1      28.548  18.516   4.115  0.00  0.00    -0.271 OA
HETATM   53  H   UNK N   1      29.256  15.849   5.573  0.00  0.00     0.163 HD
BRANCH  51  54
HETATM   54  C   UNK N   1      27.632  17.912   6.175  0.00  0.00     0.177 C 
BRANCH  54  55
HETATM   55  N   UNK N   1      26.346  17.525   5.647  0.00  0.00    -0.346 N 
HETATM   56  C   UNK N   1      25.840  16.262   5.753  0.00  0.00     0.241 C 
HETATM   57  O   UNK N   1      26.569  15.282   5.760  0.00  0.00    -0.271 OA
HETATM   58  H   UNK N   1      25.805  18.208   5.187  0.00  0.00     0.163 HD
BRANCH  56  59
HETATM   59  C   UNK N   1      24.390  16.081   6.051  0.00  0.00     0.184 C 
HETATM   60  C   UNK N   1      23.535  17.069   5.242  0.00  0.00     0.115 C 
HETATM   61  S   UNK N   1      23.084  16.264   3.666  0.00  0.00    -0.112 SA
HETATM   62  C   UNK N   1      23.472  14.721   4.472  0.00  0.00     0.066 C 
HETATM   63  N   UNK N   1      24.070  14.788   5.592  0.00  0.00    -0.372 N 
ATOM     64  HN  UNK N   1      24.303  13.953   6.128  1.00  0.00     0.160 HD
BRANCH  62  65
HETATM   65  C   UNK N   1      23.418  13.413   3.778  0.00  0.00     0.135 C 
BRANCH  65  66
HETATM   66  N   UNK N   1      23.639  12.365   4.763  0.00  0.00    -0.420 N 
HETATM   67  H   UNK N   1      23.960  12.240   5.724  0.00  0.00     0.150 HD
HETATM   68  H   UNK N   1      23.394  11.461   4.362  0.00  0.00     0.150 HD
ENDBRANCH  65  66
BRANCH  65  69
HETATM   69  C   UNK N   1      24.575  13.463   2.764  0.00  0.00     0.010 C 
HETATM   70  C   UNK N   1      24.050  13.571   1.334  0.00  0.00     0.012 C 
BRANCH  69  71
HETATM   71  C   UNK N   1      25.573  12.332   2.883  0.00  0.00     0.002 C 
HETATM   72  C   UNK N   1      25.846  11.773   1.497  0.00  0.00     0.005 C 
ENDBRANCH  69  71
ENDBRANCH  65  69
ENDBRANCH  62  65
ENDBRANCH  56  59
ENDBRANCH  54  55
BRANCH  54  73
HETATM   73  C   UNK N   1      27.689  19.408   6.517  0.00  0.00     0.038 C 
BRANCH  73  74
HETATM   74  C   UNK N   1      26.451  20.203   6.196  0.00  0.00    -0.020 C 
HETATM   75  C   UNK N   1      26.287  21.227   7.301  0.00  0.00     0.009 C 
HETATM   76  C   UNK N   1      26.676  20.943   4.896  0.00  0.00     0.009 C 
ENDBRANCH  73  74
ENDBRANCH  54  73
ENDBRANCH  51  54
ENDBRANCH  49  50
BRANCH  49  77
HETATM   77  C   UNK N   1      30.092  15.744   2.774  0.00  0.00     0.045 C 
BRANCH  77  78
HETATM   78  C   UNK N   1      28.853  14.867   3.018  0.00  0.00     0.112 C 
BRANCH  78  79
HETATM   79  C   UNK N   1      27.629  15.326   2.270  0.00  0.00     0.139 C 
HETATM   80  O   UNK N   1      27.372  14.851   1.177  0.00  0.00    -0.650 OA
BRANCH  79  81
HETATM   81  O   UNK N   1      26.825  16.272   2.793  0.00  0.00    -0.776 OA
HETATM   82  H   UNK N   1      25.943  16.125   3.072  0.00  0.00     0.167 HD
ENDBRANCH  79  81
ENDBRANCH  78  79
ENDBRANCH  77  78
ENDBRANCH  49  77
ENDBRANCH  46  49
ENDBRANCH  44  45
BRANCH  44  83
HETATM   83  C   UNK N   1      32.461  16.557   8.326  0.00  0.00     0.013 C 
HETATM   84  C   UNK N   1      33.720  17.087   8.986  0.00  0.00     0.012 C 
BRANCH  83  85
HETATM   85  C   UNK N   1      31.424  17.674   8.321  0.00  0.00     0.002 C 
HETATM   86  C   UNK N   1      30.175  17.233   9.061  0.00  0.00     0.005 C 
ENDBRANCH  83  85
ENDBRANCH  44  83
ENDBRANCH  41  44
ENDBRANCH   1  40
BRANCH   4  87
HETATM   87  C   UNK N   1      34.437  13.144   0.946  0.00  0.00     0.036 C 
BRANCH  87  88
HETATM   88  C   UNK N   1      34.020  12.340  -0.269  0.00  0.00     0.021 C 
BRANCH  88  89
HETATM   89  C   UNK N   1      34.657  12.890  -1.528  0.00  0.00     0.111 C 
BRANCH  89  90
HETATM   90  N   UNK N   1      35.230  14.196  -1.257  0.00  0.00    -0.430 N 
HETATM   91  H   UNK N   1      35.922  14.723  -1.791  0.00  0.00     0.149 HD
HETATM   92  H   UNK N   1      34.892  14.653  -0.410  0.00  0.00     0.149 HD
ENDBRANCH  89  90
ENDBRANCH  88  89
ENDBRANCH  87  88
ENDBRANCH   4  87
BRANCH  10  93
HETATM   93  C   UNK N   1      31.065  11.280   1.788  0.00  0.00     0.013 C 
HETATM   94  C   UNK N   1      29.596  11.587   2.041  0.00  0.00     0.012 C 
BRANCH  93  95
HETATM   95  C   UNK N   1      31.203  10.417   0.543  0.00  0.00     0.002 C 
HETATM   96  C   UNK N   1      29.879  10.349  -0.197  0.00  0.00     0.005 C 
ENDBRANCH  93  95
ENDBRANCH  10  93
BRANCH  27  97
HETATM   97  C   UNK N   1      37.330  11.596  11.326  0.00  0.00     0.137 C 
BRANCH  97  98
HETATM   98  C   UNK N   1      37.363  11.105  12.740  0.00  0.00     0.217 C 
HETATM   99  O   UNK N   1      36.865  10.025  13.012  0.00  0.00    -0.274 OA
HETATM  100  N   UNK N   1      37.927  11.847  13.712  0.00  0.00    -0.370 N 
HETATM  101  H   UNK N   1      38.431  12.694  13.724  0.00  0.00     0.159 HD
HETATM  102  H   UNK N   1      37.811  11.458  14.608  0.00  0.00     0.159 HD
ENDBRANCH  97  98
ENDBRANCH  27  97
BRANCH  14 103
HETATM  103  C   UNK N   1      29.826   8.427   5.806  0.00  0.00     0.073 C 
BRANCH 103 104
HETATM  104  C   UNK N   1      28.965   8.385   4.586  0.00  0.00    -0.056 A 
HETATM  105  C   UNK N   1      27.673   8.915   4.632  0.00  0.00     0.007 A 
HETATM  106  C   UNK N   1      26.863   8.881   3.493  0.00  0.00     0.001 A 
HETATM  107  C   UNK N   1      27.341   8.307   2.309  0.00  0.00     0.000 A 
HETATM  108  C   UNK N   1      28.632   7.778   2.260  0.00  0.00     0.001 A 
HETATM  109  C   UNK N   1      29.445   7.825   3.392  0.00  0.00     0.007 A 
ENDBRANCH 103 104
ENDBRANCH  14 103
BRANCH  22 110
HETATM  110  C   UNK N   1      34.695  11.450   8.478  0.00  0.00     0.144 C 
BRANCH 110 111
HETATM  111  C   UNK N   1      33.439  12.261   8.327  0.00  0.00     0.141 C 
HETATM  112  O   UNK N   1      33.144  13.106   9.156  0.00  0.00    -0.650 OA
BRANCH 111 113
HETATM  113  O   UNK N   1      32.675  12.106   7.232  0.00  0.00    -0.776 OA
HETATM  114  H   UNK N   1      31.756  11.948   7.319  0.00  0.00     0.167 HD
ENDBRANCH 111 113
ENDBRANCH 110 111
ENDBRANCH  22 110
BRANCH  18 115
HETATM  115  C   UNK N   1      32.446   6.653   8.750  0.00  0.00     0.093 C 
BRANCH 115 116
HETATM  116  C   UNK N   1      31.247   6.359   9.587  0.00  0.00     0.028 A 
HETATM  117  N   UNK N   1      30.052   6.933   9.392  0.00  0.00    -0.354 N 
HETATM  118  C   UNK N   1      29.260   6.421  10.357  0.00  0.00     0.180 A 
ATOM    119  HN  UNK N   1      29.797   7.609   8.673  1.00  0.00     0.166 HD
HETATM  120  N   UNK N   1      29.927   5.552  11.145  0.00  0.00    -0.360 N 
HETATM  121  C   UNK N   1      31.181   5.508  10.666  0.00  0.00     0.114 A 
HETATM  122  H   UNK N   1      29.568   5.054  11.915  0.00  0.00     0.166 HD
ENDBRANCH 115 116
ENDBRANCH  18 115
TORSDOF 35
ENDMDL
MODEL 3
REMARK VINA RESULT:      -6.8      3.648      8.700
REMARK WARNING: 32 MAX_TORS EXCEEDED!!!
REMARK  35 active torsions:
REMARK  status: ('A' for Active; 'I' for Inactive)
REMARK    1  A    between atoms: C_3  and  C_9 
REMARK    2  A    between atoms: C_6  and  C_7 
REMARK    3  A    between atoms: C_7  and  N_8 
REMARK    4  A    between atoms: C_7  and  C_26 
REMARK       I    between atoms: C_9  and  N_10 
REMARK    5  A    between atoms: N_10  and  C_11 
REMARK    6  A    between atoms: C_11  and  C_12 
REMARK    7  A    between atoms: C_11  and  C_36 
REMARK       I    between atoms: C_12  and  N_13 
REMARK    8  A    between atoms: N_13  and  C_14 
REMARK    9  A    between atoms: C_14  and  C_15 
REMARK   10  A    between atoms: C_14  and  C_40 
REMARK       I    between atoms: C_15  and  N_16 
REMARK   11  A    between atoms: C_17  and  N_16 
REMARK   12  A    between atoms: C_17  and  C_18 
REMARK   13  A    between atoms: C_17  and  C_45 
REMARK       I    between atoms: C_18  and  N_19 
REMARK   14  A    between atoms: N_19  and  C_20 
REMARK   15  A    between atoms: C_23  and  C_50 
REMARK   16  A    between atoms: C_26  and  C_28 
REMARK   17  A    between atoms: C_36  and  C_37 
REMARK   18  A    between atoms: C_40  and  C_41 
REMARK   19  A    between atoms: C_41  and  C_42 
REMARK   20  A    between atoms: C_42  and  O_43 
REMARK   21  A    between atoms: C_45  and  C_46 
REMARK   22  A    between atoms: C_50  and  C_68 
REMARK   23  A    between atoms: C_51  and  C_71 
REMARK   24  A    between atoms: C_55  and  C_75 
REMARK   25  A    between atoms: C_59  and  C_82 
REMARK   26  A    between atoms: C_63  and  C_98 
REMARK   27  A    between atoms: C_68  and  C_69 
REMARK   28  A    between atoms: C_69  and  N_70 
REMARK   29  A    between atoms: C_71  and  C_73 
REMARK   30  A    between atoms: C_75  and  C_76 
REMARK   31  A    between atoms: C_82  and  C_83 
REMARK   32  A    between atoms: C_89  and  C_93 
REMARK   33  A    between atoms: C_93  and  C_94 
REMARK       I    between atoms: C_94  and  N_96 
REMARK   34  A    between atoms: C_98  and  C_100 
REMARK   35  A    between atoms: C_100  and  O_102 
ROOT
HETATM    1  C   UNK N   1      25.150  11.456   2.344  0.00  0.00     0.176 C 
HETATM    2  C   UNK N   1      26.368  11.033   1.608  0.00  0.00     0.241 C 
HETATM    3  N   UNK N   1      27.507  10.946   2.331  0.00  0.00    -0.346 N 
HETATM    4  C   UNK N   1      28.839  11.097   1.797  0.00  0.00     0.176 C 
HETATM    5  C   UNK N   1      29.070  12.528   1.393  0.00  0.00     0.241 C 
HETATM    6  N   UNK N   1      29.747  13.388   2.194  0.00  0.00    -0.346 N 
HETATM    7  O   UNK N   1      26.389  11.016   0.386  0.00  0.00    -0.271 OA
HETATM    8  O   UNK N   1      28.629  12.933   0.328  0.00  0.00    -0.271 OA
HETATM    9  C   UNK N   1      24.795  12.918   2.125  0.00  0.00     0.035 C 
HETATM   10  C   UNK N   1      30.161  13.131   3.563  0.00  0.00     0.180 C 
HETATM   11  C   UNK N   1      28.978  13.258   4.500  0.00  0.00     0.241 C 
HETATM   12  O   UNK N   1      28.320  12.267   4.781  0.00  0.00    -0.271 OA
HETATM   13  N   UNK N   1      28.626  14.455   5.033  0.00  0.00    -0.346 N 
HETATM   14  C   UNK N   1      29.359  15.677   4.796  0.00  0.00     0.180 C 
HETATM   15  C   UNK N   1      29.134  16.445   3.516  0.00  0.00     0.241 C 
HETATM   16  N   UNK N   1      28.353  17.550   3.463  0.00  0.00    -0.346 N 
HETATM   17  O   UNK N   1      29.684  16.067   2.495  0.00  0.00    -0.271 OA
HETATM   18  C   UNK N   1      27.684  18.080   4.623  0.00  0.00     0.182 C 
HETATM   19  C   UNK N   1      26.300  17.542   4.687  0.00  0.00     0.241 C 
HETATM   20  N   UNK N   1      25.445  17.772   3.668  0.00  0.00    -0.346 N 
HETATM   21  O   UNK N   1      25.978  16.850   5.647  0.00  0.00    -0.271 OA
HETATM   22  C   UNK N   1      24.168  17.107   3.478  0.00  0.00     0.186 C 
HETATM   23  C   UNK N   1      23.113  17.383   4.548  0.00  0.00     0.241 C 
HETATM   24  N   UNK N   1      21.829  16.944   4.335  0.00  0.00    -0.346 N 
HETATM   25  O   UNK N   1      23.389  17.969   5.547  0.00  0.00    -0.271 OA
HETATM   26  C   UNK N   1      23.826  13.243   1.013  0.00  0.00     0.004 C 
HETATM   27  C   UNK N   1      21.430  16.295   3.118  0.00  0.00     0.185 C 
HETATM   28  C   UNK N   1      20.402  15.219   3.315  0.00  0.00     0.240 C 
HETATM   29  N   UNK N   1      20.716  13.917   3.126  0.00  0.00    -0.359 N 
HETATM   30  O   UNK N   1      19.259  15.519   3.634  0.00  0.00    -0.271 OA
HETATM   31  C   UNK N   1      22.621  14.039   1.531  0.00  0.00     0.020 C 
HETATM   32  C   UNK N   1      22.059  13.458   2.835  0.00  0.00     0.122 C 
HETATM   33  H   UNK N   1      27.422  10.765   3.294  0.00  0.00     0.163 HD
HETATM   34  H   UNK N   1      29.978  14.266   1.813  0.00  0.00     0.163 HD
HETATM   35  H   UNK N   1      27.829  14.493   5.612  0.00  0.00     0.163 HD
HETATM   36  H   UNK N   1      28.240  18.009   2.600  0.00  0.00     0.163 HD
HETATM   37  H   UNK N   1      25.709  18.446   3.000  0.00  0.00     0.163 HD
HETATM   38  H   UNK N   1      21.157  17.082   5.042  0.00  0.00     0.163 HD
HETATM   39  H   UNK N   1      19.997  13.248   3.188  0.00  0.00     0.162 HD
ENDROOT
BRANCH   1  40
HETATM   40  N   UNK N   1      24.054  10.524   2.538  0.00  0.00    -0.346 N 
HETATM   41  C   UNK N   1      23.866   9.722   3.613  0.00  0.00     0.241 C 
HETATM   42  O   UNK N   1      22.941   8.924   3.600  0.00  0.00    -0.271 OA
HETATM   43  H   UNK N   1      23.384  10.470   1.819  0.00  0.00     0.163 HD
BRANCH  41  44
HETATM   44  C   UNK N   1      24.775   9.793   4.817  0.00  0.00     0.180 C 
BRANCH  44  45
HETATM   45  N   UNK N   1      25.511   8.566   5.116  0.00  0.00    -0.346 N 
HETATM   46  C   UNK N   1      26.849   8.348   4.983  0.00  0.00     0.241 C 
HETATM   47  O   UNK N   1      27.588   9.197   4.514  0.00  0.00    -0.271 OA
HETATM   48  H   UNK N   1      24.977   7.809   5.452  0.00  0.00     0.163 HD
BRANCH  46  49
HETATM   49  C   UNK N   1      27.415   6.991   5.246  0.00  0.00     0.177 C 
BRANCH  49  50
HETATM   50  N   UNK N   1      28.836   7.171   5.285  0.00  0.00    -0.346 N 
HETATM   51  C   UNK N   1      29.459   6.780   6.419  0.00  0.00     0.241 C 
HETATM   52  O   UNK N   1      28.852   6.103   7.247  0.00  0.00    -0.271 OA
HETATM   53  H   UNK N   1      29.332   7.557   4.527  0.00  0.00     0.163 HD
BRANCH  51  54
HETATM   54  C   UNK N   1      30.862   7.163   6.709  0.00  0.00     0.177 C 
BRANCH  54  55
HETATM   55  N   UNK N   1      30.775   7.702   8.045  0.00  0.00    -0.346 N 
HETATM   56  C   UNK N   1      31.837   7.764   8.899  0.00  0.00     0.241 C 
HETATM   57  O   UNK N   1      32.724   6.925   8.874  0.00  0.00    -0.271 OA
HETATM   58  H   UNK N   1      29.905   8.044   8.355  0.00  0.00     0.163 HD
BRANCH  56  59
HETATM   59  C   UNK N   1      32.017   8.974   9.753  0.00  0.00     0.184 C 
HETATM   60  C   UNK N   1      33.285   8.857  10.612  0.00  0.00     0.115 C 
HETATM   61  S   UNK N   1      34.671   9.589   9.672  0.00  0.00    -0.112 SA
HETATM   62  C   UNK N   1      33.427  10.421   8.703  0.00  0.00     0.066 C 
HETATM   63  N   UNK N   1      32.223  10.041   8.857  0.00  0.00    -0.372 N 
ATOM     64  HN  UNK N   1      31.452  10.483   8.359  1.00  0.00     0.160 HD
BRANCH  62  65
HETATM   65  C   UNK N   1      33.752  11.282   7.542  0.00  0.00     0.135 C 
BRANCH  65  66
HETATM   66  N   UNK N   1      34.896  10.705   6.853  0.00  0.00    -0.420 N 
HETATM   67  H   UNK N   1      35.428  10.801   5.988  0.00  0.00     0.150 HD
HETATM   68  H   UNK N   1      35.297   9.959   7.421  0.00  0.00     0.150 HD
ENDBRANCH  65  66
BRANCH  65  69
HETATM   69  C   UNK N   1      34.116  12.645   8.158  0.00  0.00     0.010 C 
HETATM   70  C   UNK N   1      32.938  13.614   8.085  0.00  0.00     0.012 C 
BRANCH  69  71
HETATM   71  C   UNK N   1      35.368  13.282   7.597  0.00  0.00     0.002 C 
HETATM   72  C   UNK N   1      35.748  14.466   8.469  0.00  0.00     0.005 C 
ENDBRANCH  69  71
ENDBRANCH  65  69
ENDBRANCH  62  65
ENDBRANCH  56  59
ENDBRANCH  54  55
BRANCH  54  73
HETATM   73  C   UNK N   1      31.264   8.231   5.681  0.00  0.00     0.038 C 
BRANCH  73  74
HETATM   74  C   UNK N   1      32.600   8.031   5.015  0.00  0.00    -0.020 C 
HETATM   75  C   UNK N   1      33.057   6.627   5.357  0.00  0.00     0.009 C 
HETATM   76  C   UNK N   1      32.408   8.114   3.516  0.00  0.00     0.009 C 
ENDBRANCH  73  74
ENDBRANCH  54  73
ENDBRANCH  51  54
ENDBRANCH  49  50
BRANCH  49  77
HETATM   77  C   UNK N   1      26.978   5.874   4.307  0.00  0.00     0.045 C 
BRANCH  77  78
HETATM   78  C   UNK N   1      27.601   6.030   2.910  0.00  0.00     0.112 C 
BRANCH  78  79
HETATM   79  C   UNK N   1      26.615   6.444   1.850  0.00  0.00     0.139 C 
HETATM   80  O   UNK N   1      26.011   7.498   1.959  0.00  0.00    -0.650 OA
BRANCH  79  81
HETATM   81  O   UNK N   1      26.380   5.649   0.789  0.00  0.00    -0.776 OA
HETATM   82  H   UNK N   1      26.137   5.955  -0.062  0.00  0.00     0.167 HD
ENDBRANCH  79  81
ENDBRANCH  78  79
ENDBRANCH  77  78
ENDBRANCH  49  77
ENDBRANCH  46  49
ENDBRANCH  44  45
BRANCH  44  83
HETATM   83  C   UNK N   1      24.051  10.293   6.079  0.00  0.00     0.013 C 
HETATM   84  C   UNK N   1      24.060   9.202   7.132  0.00  0.00     0.012 C 
BRANCH  83  85
HETATM   85  C   UNK N   1      24.682  11.541   6.686  0.00  0.00     0.002 C 
HETATM   86  C   UNK N   1      24.053  11.844   8.033  0.00  0.00     0.005 C 
ENDBRANCH  83  85
ENDBRANCH  44  83
ENDBRANCH  41  44
ENDBRANCH   1  40
BRANCH   4  87
HETATM   87  C   UNK N   1      29.197  10.132   0.674  0.00  0.00     0.036 C 
BRANCH  87  88
HETATM   88  C   UNK N   1      29.471   8.744   1.217  0.00  0.00     0.021 C 
BRANCH  88  89
HETATM   89  C   UNK N   1      29.701   7.758   0.091  0.00  0.00     0.111 C 
BRANCH  89  90
HETATM   90  N   UNK N   1      29.828   8.470  -1.167  0.00  0.00    -0.430 N 
HETATM   91  H   UNK N   1      29.099   8.804  -1.799  0.00  0.00     0.149 HD
HETATM   92  H   UNK N   1      30.784   8.666  -1.464  0.00  0.00     0.149 HD
ENDBRANCH  89  90
ENDBRANCH  88  89
ENDBRANCH  87  88
ENDBRANCH   4  87
BRANCH  10  93
HETATM   93  C   UNK N   1      30.979  11.844   3.747  0.00  0.00     0.013 C 
HETATM   94  C   UNK N   1      31.450  11.709   5.188  0.00  0.00     0.012 C 
BRANCH  93  95
HETATM   95  C   UNK N   1      32.177  11.810   2.810  0.00  0.00     0.002 C 
HETATM   96  C   UNK N   1      33.466  11.758   3.609  0.00  0.00     0.005 C 
ENDBRANCH  93  95
ENDBRANCH  10  93
BRANCH  27  97
HETATM   97  C   UNK N   1      21.097  17.284   1.996  0.00  0.00     0.137 C 
BRANCH  97  98
HETATM   98  C   UNK N   1      20.252  18.435   2.445  0.00  0.00     0.217 C 
HETATM   99  O   UNK N   1      20.788  19.425   2.917  0.00  0.00    -0.274 OA
HETATM  100  N   UNK N   1      18.910  18.384   2.344  0.00  0.00    -0.370 N 
HETATM  101  H   UNK N   1      18.276  17.739   1.953  0.00  0.00     0.159 HD
HETATM  102  H   UNK N   1      18.465  19.162   2.749  0.00  0.00     0.159 HD
ENDBRANCH  97  98
ENDBRANCH  27  97
BRANCH  14 103
HETATM  103  C   UNK N   1      30.022  16.288   6.017  0.00  0.00     0.073 C 
BRANCH 103 104
HETATM  104  C   UNK N   1      31.506  16.275   5.847  0.00  0.00    -0.056 A 
HETATM  105  C   UNK N   1      32.093  15.377   4.952  0.00  0.00     0.007 A 
HETATM  106  C   UNK N   1      33.481  15.363   4.786  0.00  0.00     0.001 A 
HETATM  107  C   UNK N   1      34.285  16.240   5.524  0.00  0.00     0.000 A 
HETATM  108  C   UNK N   1      33.701  17.140   6.418  0.00  0.00     0.001 A 
HETATM  109  C   UNK N   1      32.316  17.164   6.572  0.00  0.00     0.007 A 
ENDBRANCH 103 104
ENDBRANCH  14 103
BRANCH  22 110
HETATM  110  C   UNK N   1      24.399  15.634   3.199  0.00  0.00     0.144 C 
BRANCH 110 111
HETATM  111  C   UNK N   1      24.629  14.762   4.401  0.00  0.00     0.141 C 
HETATM  112  O   UNK N   1      23.706  14.486   5.150  0.00  0.00    -0.650 OA
BRANCH 111 113
HETATM  113  O   UNK N   1      25.841  14.221   4.609  0.00  0.00    -0.776 OA
HETATM  114  H   UNK N   1      25.921  13.407   5.064  0.00  0.00     0.167 HD
ENDBRANCH 111 113
ENDBRANCH 110 111
ENDBRANCH  22 110
BRANCH  18 115
HETATM  115  C   UNK N   1      27.657  19.596   4.555  0.00  0.00     0.093 C 
BRANCH 115 116
HETATM  116  C   UNK N   1      27.157  20.172   5.837  0.00  0.00     0.028 A 
HETATM  117  N   UNK N   1      26.348  21.238   5.901  0.00  0.00    -0.354 N 
HETATM  118  C   UNK N   1      26.152  21.445   7.219  0.00  0.00     0.180 A 
ATOM    119  HN  UNK N   1      25.965  21.775   5.124  1.00  0.00     0.166 HD
HETATM  120  N   UNK N   1      26.816  20.545   7.974  0.00  0.00    -0.360 N 
HETATM  121  C   UNK N   1      27.453  19.738   7.109  0.00  0.00     0.114 A 
HETATM  122  H   UNK N   1      26.832  20.491   8.957  0.00  0.00     0.166 HD
ENDBRANCH 115 116
ENDBRANCH  18 115
TORSDOF 35
ENDMDL
MODEL 4
REMARK VINA RESULT:      -6.7      3.286     11.500
REMARK WARNING: 32 MAX_TORS EXCEEDED!!!
REMARK  35 active torsions:
REMARK  status: ('A' for Active; 'I' for Inactive)
REMARK    1  A    between atoms: C_3  and  C_9 
REMARK    2  A    between atoms: C_6  and  C_7 
REMARK    3  A    between atoms: C_7  and  N_8 
REMARK    4  A    between atoms: C_7  and  C_26 
REMARK       I    between atoms: C_9  and  N_10 
REMARK    5  A    between atoms: N_10  and  C_11 
REMARK    6  A    between atoms: C_11  and  C_12 
REMARK    7  A    between atoms: C_11  and  C_36 
REMARK       I    between atoms: C_12  and  N_13 
REMARK    8  A    between atoms: N_13  and  C_14 
REMARK    9  A    between atoms: C_14  and  C_15 
REMARK   10  A    between atoms: C_14  and  C_40 
REMARK       I    between atoms: C_15  and  N_16 
REMARK   11  A    between atoms: C_17  and  N_16 
REMARK   12  A    between atoms: C_17  and  C_18 
REMARK   13  A    between atoms: C_17  and  C_45 
REMARK       I    between atoms: C_18  and  N_19 
REMARK   14  A    between atoms: N_19  and  C_20 
REMARK   15  A    between atoms: C_23  and  C_50 
REMARK   16  A    between atoms: C_26  and  C_28 
REMARK   17  A    between atoms: C_36  and  C_37 
REMARK   18  A    between atoms: C_40  and  C_41 
REMARK   19  A    between atoms: C_41  and  C_42 
REMARK   20  A    between atoms: C_42  and  O_43 
REMARK   21  A    between atoms: C_45  and  C_46 
REMARK   22  A    between atoms: C_50  and  C_68 
REMARK   23  A    between atoms: C_51  and  C_71 
REMARK   24  A    between atoms: C_55  and  C_75 
REMARK   25  A    between atoms: C_59  and  C_82 
REMARK   26  A    between atoms: C_63  and  C_98 
REMARK   27  A    between atoms: C_68  and  C_69 
REMARK   28  A    between atoms: C_69  and  N_70 
REMARK   29  A    between atoms: C_71  and  C_73 
REMARK   30  A    between atoms: C_75  and  C_76 
REMARK   31  A    between atoms: C_82  and  C_83 
REMARK   32  A    between atoms: C_89  and  C_93 
REMARK   33  A    between atoms: C_93  and  C_94 
REMARK       I    between atoms: C_94  and  N_96 
REMARK   34  A    between atoms: C_98  and  C_100 
REMARK   35  A    between atoms: C_100  and  O_102 
ROOT
HETATM    1  C   UNK N   1      34.807  14.328   5.656  0.00  0.00     0.176 C 
HETATM    2  C   UNK N   1      34.946  13.973   4.221  0.00  0.00     0.241 C 
HETATM    3  N   UNK N   1      33.818  13.586   3.585  0.00  0.00    -0.346 N 
HETATM    4  C   UNK N   1      33.773  12.714   2.436  0.00  0.00     0.176 C 
HETATM    5  C   UNK N   1      34.162  11.318   2.836  0.00  0.00     0.241 C 
HETATM    6  N   UNK N   1      33.228  10.363   3.072  0.00  0.00    -0.346 N 
HETATM    7  O   UNK N   1      36.048  13.798   3.722  0.00  0.00    -0.271 OA
HETATM    8  O   UNK N   1      35.343  11.035   2.968  0.00  0.00    -0.271 OA
HETATM    9  C   UNK N   1      35.269  13.223   6.593  0.00  0.00     0.035 C 
HETATM   10  C   UNK N   1      31.792  10.578   3.154  0.00  0.00     0.180 C 
HETATM   11  C   UNK N   1      31.432  11.197   4.488  0.00  0.00     0.241 C 
HETATM   12  O   UNK N   1      31.365  12.413   4.593  0.00  0.00    -0.271 OA
HETATM   13  N   UNK N   1      31.188  10.428   5.580  0.00  0.00    -0.346 N 
HETATM   14  C   UNK N   1      31.204   8.984   5.553  0.00  0.00     0.180 C 
HETATM   15  C   UNK N   1      32.522   8.252   5.623  0.00  0.00     0.241 C 
HETATM   16  N   UNK N   1      32.978   7.689   6.768  0.00  0.00    -0.346 N 
HETATM   17  O   UNK N   1      33.196   8.150   4.612  0.00  0.00    -0.271 OA
HETATM   18  C   UNK N   1      32.238   7.740   8.002  0.00  0.00     0.182 C 
HETATM   19  C   UNK N   1      32.699   8.899   8.810  0.00  0.00     0.241 C 
HETATM   20  N   UNK N   1      33.993   8.979   9.187  0.00  0.00    -0.346 N 
HETATM   21  O   UNK N   1      31.901   9.793   9.074  0.00  0.00    -0.271 OA
HETATM   22  C   UNK N   1      34.633  10.156   9.749  0.00  0.00     0.186 C 
HETATM   23  C   UNK N   1      34.111  10.604  11.113  0.00  0.00     0.241 C 
HETATM   24  N   UNK N   1      34.792  11.587  11.789  0.00  0.00    -0.346 N 
HETATM   25  O   UNK N   1      33.137  10.113  11.591  0.00  0.00    -0.271 OA
HETATM   26  C   UNK N   1      36.702  13.265   7.069  0.00  0.00     0.004 C 
HETATM   27  C   UNK N   1      36.009  12.161  11.287  0.00  0.00     0.185 C 
HETATM   28  C   UNK N   1      36.162  13.622  11.599  0.00  0.00     0.240 C 
HETATM   29  N   UNK N   1      36.101  14.550  10.616  0.00  0.00    -0.359 N 
HETATM   30  O   UNK N   1      36.362  13.982  12.751  0.00  0.00    -0.271 OA
HETATM   31  C   UNK N   1      36.785  13.262   8.602  0.00  0.00     0.020 C 
HETATM   32  C   UNK N   1      35.781  14.230   9.239  0.00  0.00     0.122 C 
HETATM   33  H   UNK N   1      32.961  13.925   3.931  0.00  0.00     0.163 HD
HETATM   34  H   UNK N   1      33.551   9.442   3.198  0.00  0.00     0.163 HD
HETATM   35  H   UNK N   1      30.989  10.878   6.434  0.00  0.00     0.163 HD
HETATM   36  H   UNK N   1      33.846   7.227   6.755  0.00  0.00     0.163 HD
HETATM   37  H   UNK N   1      34.548   8.174   9.071  0.00  0.00     0.163 HD
HETATM   38  H   UNK N   1      34.434  11.909  12.648  0.00  0.00     0.163 HD
HETATM   39  H   UNK N   1      36.283  15.489  10.847  0.00  0.00     0.162 HD
ENDROOT
BRANCH   1  40
HETATM   40  N   UNK N   1      35.002  15.699   6.091  0.00  0.00    -0.346 N 
HETATM   41  C   UNK N   1      34.043  16.534   6.558  0.00  0.00     0.241 C 
HETATM   42  O   UNK N   1      34.340  17.692   6.808  0.00  0.00    -0.271 OA
HETATM   43  H   UNK N   1      35.917  16.055   6.042  0.00  0.00     0.163 HD
BRANCH  41  44
HETATM   44  C   UNK N   1      32.623  16.063   6.768  0.00  0.00     0.180 C 
BRANCH  44  45
HETATM   45  N   UNK N   1      31.641  16.607   5.833  0.00  0.00    -0.346 N 
HETATM   46  C   UNK N   1      30.429  16.079   5.503  0.00  0.00     0.241 C 
HETATM   47  O   UNK N   1      30.063  15.003   5.946  0.00  0.00    -0.271 OA
HETATM   48  H   UNK N   1      31.884  17.451   5.388  0.00  0.00     0.163 HD
BRANCH  46  49
HETATM   49  C   UNK N   1      29.594  16.725   4.446  0.00  0.00     0.177 C 
BRANCH  49  50
HETATM   50  N   UNK N   1      28.281  16.175   4.608  0.00  0.00    -0.346 N 
HETATM   51  C   UNK N   1      27.278  17.061   4.798  0.00  0.00     0.241 C 
HETATM   52  O   UNK N   1      27.478  18.259   4.605  0.00  0.00    -0.271 OA
HETATM   53  H   UNK N   1      28.118  15.204   4.580  0.00  0.00     0.163 HD
BRANCH  51  54
HETATM   54  C   UNK N   1      25.936  16.632   5.257  0.00  0.00     0.177 C 
BRANCH  54  55
HETATM   55  N   UNK N   1      26.224  15.429   6.001  0.00  0.00    -0.346 N 
HETATM   56  C   UNK N   1      25.257  14.591   6.476  0.00  0.00     0.241 C 
HETATM   57  O   UNK N   1      24.164  15.011   6.822  0.00  0.00    -0.271 OA
HETATM   58  H   UNK N   1      27.166  15.201   6.174  0.00  0.00     0.163 HD
BRANCH  56  59
HETATM   59  C   UNK N   1      25.469  13.116   6.400  0.00  0.00     0.184 C 
HETATM   60  C   UNK N   1      24.129  12.375   6.274  0.00  0.00     0.115 C 
HETATM   61  S   UNK N   1      23.753  12.188   4.496  0.00  0.00    -0.112 SA
HETATM   62  C   UNK N   1      25.489  12.481   4.213  0.00  0.00     0.066 C 
HETATM   63  N   UNK N   1      26.174  12.898   5.200  0.00  0.00    -0.372 N 
ATOM     64  HN  UNK N   1      27.176  13.065   5.127  1.00  0.00     0.160 HD
BRANCH  62  65
HETATM   65  C   UNK N   1      26.083  12.563   2.858  0.00  0.00     0.135 C 
BRANCH  65  66
HETATM   66  N   UNK N   1      26.870  13.784   2.778  0.00  0.00    -0.420 N 
HETATM   67  H   UNK N   1      27.837  14.096   2.683  0.00  0.00     0.150 HD
HETATM   68  H   UNK N   1      26.254  14.594   2.839  0.00  0.00     0.150 HD
ENDBRANCH  65  66
BRANCH  65  69
HETATM   69  C   UNK N   1      24.874  12.629   1.907  0.00  0.00     0.010 C 
HETATM   70  C   UNK N   1      24.937  11.520   0.859  0.00  0.00     0.012 C 
BRANCH  69  71
HETATM   71  C   UNK N   1      24.656  13.974   1.250  0.00  0.00     0.002 C 
HETATM   72  C   UNK N   1      23.230  14.039   0.731  0.00  0.00     0.005 C 
ENDBRANCH  69  71
ENDBRANCH  65  69
ENDBRANCH  62  65
ENDBRANCH  56  59
ENDBRANCH  54  55
BRANCH  54  73
HETATM   73  C   UNK N   1      25.096  16.347   4.004  0.00  0.00     0.038 C 
BRANCH  73  74
HETATM   74  C   UNK N   1      23.846  17.172   3.848  0.00  0.00    -0.020 C 
HETATM   75  C   UNK N   1      22.680  16.203   3.818  0.00  0.00     0.009 C 
HETATM   76  C   UNK N   1      23.695  18.054   5.069  0.00  0.00     0.009 C 
ENDBRANCH  73  74
ENDBRANCH  54  73
ENDBRANCH  51  54
ENDBRANCH  49  50
BRANCH  49  77
HETATM   77  C   UNK N   1      30.110  16.635   3.017  0.00  0.00     0.045 C 
BRANCH  77  78
HETATM   78  C   UNK N   1      31.410  15.818   2.932  0.00  0.00     0.112 C 
BRANCH  78  79
HETATM   79  C   UNK N   1      32.652  16.663   2.834  0.00  0.00     0.139 C 
HETATM   80  O   UNK N   1      33.590  16.289   2.150  0.00  0.00    -0.650 OA
BRANCH  79  81
HETATM   81  O   UNK N   1      32.743  17.823   3.512  0.00  0.00    -0.776 OA
HETATM   82  H   UNK N   1      32.789  17.892   4.445  0.00  0.00     0.167 HD
ENDBRANCH  79  81
ENDBRANCH  78  79
ENDBRANCH  77  78
ENDBRANCH  49  77
ENDBRANCH  46  49
ENDBRANCH  44  45
BRANCH  44  83
HETATM   83  C   UNK N   1      32.140  16.266   8.215  0.00  0.00     0.013 C 
HETATM   84  C   UNK N   1      33.270  15.949   9.175  0.00  0.00     0.012 C 
BRANCH  83  85
HETATM   85  C   UNK N   1      31.660  17.684   8.501  0.00  0.00     0.002 C 
HETATM   86  C   UNK N   1      30.213  17.666   8.958  0.00  0.00     0.005 C 
ENDBRANCH  83  85
ENDBRANCH  44  83
ENDBRANCH  41  44
ENDBRANCH   1  40
BRANCH   4  87
HETATM   87  C   UNK N   1      34.571  13.195   1.230  0.00  0.00     0.036 C 
BRANCH  87  88
HETATM   88  C   UNK N   1      34.243  12.374  -0.001  0.00  0.00     0.021 C 
BRANCH  88  89
HETATM   89  C   UNK N   1      34.812  13.018  -1.248  0.00  0.00     0.111 C 
BRANCH  89  90
HETATM   90  N   UNK N   1      35.386  14.309  -0.916  0.00  0.00    -0.430 N 
HETATM   91  H   UNK N   1      35.071  15.003  -0.238  0.00  0.00     0.149 HD
HETATM   92  H   UNK N   1      36.227  14.559  -1.436  0.00  0.00     0.149 HD
ENDBRANCH  89  90
ENDBRANCH  88  89
ENDBRANCH  87  88
ENDBRANCH   4  87
BRANCH  10  93
HETATM   93  C   UNK N   1      31.188  11.297   1.939  0.00  0.00     0.013 C 
HETATM   94  C   UNK N   1      29.729  11.648   2.195  0.00  0.00     0.012 C 
BRANCH  93  95
HETATM   95  C   UNK N   1      31.300  10.448   0.681  0.00  0.00     0.002 C 
HETATM   96  C   UNK N   1      29.962  10.394  -0.035  0.00  0.00     0.005 C 
ENDBRANCH  93  95
ENDBRANCH  10  93
BRANCH  27  97
HETATM   97  C   UNK N   1      37.246  11.317  11.614  0.00  0.00     0.137 C 
BRANCH  97  98
HETATM   98  C   UNK N   1      37.322  10.899  13.050  0.00  0.00     0.217 C 
HETATM   99  O   UNK N   1      36.724   9.901  13.416  0.00  0.00    -0.274 OA
HETATM  100  N   UNK N   1      38.033  11.619  13.938  0.00  0.00    -0.370 N 
HETATM  101  H   UNK N   1      38.629  12.401  13.869  0.00  0.00     0.159 HD
HETATM  102  H   UNK N   1      37.936  11.293  14.862  0.00  0.00     0.159 HD
ENDBRANCH  97  98
ENDBRANCH  27  97
BRANCH  14 103
HETATM  103  C   UNK N   1      29.872   8.311   5.834  0.00  0.00     0.073 C 
BRANCH 103 104
HETATM  104  C   UNK N   1      29.013   8.362   4.614  0.00  0.00    -0.056 A 
HETATM  105  C   UNK N   1      29.435   7.730   3.441  0.00  0.00     0.007 A 
HETATM  106  C   UNK N   1      28.633   7.773   2.297  0.00  0.00     0.001 A 
HETATM  107  C   UNK N   1      27.413   8.458   2.321  0.00  0.00     0.000 A 
HETATM  108  C   UNK N   1      26.987   9.089   3.491  0.00  0.00     0.001 A 
HETATM  109  C   UNK N   1      27.779   9.033   4.637  0.00  0.00     0.007 A 
ENDBRANCH 103 104
ENDBRANCH  14 103
BRANCH  22 110
HETATM  110  C   UNK N   1      34.673  11.258   8.707  0.00  0.00     0.144 C 
BRANCH 110 111
HETATM  111  C   UNK N   1      33.391  12.011   8.493  0.00  0.00     0.141 C 
HETATM  112  O   UNK N   1      32.891  12.078   7.382  0.00  0.00    -0.650 OA
BRANCH 111 113
HETATM  113  O   UNK N   1      32.753  12.551   9.545  0.00  0.00    -0.776 OA
HETATM  114  H   UNK N   1      33.057  12.386  10.415  0.00  0.00     0.167 HD
ENDBRANCH 111 113
ENDBRANCH 110 111
ENDBRANCH  22 110
BRANCH  18 115
HETATM  115  C   UNK N   1      32.433   6.449   8.775  0.00  0.00     0.093 C 
BRANCH 115 116
HETATM  116  C   UNK N   1      31.225   6.135   9.590  0.00  0.00     0.028 A 
HETATM  117  N   UNK N   1      31.269   5.455  10.744  0.00  0.00    -0.354 N 
HETATM  118  C   UNK N   1      29.984   5.369  11.145  0.00  0.00     0.180 A 
ATOM    119  HN  UNK N   1      32.093   5.085  11.216  1.00  0.00     0.166 HD
HETATM  120  N   UNK N   1      29.145   5.968  10.275  0.00  0.00    -0.360 N 
HETATM  121  C   UNK N   1      29.920   6.454   9.291  0.00  0.00     0.114 A 
HETATM  122  H   UNK N   1      28.165   6.035  10.346  0.00  0.00     0.166 HD
ENDBRANCH 115 116
ENDBRANCH  18 115
TORSDOF 35
ENDMDL
MODEL 5
REMARK VINA RESULT:      -6.7      3.335     11.566
REMARK WARNING: 32 MAX_TORS EXCEEDED!!!
REMARK  35 active torsions:
REMARK  status: ('A' for Active; 'I' for Inactive)
REMARK    1  A    between atoms: C_3  and  C_9 
REMARK    2  A    between atoms: C_6  and  C_7 
REMARK    3  A    between atoms: C_7  and  N_8 
REMARK    4  A    between atoms: C_7  and  C_26 
REMARK       I    between atoms: C_9  and  N_10 
REMARK    5  A    between atoms: N_10  and  C_11 
REMARK    6  A    between atoms: C_11  and  C_12 
REMARK    7  A    between atoms: C_11  and  C_36 
REMARK       I    between atoms: C_12  and  N_13 
REMARK    8  A    between atoms: N_13  and  C_14 
REMARK    9  A    between atoms: C_14  and  C_15 
REMARK   10  A    between atoms: C_14  and  C_40 
REMARK       I    between atoms: C_15  and  N_16 
REMARK   11  A    between atoms: C_17  and  N_16 
REMARK   12  A    between atoms: C_17  and  C_18 
REMARK   13  A    between atoms: C_17  and  C_45 
REMARK       I    between atoms: C_18  and  N_19 
REMARK   14  A    between atoms: N_19  and  C_20 
REMARK   15  A    between atoms: C_23  and  C_50 
REMARK   16  A    between atoms: C_26  and  C_28 
REMARK   17  A    between atoms: C_36  and  C_37 
REMARK   18  A    between atoms: C_40  and  C_41 
REMARK   19  A    between atoms: C_41  and  C_42 
REMARK   20  A    between atoms: C_42  and  O_43 
REMARK   21  A    between atoms: C_45  and  C_46 
REMARK   22  A    between atoms: C_50  and  C_68 
REMARK   23  A    between atoms: C_51  and  C_71 
REMARK   24  A    between atoms: C_55  and  C_75 
REMARK   25  A    between atoms: C_59  and  C_82 
REMARK   26  A    between atoms: C_63  and  C_98 
REMARK   27  A    between atoms: C_68  and  C_69 
REMARK   28  A    between atoms: C_69  and  N_70 
REMARK   29  A    between atoms: C_71  and  C_73 
REMARK   30  A    between atoms: C_75  and  C_76 
REMARK   31  A    between atoms: C_82  and  C_83 
REMARK   32  A    between atoms: C_89  and  C_93 
REMARK   33  A    between atoms: C_93  and  C_94 
REMARK       I    between atoms: C_94  and  N_96 
REMARK   34  A    between atoms: C_98  and  C_100 
REMARK   35  A    between atoms: C_100  and  O_102 
ROOT
HETATM    1  C   UNK N   1      34.386  14.360   5.180  0.00  0.00     0.176 C 
HETATM    2  C   UNK N   1      34.533  13.926   3.768  0.00  0.00     0.241 C 
HETATM    3  N   UNK N   1      33.439  13.381   3.190  0.00  0.00    -0.346 N 
HETATM    4  C   UNK N   1      33.464  12.434   2.102  0.00  0.00     0.176 C 
HETATM    5  C   UNK N   1      34.008  11.116   2.581  0.00  0.00     0.241 C 
HETATM    6  N   UNK N   1      33.185  10.087   2.903  0.00  0.00    -0.346 N 
HETATM    7  O   UNK N   1      35.636  13.834   3.252  0.00  0.00    -0.271 OA
HETATM    8  O   UNK N   1      35.214  10.968   2.699  0.00  0.00    -0.271 OA
HETATM    9  C   UNK N   1      34.981  13.376   6.175  0.00  0.00     0.035 C 
HETATM   10  C   UNK N   1      31.737  10.155   3.011  0.00  0.00     0.180 C 
HETATM   11  C   UNK N   1      31.340  10.822   4.311  0.00  0.00     0.241 C 
HETATM   12  O   UNK N   1      31.146  12.028   4.339  0.00  0.00    -0.271 OA
HETATM   13  N   UNK N   1      31.201  10.107   5.457  0.00  0.00    -0.346 N 
HETATM   14  C   UNK N   1      31.370   8.674   5.524  0.00  0.00     0.180 C 
HETATM   15  C   UNK N   1      32.760   8.090   5.605  0.00  0.00     0.241 C 
HETATM   16  N   UNK N   1      33.295   7.657   6.771  0.00  0.00    -0.346 N 
HETATM   17  O   UNK N   1      33.420   7.992   4.585  0.00  0.00    -0.271 OA
HETATM   18  C   UNK N   1      32.580   7.714   8.019  0.00  0.00     0.182 C 
HETATM   19  C   UNK N   1      32.931   8.966   8.737  0.00  0.00     0.241 C 
HETATM   20  N   UNK N   1      34.217   9.206   9.073  0.00  0.00    -0.346 N 
HETATM   21  O   UNK N   1      32.048   9.787   8.964  0.00  0.00    -0.271 OA
HETATM   22  C   UNK N   1      34.739  10.479   9.539  0.00  0.00     0.186 C 
HETATM   23  C   UNK N   1      34.200  10.961  10.885  0.00  0.00     0.241 C 
HETATM   24  N   UNK N   1      34.786  12.054  11.477  0.00  0.00    -0.346 N 
HETATM   25  O   UNK N   1      33.294  10.404  11.420  0.00  0.00    -0.271 OA
HETATM   26  C   UNK N   1      36.411  13.600   6.608  0.00  0.00     0.004 C 
HETATM   27  C   UNK N   1      35.925  12.717  10.906  0.00  0.00     0.185 C 
HETATM   28  C   UNK N   1      35.927  14.204  11.118  0.00  0.00     0.240 C 
HETATM   29  N   UNK N   1      35.748  15.052  10.078  0.00  0.00    -0.359 N 
HETATM   30  O   UNK N   1      36.112  14.660  12.238  0.00  0.00    -0.271 OA
HETATM   31  C   UNK N   1      36.525  13.709   8.134  0.00  0.00     0.020 C 
HETATM   32  C   UNK N   1      35.437  14.607   8.735  0.00  0.00     0.122 C 
HETATM   33  H   UNK N   1      32.558  13.651   3.536  0.00  0.00     0.163 HD
HETATM   34  H   UNK N   1      33.606   9.215   3.080  0.00  0.00     0.163 HD
HETATM   35  H   UNK N   1      30.972  10.590   6.284  0.00  0.00     0.163 HD
HETATM   36  H   UNK N   1      34.208   7.288   6.765  0.00  0.00     0.163 HD
HETATM   37  H   UNK N   1      34.852   8.458   8.995  0.00  0.00     0.163 HD
HETATM   38  H   UNK N   1      34.413  12.393  12.322  0.00  0.00     0.163 HD
HETATM   39  H   UNK N   1      35.834  16.018  10.243  0.00  0.00     0.162 HD
ENDROOT
BRANCH   1  40
HETATM   40  N   UNK N   1      34.442  15.770   5.520  0.00  0.00    -0.346 N 
HETATM   41  C   UNK N   1      33.395  16.549   5.882  0.00  0.00     0.241 C 
HETATM   42  O   UNK N   1      33.580  17.744   6.057  0.00  0.00    -0.271 OA
HETATM   43  H   UNK N   1      35.326  16.201   5.484  0.00  0.00     0.163 HD
BRANCH  41  44
HETATM   44  C   UNK N   1      32.011  15.972   6.065  0.00  0.00     0.180 C 
BRANCH  44  45
HETATM   45  N   UNK N   1      31.051  16.307   5.015  0.00  0.00    -0.346 N 
HETATM   46  C   UNK N   1      29.907  15.641   4.693  0.00  0.00     0.241 C 
HETATM   47  O   UNK N   1      29.598  14.603   5.253  0.00  0.00    -0.271 OA
HETATM   48  H   UNK N   1      31.255  17.107   4.477  0.00  0.00     0.163 HD
BRANCH  46  49
HETATM   49  C   UNK N   1      29.094  16.076   3.518  0.00  0.00     0.177 C 
BRANCH  49  50
HETATM   50  N   UNK N   1      27.807  16.416   4.049  0.00  0.00    -0.346 N 
HETATM   51  C   UNK N   1      27.698  17.634   4.624  0.00  0.00     0.241 C 
HETATM   52  O   UNK N   1      28.595  18.462   4.474  0.00  0.00    -0.271 OA
HETATM   53  H   UNK N   1      27.044  15.796   3.997  0.00  0.00     0.163 HD
BRANCH  51  54
HETATM   54  C   UNK N   1      26.527  18.001   5.455  0.00  0.00     0.177 C 
BRANCH  54  55
HETATM   55  N   UNK N   1      25.601  16.926   5.192  0.00  0.00    -0.346 N 
HETATM   56  C   UNK N   1      25.333  15.931   6.087  0.00  0.00     0.241 C 
HETATM   57  O   UNK N   1      26.182  15.532   6.869  0.00  0.00    -0.271 OA
HETATM   58  H   UNK N   1      25.138  16.910   4.323  0.00  0.00     0.163 HD
BRANCH  56  59
HETATM   59  C   UNK N   1      23.930  15.448   6.241  0.00  0.00     0.184 C 
HETATM   60  C   UNK N   1      23.454  14.729   4.969  0.00  0.00     0.115 C 
HETATM   61  S   UNK N   1      23.849  12.954   5.144  0.00  0.00    -0.112 SA
HETATM   62  C   UNK N   1      23.964  13.267   6.895  0.00  0.00     0.066 C 
HETATM   63  N   UNK N   1      23.975  14.483   7.267  0.00  0.00    -0.372 N 
ATOM     64  HN  UNK N   1      24.013  14.745   8.251  1.00  0.00     0.160 HD
BRANCH  62  65
HETATM   65  C   UNK N   1      24.353  12.226   7.876  0.00  0.00     0.135 C 
BRANCH  65  66
HETATM   66  N   UNK N   1      23.781  10.959   7.446  0.00  0.00    -0.420 N 
HETATM   67  H   UNK N   1      23.156  10.575   6.738  0.00  0.00     0.150 HD
HETATM   68  H   UNK N   1      24.115  10.210   8.051  0.00  0.00     0.150 HD
ENDBRANCH  65  66
BRANCH  65  69
HETATM   69  C   UNK N   1      23.724  12.688   9.203  0.00  0.00     0.010 C 
HETATM   70  C   UNK N   1      24.676  12.451  10.374  0.00  0.00     0.012 C 
BRANCH  69  71
HETATM   71  C   UNK N   1      22.360  12.105   9.496  0.00  0.00     0.002 C 
HETATM   72  C   UNK N   1      22.039  12.324  10.964  0.00  0.00     0.005 C 
ENDBRANCH  69  71
ENDBRANCH  65  69
ENDBRANCH  62  65
ENDBRANCH  56  59
ENDBRANCH  54  55
BRANCH  54  73
HETATM   73  C   UNK N   1      26.006  19.350   4.937  0.00  0.00     0.038 C 
BRANCH  73  74
HETATM   74  C   UNK N   1      25.383  19.332   3.566  0.00  0.00    -0.020 C 
HETATM   75  C   UNK N   1      23.883  19.432   3.763  0.00  0.00     0.009 C 
HETATM   76  C   UNK N   1      25.843  20.560   2.811  0.00  0.00     0.009 C 
ENDBRANCH  73  74
ENDBRANCH  54  73
ENDBRANCH  51  54
ENDBRANCH  49  50
BRANCH  49  77
HETATM   77  C   UNK N   1      29.021  15.111   2.342  0.00  0.00     0.045 C 
BRANCH  77  78
HETATM   78  C   UNK N   1      27.568  14.848   1.912  0.00  0.00     0.112 C 
BRANCH  78  79
HETATM   79  C   UNK N   1      26.992  13.574   2.470  0.00  0.00     0.139 C 
HETATM   80  O   UNK N   1      27.015  13.373   3.673  0.00  0.00    -0.650 OA
BRANCH  79  81
HETATM   81  O   UNK N   1      26.468  12.645   1.648  0.00  0.00    -0.776 OA
HETATM   82  H   UNK N   1      25.999  12.837   0.860  0.00  0.00     0.167 HD
ENDBRANCH  79  81
ENDBRANCH  78  79
ENDBRANCH  77  78
ENDBRANCH  49  77
ENDBRANCH  46  49
ENDBRANCH  44  45
BRANCH  44  83
HETATM   83  C   UNK N   1      31.413  16.292   7.445  0.00  0.00     0.013 C 
HETATM   84  C   UNK N   1      32.528  16.393   8.468  0.00  0.00     0.012 C 
BRANCH  83  85
HETATM   85  C   UNK N   1      30.623  17.596   7.477  0.00  0.00     0.002 C 
HETATM   86  C   UNK N   1      30.815  18.292   8.812  0.00  0.00     0.005 C 
ENDBRANCH  83  85
ENDBRANCH  44  83
ENDBRANCH  41  44
ENDBRANCH   1  40
BRANCH   4  87
HETATM   87  C   UNK N   1      34.182  12.913   0.846  0.00  0.00     0.036 C 
BRANCH  87  88
HETATM   88  C   UNK N   1      33.618  12.242  -0.391  0.00  0.00     0.021 C 
BRANCH  88  89
HETATM   89  C   UNK N   1      34.728  11.684  -1.257  0.00  0.00     0.111 C 
BRANCH  89  90
HETATM   90  N   UNK N   1      35.854  11.300  -0.424  0.00  0.00    -0.430 N 
HETATM   91  H   UNK N   1      35.969  11.379   0.586  0.00  0.00     0.149 HD
HETATM   92  H   UNK N   1      36.646  10.891  -0.922  0.00  0.00     0.149 HD
ENDBRANCH  89  90
ENDBRANCH  88  89
ENDBRANCH  87  88
ENDBRANCH   4  87
BRANCH  10  93
HETATM   93  C   UNK N   1      31.035  10.723   1.768  0.00  0.00     0.013 C 
HETATM   94  C   UNK N   1      29.552  10.932   2.039  0.00  0.00     0.012 C 
BRANCH  93  95
HETATM   95  C   UNK N   1      31.214   9.809   0.565  0.00  0.00     0.002 C 
HETATM   96  C   UNK N   1      29.892   9.634  -0.160  0.00  0.00     0.005 C 
ENDBRANCH  93  95
ENDBRANCH  10  93
BRANCH  27  97
HETATM   97  C   UNK N   1      37.251  12.031  11.253  0.00  0.00     0.137 C 
BRANCH  97  98
HETATM   98  C   UNK N   1      37.308  11.519  12.659  0.00  0.00     0.217 C 
HETATM   99  O   UNK N   1      37.052  10.347  12.881  0.00  0.00    -0.274 OA
HETATM  100  N   UNK N   1      37.628  12.340  13.677  0.00  0.00    -0.370 N 
HETATM  101  H   UNK N   1      37.925  13.277  13.735  0.00  0.00     0.159 HD
HETATM  102  H   UNK N   1      37.549  11.908  14.558  0.00  0.00     0.159 HD
ENDBRANCH  97  98
ENDBRANCH  27  97
BRANCH  14 103
HETATM  103  C   UNK N   1      30.123   7.886   5.884  0.00  0.00     0.073 C 
BRANCH 103 104
HETATM  104  C   UNK N   1      29.208   7.821   4.706  0.00  0.00    -0.056 A 
HETATM  105  C   UNK N   1      29.619   7.163   3.544  0.00  0.00     0.007 A 
HETATM  106  C   UNK N   1      28.764   7.098   2.439  0.00  0.00     0.001 A 
HETATM  107  C   UNK N   1      27.503   7.700   2.491  0.00  0.00     0.000 A 
HETATM  108  C   UNK N   1      27.088   8.358   3.651  0.00  0.00     0.001 A 
HETATM  109  C   UNK N   1      27.934   8.410   4.758  0.00  0.00     0.007 A 
ENDBRANCH 103 104
ENDBRANCH  14 103
BRANCH  22 110
HETATM  110  C   UNK N   1      34.641  11.506   8.427  0.00  0.00     0.144 C 
BRANCH 110 111
HETATM  111  C   UNK N   1      33.293  12.141   8.232  0.00  0.00     0.141 C 
HETATM  112  O   UNK N   1      32.859  12.936   9.050  0.00  0.00    -0.650 OA
BRANCH 111 113
HETATM  113  O   UNK N   1      32.595  11.890   7.111  0.00  0.00    -0.776 OA
HETATM  114  H   UNK N   1      32.882  11.223   6.518  0.00  0.00     0.167 HD
ENDBRANCH 111 113
ENDBRANCH 110 111
ENDBRANCH  22 110
BRANCH  18 115
HETATM  115  C   UNK N   1      32.926   6.505   8.869  0.00  0.00     0.093 C 
BRANCH 115 116
HETATM  116  C   UNK N   1      31.732   6.034   9.628  0.00  0.00     0.028 A 
HETATM  117  N   UNK N   1      31.802   5.488  10.849  0.00  0.00    -0.354 N 
HETATM  118  C   UNK N   1      30.527   5.184  11.167  0.00  0.00     0.180 A 
ATOM    119  HN  UNK N   1      32.636   5.337  11.415  1.00  0.00     0.166 HD
HETATM  120  N   UNK N   1      29.670   5.519  10.179  0.00  0.00    -0.360 N 
HETATM  121  C   UNK N   1      30.423   6.055   9.205  0.00  0.00     0.114 A 
HETATM  122  H   UNK N   1      28.693   5.395  10.174  0.00  0.00     0.166 HD
ENDBRANCH 115 116
ENDBRANCH  18 115
TORSDOF 35
ENDMDL
MODEL 6
REMARK VINA RESULT:      -6.6      1.474      2.912
REMARK WARNING: 32 MAX_TORS EXCEEDED!!!
REMARK  35 active torsions:
REMARK  status: ('A' for Active; 'I' for Inactive)
REMARK    1  A    between atoms: C_3  and  C_9 
REMARK    2  A    between atoms: C_6  and  C_7 
REMARK    3  A    between atoms: C_7  and  N_8 
REMARK    4  A    between atoms: C_7  and  C_26 
REMARK       I    between atoms: C_9  and  N_10 
REMARK    5  A    between atoms: N_10  and  C_11 
REMARK    6  A    between atoms: C_11  and  C_12 
REMARK    7  A    between atoms: C_11  and  C_36 
REMARK       I    between atoms: C_12  and  N_13 
REMARK    8  A    between atoms: N_13  and  C_14 
REMARK    9  A    between atoms: C_14  and  C_15 
REMARK   10  A    between atoms: C_14  and  C_40 
REMARK       I    between atoms: C_15  and  N_16 
REMARK   11  A    between atoms: C_17  and  N_16 
REMARK   12  A    between atoms: C_17  and  C_18 
REMARK   13  A    between atoms: C_17  and  C_45 
REMARK       I    between atoms: C_18  and  N_19 
REMARK   14  A    between atoms: N_19  and  C_20 
REMARK   15  A    between atoms: C_23  and  C_50 
REMARK   16  A    between atoms: C_26  and  C_28 
REMARK   17  A    between atoms: C_36  and  C_37 
REMARK   18  A    between atoms: C_40  and  C_41 
REMARK   19  A    between atoms: C_41  and  C_42 
REMARK   20  A    between atoms: C_42  and  O_43 
REMARK   21  A    between atoms: C_45  and  C_46 
REMARK   22  A    between atoms: C_50  and  C_68 
REMARK   23  A    between atoms: C_51  and  C_71 
REMARK   24  A    between atoms: C_55  and  C_75 
REMARK   25  A    between atoms: C_59  and  C_82 
REMARK   26  A    between atoms: C_63  and  C_98 
REMARK   27  A    between atoms: C_68  and  C_69 
REMARK   28  A    between atoms: C_69  and  N_70 
REMARK   29  A    between atoms: C_71  and  C_73 
REMARK   30  A    between atoms: C_75  and  C_76 
REMARK   31  A    between atoms: C_82  and  C_83 
REMARK   32  A    between atoms: C_89  and  C_93 
REMARK   33  A    between atoms: C_93  and  C_94 
REMARK       I    between atoms: C_94  and  N_96 
REMARK   34  A    between atoms: C_98  and  C_100 
REMARK   35  A    between atoms: C_100  and  O_102 
ROOT
HETATM    1  C   UNK N   1      33.389  11.127   4.920  0.00  0.00     0.176 C 
HETATM    2  C   UNK N   1      34.252  12.334   4.974  0.00  0.00     0.241 C 
HETATM    3  N   UNK N   1      33.845  13.327   5.795  0.00  0.00    -0.346 N 
HETATM    4  C   UNK N   1      34.165  14.724   5.624  0.00  0.00     0.176 C 
HETATM    5  C   UNK N   1      33.448  15.271   4.419  0.00  0.00     0.241 C 
HETATM    6  N   UNK N   1      32.299  15.981   4.542  0.00  0.00    -0.346 N 
HETATM    7  O   UNK N   1      35.129  12.516   4.142  0.00  0.00    -0.271 OA
HETATM    8  O   UNK N   1      33.898  15.062   3.303  0.00  0.00    -0.271 OA
HETATM    9  C   UNK N   1      32.497  11.084   3.689  0.00  0.00     0.035 C 
HETATM   10  C   UNK N   1      31.529  16.150   5.763  0.00  0.00     0.180 C 
HETATM   11  C   UNK N   1      30.733  14.896   6.058  0.00  0.00     0.241 C 
HETATM   12  O   UNK N   1      31.210  14.032   6.780  0.00  0.00    -0.271 OA
HETATM   13  N   UNK N   1      29.497  14.704   5.531  0.00  0.00    -0.346 N 
HETATM   14  C   UNK N   1      28.829  15.677   4.699  0.00  0.00     0.180 C 
HETATM   15  C   UNK N   1      29.182  15.775   3.235  0.00  0.00     0.241 C 
HETATM   16  N   UNK N   1      28.409  15.228   2.266  0.00  0.00    -0.346 N 
HETATM   17  O   UNK N   1      30.191  16.378   2.909  0.00  0.00    -0.271 OA
HETATM   18  C   UNK N   1      27.191  14.519   2.558  0.00  0.00     0.182 C 
HETATM   19  C   UNK N   1      27.474  13.063   2.655  0.00  0.00     0.241 C 
HETATM   20  N   UNK N   1      28.000  12.412   1.596  0.00  0.00    -0.346 N 
HETATM   21  O   UNK N   1      27.274  12.491   3.721  0.00  0.00    -0.271 OA
HETATM   22  C   UNK N   1      28.558  11.071   1.626  0.00  0.00     0.186 C 
HETATM   23  C   UNK N   1      27.568   9.951   1.942  0.00  0.00     0.241 C 
HETATM   24  N   UNK N   1      27.980   8.648   1.801  0.00  0.00    -0.346 N 
HETATM   25  O   UNK N   1      26.458  10.194   2.299  0.00  0.00    -0.271 OA
HETATM   26  C   UNK N   1      33.018  10.353   2.474  0.00  0.00     0.004 C 
HETATM   27  C   UNK N   1      29.285   8.305   1.309  0.00  0.00     0.185 C 
HETATM   28  C   UNK N   1      29.868   7.076   1.946  0.00  0.00     0.240 C 
HETATM   29  N   UNK N   1      30.934   7.166   2.775  0.00  0.00    -0.359 N 
HETATM   30  O   UNK N   1      29.388   5.977   1.702  0.00  0.00    -0.271 OA
HETATM   31  C   UNK N   1      32.044   9.258   2.017  0.00  0.00     0.020 C 
HETATM   32  C   UNK N   1      31.513   8.427   3.191  0.00  0.00     0.122 C 
HETATM   33  H   UNK N   1      33.290  13.081   6.568  0.00  0.00     0.163 HD
HETATM   34  H   UNK N   1      31.956  16.421   3.732  0.00  0.00     0.163 HD
HETATM   35  H   UNK N   1      29.032  13.857   5.726  0.00  0.00     0.163 HD
HETATM   36  H   UNK N   1      28.691  15.320   1.328  0.00  0.00     0.163 HD
HETATM   37  H   UNK N   1      28.006  12.885   0.732  0.00  0.00     0.163 HD
HETATM   38  H   UNK N   1      27.359   7.924   2.045  0.00  0.00     0.163 HD
HETATM   39  H   UNK N   1      31.336   6.333   3.110  0.00  0.00     0.162 HD
ENDROOT
BRANCH   1  40
HETATM   40  N   UNK N   1      33.870   9.861   5.441  0.00  0.00    -0.346 N 
HETATM   41  C   UNK N   1      33.779   9.437   6.724  0.00  0.00     0.241 C 
HETATM   42  O   UNK N   1      34.307   8.380   7.036  0.00  0.00    -0.271 OA
HETATM   43  H   UNK N   1      34.303   9.252   4.801  0.00  0.00     0.163 HD
BRANCH  41  44
HETATM   44  C   UNK N   1      33.049  10.245   7.771  0.00  0.00     0.180 C 
BRANCH  44  45
HETATM   45  N   UNK N   1      33.872  11.200   8.509  0.00  0.00    -0.346 N 
HETATM   46  C   UNK N   1      33.457  12.319   9.166  0.00  0.00     0.241 C 
HETATM   47  O   UNK N   1      32.291  12.675   9.142  0.00  0.00    -0.271 OA
HETATM   48  H   UNK N   1      34.839  11.014   8.533  0.00  0.00     0.163 HD
BRANCH  46  49
HETATM   49  C   UNK N   1      34.459  13.236   9.788  0.00  0.00     0.177 C 
BRANCH  49  50
HETATM   50  N   UNK N   1      34.580  12.804  11.148  0.00  0.00    -0.346 N 
HETATM   51  C   UNK N   1      35.813  12.422  11.550  0.00  0.00     0.241 C 
HETATM   52  O   UNK N   1      36.788  12.665  10.841  0.00  0.00    -0.271 OA
HETATM   53  H   UNK N   1      33.807  12.787  11.759  0.00  0.00     0.163 HD
BRANCH  51  54
HETATM   54  C   UNK N   1      36.027  11.694  12.823  0.00  0.00     0.177 C 
BRANCH  54  55
HETATM   55  N   UNK N   1      37.232  10.943  12.561  0.00  0.00    -0.346 N 
HETATM   56  C   UNK N   1      37.957  10.325  13.538  0.00  0.00     0.241 C 
HETATM   57  O   UNK N   1      38.019  10.778  14.670  0.00  0.00    -0.271 OA
HETATM   58  H   UNK N   1      37.547  10.874  11.631  0.00  0.00     0.163 HD
BRANCH  56  59
HETATM   59  C   UNK N   1      38.535   8.975  13.273  0.00  0.00     0.184 C 
HETATM   60  C   UNK N   1      39.291   8.450  14.503  0.00  0.00     0.115 C 
HETATM   61  S   UNK N   1      38.113   7.499  15.525  0.00  0.00    -0.112 SA
HETATM   62  C   UNK N   1      37.104   7.387  14.059  0.00  0.00     0.066 C 
HETATM   63  N   UNK N   1      37.429   8.124  13.075  0.00  0.00    -0.372 N 
ATOM     64  HN  UNK N   1      36.919   8.100  12.193  1.00  0.00     0.160 HD
BRANCH  62  65
HETATM   65  C   UNK N   1      35.771   6.740  14.045  0.00  0.00     0.135 C 
BRANCH  65  66
HETATM   66  N   UNK N   1      35.585   6.055  15.315  0.00  0.00    -0.420 N 
HETATM   67  H   UNK N   1      35.998   5.991  16.246  0.00  0.00     0.150 HD
HETATM   68  H   UNK N   1      34.776   5.437  15.256  0.00  0.00     0.150 HD
ENDBRANCH  65  66
BRANCH  65  69
HETATM   69  C   UNK N   1      35.842   5.730  12.886  0.00  0.00     0.010 C 
HETATM   70  C   UNK N   1      34.460   5.165  12.563  0.00  0.00     0.012 C 
BRANCH  69  71
HETATM   71  C   UNK N   1      36.844   4.614  13.075  0.00  0.00     0.002 C 
HETATM   72  C   UNK N   1      37.437   4.253  11.724  0.00  0.00     0.005 C 
ENDBRANCH  69  71
ENDBRANCH  65  69
ENDBRANCH  62  65
ENDBRANCH  56  59
ENDBRANCH  54  55
BRANCH  54  73
HETATM   73  C   UNK N   1      34.813  10.778  13.034  0.00  0.00     0.038 C 
BRANCH  73  74
HETATM   74  C   UNK N   1      34.082  10.947  14.340  0.00  0.00    -0.020 C 
HETATM   75  C   UNK N   1      34.622   9.892  15.286  0.00  0.00     0.009 C 
HETATM   76  C   UNK N   1      34.418  12.308  14.909  0.00  0.00     0.009 C 
ENDBRANCH  73  74
ENDBRANCH  54  73
ENDBRANCH  51  54
ENDBRANCH  49  50
BRANCH  49  77
HETATM   77  C   UNK N   1      34.194  14.729   9.655  0.00  0.00     0.045 C 
BRANCH  77  78
HETATM   78  C   UNK N   1      34.639  15.500  10.909  0.00  0.00     0.112 C 
BRANCH  78  79
HETATM   79  C   UNK N   1      35.907  16.289  10.717  0.00  0.00     0.139 C 
HETATM   80  O   UNK N   1      35.855  17.501  10.586  0.00  0.00    -0.650 OA
BRANCH  79  81
HETATM   81  O   UNK N   1      37.099  15.664  10.670  0.00  0.00    -0.776 OA
HETATM   82  H   UNK N   1      37.214  14.735  10.711  0.00  0.00     0.167 HD
ENDBRANCH  79  81
ENDBRANCH  78  79
ENDBRANCH  77  78
ENDBRANCH  49  77
ENDBRANCH  46  49
ENDBRANCH  44  45
BRANCH  44  83
HETATM   83  C   UNK N   1      32.256   9.365   8.752  0.00  0.00     0.013 C 
HETATM   84  C   UNK N   1      31.475   8.322   7.978  0.00  0.00     0.012 C 
BRANCH  83  85
HETATM   85  C   UNK N   1      33.136   8.642   9.765  0.00  0.00     0.002 C 
HETATM   86  C   UNK N   1      32.535   7.292  10.112  0.00  0.00     0.005 C 
ENDBRANCH  83  85
ENDBRANCH  44  83
ENDBRANCH  41  44
ENDBRANCH   1  40
BRANCH   4  87
HETATM   87  C   UNK N   1      35.654  15.045   5.584  0.00  0.00     0.036 C 
BRANCH  87  88
HETATM   88  C   UNK N   1      36.275  14.915   6.961  0.00  0.00     0.021 C 
BRANCH  88  89
HETATM   89  C   UNK N   1      37.186  13.708   7.032  0.00  0.00     0.111 C 
BRANCH  89  90
HETATM   90  N   UNK N   1      37.822  13.649   8.336  0.00  0.00    -0.430 N 
HETATM   91  H   UNK N   1      37.397  13.599   9.262  0.00  0.00     0.149 HD
HETATM   92  H   UNK N   1      38.842  13.659   8.324  0.00  0.00     0.149 HD
ENDBRANCH  89  90
ENDBRANCH  88  89
ENDBRANCH  87  88
ENDBRANCH   4  87
BRANCH  10  93
HETATM   93  C   UNK N   1      32.338  16.682   6.956  0.00  0.00     0.013 C 
HETATM   94  C   UNK N   1      31.411  17.142   8.071  0.00  0.00     0.012 C 
BRANCH  93  95
HETATM   95  C   UNK N   1      33.250  17.826   6.540  0.00  0.00     0.002 C 
HETATM   96  C   UNK N   1      34.180  18.195   7.681  0.00  0.00     0.005 C 
ENDBRANCH  93  95
ENDBRANCH  10  93
BRANCH  27  97
HETATM   97  C   UNK N   1      29.366   8.317  -0.222  0.00  0.00     0.137 C 
BRANCH  97  98
HETATM   98  C   UNK N   1      28.196   7.664  -0.888  0.00  0.00     0.217 C 
HETATM   99  O   UNK N   1      27.204   8.327  -1.145  0.00  0.00    -0.274 OA
HETATM  100  N   UNK N   1      28.223   6.353  -1.195  0.00  0.00    -0.370 N 
HETATM  101  H   UNK N   1      28.912   5.650  -1.144  0.00  0.00     0.159 HD
HETATM  102  H   UNK N   1      27.367   6.024  -1.550  0.00  0.00     0.159 HD
ENDBRANCH  97  98
ENDBRANCH  27  97
BRANCH  14 103
HETATM  103  C   UNK N   1      27.558  16.271   5.281  0.00  0.00     0.073 C 
BRANCH 103 104
HETATM  104  C   UNK N   1      27.637  17.762   5.250  0.00  0.00    -0.056 A 
HETATM  105  C   UNK N   1      27.992  18.462   6.407  0.00  0.00     0.007 A 
HETATM  106  C   UNK N   1      28.070  19.858   6.382  0.00  0.00     0.001 A 
HETATM  107  C   UNK N   1      27.781  20.556   5.204  0.00  0.00     0.000 A 
HETATM  108  C   UNK N   1      27.427  19.860   4.046  0.00  0.00     0.001 A 
HETATM  109  C   UNK N   1      27.364  18.467   4.067  0.00  0.00     0.007 A 
ENDBRANCH 103 104
ENDBRANCH  14 103
BRANCH  22 110
HETATM  110  C   UNK N   1      29.804  11.060   2.491  0.00  0.00     0.144 C 
BRANCH 110 111
HETATM  111  C   UNK N   1      29.580  10.961   3.973  0.00  0.00     0.141 C 
HETATM  112  O   UNK N   1      29.207   9.912   4.474  0.00  0.00    -0.650 OA
BRANCH 111 113
HETATM  113  O   UNK N   1      29.864  12.012   4.761  0.00  0.00    -0.776 OA
HETATM  114  H   UNK N   1      29.343  12.186   5.520  0.00  0.00     0.167 HD
ENDBRANCH 111 113
ENDBRANCH 110 111
ENDBRANCH  22 110
BRANCH  18 115
HETATM  115  C   UNK N   1      26.167  14.784   1.471  0.00  0.00     0.093 C 
BRANCH 115 116
HETATM  116  C   UNK N   1      24.803  14.935   2.056  0.00  0.00     0.028 A 
HETATM  117  N   UNK N   1      23.691  14.477   1.465  0.00  0.00    -0.354 N 
HETATM  118  C   UNK N   1      22.688  14.829   2.294  0.00  0.00     0.180 A 
ATOM    119  HN  UNK N   1      23.620  13.972   0.582  1.00  0.00     0.166 HD
HETATM  120  N   UNK N   1      23.141  15.495   3.377  0.00  0.00    -0.360 N 
HETATM  121  C   UNK N   1      24.475  15.566   3.234  0.00  0.00     0.114 A 
HETATM  122  H   UNK N   1      22.604  15.856   4.119  0.00  0.00     0.166 HD
ENDBRANCH 115 116
ENDBRANCH  18 115
TORSDOF 35
ENDMDL
MODEL 7
REMARK VINA RESULT:      -6.6      1.465      2.310
REMARK WARNING: 32 MAX_TORS EXCEEDED!!!
REMARK  35 active torsions:
REMARK  status: ('A' for Active; 'I' for Inactive)
REMARK    1  A    between atoms: C_3  and  C_9 
REMARK    2  A    between atoms: C_6  and  C_7 
REMARK    3  A    between atoms: C_7  and  N_8 
REMARK    4  A    between atoms: C_7  and  C_26 
REMARK       I    between atoms: C_9  and  N_10 
REMARK    5  A    between atoms: N_10  and  C_11 
REMARK    6  A    between atoms: C_11  and  C_12 
REMARK    7  A    between atoms: C_11  and  C_36 
REMARK       I    between atoms: C_12  and  N_13 
REMARK    8  A    between atoms: N_13  and  C_14 
REMARK    9  A    between atoms: C_14  and  C_15 
REMARK   10  A    between atoms: C_14  and  C_40 
REMARK       I    between atoms: C_15  and  N_16 
REMARK   11  A    between atoms: C_17  and  N_16 
REMARK   12  A    between atoms: C_17  and  C_18 
REMARK   13  A    between atoms: C_17  and  C_45 
REMARK       I    between atoms: C_18  and  N_19 
REMARK   14  A    between atoms: N_19  and  C_20 
REMARK   15  A    between atoms: C_23  and  C_50 
REMARK   16  A    between atoms: C_26  and  C_28 
REMARK   17  A    between atoms: C_36  and  C_37 
REMARK   18  A    between atoms: C_40  and  C_41 
REMARK   19  A    between atoms: C_41  and  C_42 
REMARK   20  A    between atoms: C_42  and  O_43 
REMARK   21  A    between atoms: C_45  and  C_46 
REMARK   22  A    between atoms: C_50  and  C_68 
REMARK   23  A    between atoms: C_51  and  C_71 
REMARK   24  A    between atoms: C_55  and  C_75 
REMARK   25  A    between atoms: C_59  and  C_82 
REMARK   26  A    between atoms: C_63  and  C_98 
REMARK   27  A    between atoms: C_68  and  C_69 
REMARK   28  A    between atoms: C_69  and  N_70 
REMARK   29  A    between atoms: C_71  and  C_73 
REMARK   30  A    between atoms: C_75  and  C_76 
REMARK   31  A    between atoms: C_82  and  C_83 
REMARK   32  A    between atoms: C_89  and  C_93 
REMARK   33  A    between atoms: C_93  and  C_94 
REMARK       I    between atoms: C_94  and  N_96 
REMARK   34  A    between atoms: C_98  and  C_100 
REMARK   35  A    between atoms: C_100  and  O_102 
ROOT
HETATM    1  C   UNK N   1      33.194  11.263   4.386  0.00  0.00     0.176 C 
HETATM    2  C   UNK N   1      34.088  12.444   4.483  0.00  0.00     0.241 C 
HETATM    3  N   UNK N   1      33.746  13.384   5.391  0.00  0.00    -0.346 N 
HETATM    4  C   UNK N   1      34.092  14.783   5.303  0.00  0.00     0.176 C 
HETATM    5  C   UNK N   1      33.332  15.429   4.177  0.00  0.00     0.241 C 
HETATM    6  N   UNK N   1      32.209  16.153   4.406  0.00  0.00    -0.346 N 
HETATM    7  O   UNK N   1      34.929  12.666   3.624  0.00  0.00    -0.271 OA
HETATM    8  O   UNK N   1      33.723  15.291   3.028  0.00  0.00    -0.271 OA
HETATM    9  C   UNK N   1      32.243  11.327   3.200  0.00  0.00     0.035 C 
HETATM   10  C   UNK N   1      31.501  16.251   5.672  0.00  0.00     0.180 C 
HETATM   11  C   UNK N   1      30.690  14.997   5.917  0.00  0.00     0.241 C 
HETATM   12  O   UNK N   1      31.179  14.073   6.551  0.00  0.00    -0.271 OA
HETATM   13  N   UNK N   1      29.426  14.869   5.439  0.00  0.00    -0.346 N 
HETATM   14  C   UNK N   1      28.743  15.914   4.712  0.00  0.00     0.180 C 
HETATM   15  C   UNK N   1      29.029  16.109   3.242  0.00  0.00     0.241 C 
HETATM   16  N   UNK N   1      28.198  15.650   2.276  0.00  0.00    -0.346 N 
HETATM   17  O   UNK N   1      30.036  16.712   2.910  0.00  0.00    -0.271 OA
HETATM   18  C   UNK N   1      26.977  14.948   2.576  0.00  0.00     0.182 C 
HETATM   19  C   UNK N   1      27.228  13.483   2.557  0.00  0.00     0.241 C 
HETATM   20  N   UNK N   1      27.687  12.899   1.430  0.00  0.00    -0.346 N 
HETATM   21  O   UNK N   1      27.064  12.840   3.588  0.00  0.00    -0.271 OA
HETATM   22  C   UNK N   1      28.212  11.547   1.338  0.00  0.00     0.186 C 
HETATM   23  C   UNK N   1      27.210  10.429   1.622  0.00  0.00     0.241 C 
HETATM   24  N   UNK N   1      27.583   9.131   1.370  0.00  0.00    -0.346 N 
HETATM   25  O   UNK N   1      26.125  10.669   2.049  0.00  0.00    -0.271 OA
HETATM   26  C   UNK N   1      32.687  10.674   1.913  0.00  0.00     0.004 C 
HETATM   27  C   UNK N   1      28.853   8.796   0.791  0.00  0.00     0.185 C 
HETATM   28  C   UNK N   1      29.435   7.512   1.310  0.00  0.00     0.240 C 
HETATM   29  N   UNK N   1      30.541   7.519   2.090  0.00  0.00    -0.359 N 
HETATM   30  O   UNK N   1      28.918   6.444   1.013  0.00  0.00    -0.271 OA
HETATM   31  C   UNK N   1      31.666   9.636   1.428  0.00  0.00     0.020 C 
HETATM   32  C   UNK N   1      31.171   8.734   2.566  0.00  0.00     0.122 C 
HETATM   33  H   UNK N   1      33.221  13.095   6.171  0.00  0.00     0.163 HD
HETATM   34  H   UNK N   1      31.838  16.658   3.646  0.00  0.00     0.163 HD
HETATM   35  H   UNK N   1      28.950  14.021   5.596  0.00  0.00     0.163 HD
HETATM   36  H   UNK N   1      28.437  15.803   1.334  0.00  0.00     0.163 HD
HETATM   37  H   UNK N   1      27.664  13.432   0.602  0.00  0.00     0.163 HD
HETATM   38  H   UNK N   1      26.956   8.405   1.593  0.00  0.00     0.163 HD
HETATM   39  H   UNK N   1      30.938   6.656   2.346  0.00  0.00     0.162 HD
ENDROOT
BRANCH   1  40
HETATM   40  N   UNK N   1      33.667   9.952   4.793  0.00  0.00    -0.346 N 
HETATM   41  C   UNK N   1      33.639   9.445   6.048  0.00  0.00     0.241 C 
HETATM   42  O   UNK N   1      34.153   8.356   6.257  0.00  0.00    -0.271 OA
HETATM   43  H   UNK N   1      34.044   9.378   4.088  0.00  0.00     0.163 HD
BRANCH  41  44
HETATM   44  C   UNK N   1      32.995  10.199   7.188  0.00  0.00     0.180 C 
BRANCH  44  45
HETATM   45  N   UNK N   1      33.863  11.152   7.875  0.00  0.00    -0.346 N 
HETATM   46  C   UNK N   1      33.488  12.172   8.696  0.00  0.00     0.241 C 
HETATM   47  O   UNK N   1      32.313  12.431   8.892  0.00  0.00    -0.271 OA
HETATM   48  H   UNK N   1      34.831  11.045   7.727  0.00  0.00     0.163 HD
BRANCH  46  49
HETATM   49  C   UNK N   1      34.515  13.113   9.237  0.00  0.00     0.177 C 
BRANCH  49  50
HETATM   50  N   UNK N   1      34.699  12.732  10.606  0.00  0.00    -0.346 N 
HETATM   51  C   UNK N   1      35.650  11.801  10.847  0.00  0.00     0.241 C 
HETATM   52  O   UNK N   1      36.445  11.498   9.960  0.00  0.00    -0.271 OA
HETATM   53  H   UNK N   1      34.163  13.126  11.332  0.00  0.00     0.163 HD
BRANCH  51  54
HETATM   54  C   UNK N   1      35.753  11.114  12.156  0.00  0.00     0.177 C 
BRANCH  54  55
HETATM   55  N   UNK N   1      36.587  12.010  12.921  0.00  0.00    -0.346 N 
HETATM   56  C   UNK N   1      36.092  12.910  13.819  0.00  0.00     0.241 C 
HETATM   57  O   UNK N   1      35.000  13.433  13.663  0.00  0.00    -0.271 OA
HETATM   58  H   UNK N   1      37.561  11.968  12.789  0.00  0.00     0.163 HD
BRANCH  56  59
HETATM   59  C   UNK N   1      36.813  13.124  15.108  0.00  0.00     0.184 C 
HETATM   60  C   UNK N   1      35.998  14.024  16.050  0.00  0.00     0.115 C 
HETATM   61  S   UNK N   1      34.938  12.949  17.078  0.00  0.00    -0.112 SA
HETATM   62  C   UNK N   1      36.050  11.625  16.643  0.00  0.00     0.066 C 
HETATM   63  N   UNK N   1      36.887  11.855  15.714  0.00  0.00    -0.372 N 
ATOM     64  HN  UNK N   1      37.573  11.159  15.424  1.00  0.00     0.160 HD
BRANCH  62  65
HETATM   65  C   UNK N   1      35.842  10.223  17.075  0.00  0.00     0.135 C 
BRANCH  65  66
HETATM   66  N   UNK N   1      34.936   9.585  16.132  0.00  0.00    -0.420 N 
HETATM   67  H   UNK N   1      34.901   9.263  15.165  0.00  0.00     0.150 HD
HETATM   68  H   UNK N   1      34.043   9.399  16.588  0.00  0.00     0.150 HD
ENDBRANCH  65  66
BRANCH  65  69
HETATM   69  C   UNK N   1      35.192  10.337  18.466  0.00  0.00     0.010 C 
HETATM   70  C   UNK N   1      36.252  10.434  19.562  0.00  0.00     0.012 C 
BRANCH  69  71
HETATM   71  C   UNK N   1      34.188   9.254  18.788  0.00  0.00     0.002 C 
HETATM   72  C   UNK N   1      33.811   9.357  20.256  0.00  0.00     0.005 C 
ENDBRANCH  69  71
ENDBRANCH  65  69
ENDBRANCH  62  65
ENDBRANCH  56  59
ENDBRANCH  54  55
BRANCH  54  73
HETATM   73  C   UNK N   1      36.436   9.761  11.908  0.00  0.00     0.038 C 
BRANCH  73  74
HETATM   74  C   UNK N   1      36.536   8.846  13.100  0.00  0.00    -0.020 C 
HETATM   75  C   UNK N   1      36.177   7.455  12.618  0.00  0.00     0.009 C 
HETATM   76  C   UNK N   1      37.973   8.826  13.573  0.00  0.00     0.009 C 
ENDBRANCH  73  74
ENDBRANCH  54  73
ENDBRANCH  51  54
ENDBRANCH  49  50
BRANCH  49  77
HETATM   77  C   UNK N   1      34.239  14.600   9.061  0.00  0.00     0.045 C 
BRANCH  77  78
HETATM   78  C   UNK N   1      34.220  15.338  10.410  0.00  0.00     0.112 C 
BRANCH  78  79
HETATM   79  C   UNK N   1      35.526  16.004  10.755  0.00  0.00     0.139 C 
HETATM   80  O   UNK N   1      36.439  15.347  11.226  0.00  0.00    -0.650 OA
BRANCH  79  81
HETATM   81  O   UNK N   1      35.687  17.328  10.562  0.00  0.00    -0.776 OA
HETATM   82  H   UNK N   1      36.182  17.890  11.125  0.00  0.00     0.167 HD
ENDBRANCH  79  81
ENDBRANCH  78  79
ENDBRANCH  77  78
ENDBRANCH  49  77
ENDBRANCH  46  49
ENDBRANCH  44  45
BRANCH  44  83
HETATM   83  C   UNK N   1      32.324   9.266   8.211  0.00  0.00     0.013 C 
HETATM   84  C   UNK N   1      31.501   8.223   7.480  0.00  0.00     0.012 C 
BRANCH  83  85
HETATM   85  C   UNK N   1      33.316   8.539   9.111  0.00  0.00     0.002 C 
HETATM   86  C   UNK N   1      33.070   8.903  10.564  0.00  0.00     0.005 C 
ENDBRANCH  83  85
ENDBRANCH  44  83
ENDBRANCH  41  44
ENDBRANCH   1  40
BRANCH   4  87
HETATM   87  C   UNK N   1      35.585  15.074   5.213  0.00  0.00     0.036 C 
BRANCH  87  88
HETATM   88  C   UNK N   1      36.295  14.669   6.490  0.00  0.00     0.021 C 
BRANCH  88  89
HETATM   89  C   UNK N   1      37.251  13.522   6.237  0.00  0.00     0.111 C 
BRANCH  89  90
HETATM   90  N   UNK N   1      37.705  12.974   7.502  0.00  0.00    -0.430 N 
HETATM   91  H   UNK N   1      38.430  13.316   8.133  0.00  0.00     0.149 HD
HETATM   92  H   UNK N   1      37.231  12.122   7.803  0.00  0.00     0.149 HD
ENDBRANCH  89  90
ENDBRANCH  88  89
ENDBRANCH  87  88
ENDBRANCH   4  87
BRANCH  10  93
HETATM   93  C   UNK N   1      32.380  16.678   6.858  0.00  0.00     0.013 C 
HETATM   94  C   UNK N   1      31.519  17.050   8.057  0.00  0.00     0.012 C 
BRANCH  93  95
HETATM   95  C   UNK N   1      33.278  17.849   6.488  0.00  0.00     0.002 C 
HETATM   96  C   UNK N   1      34.188  18.198   7.652  0.00  0.00     0.005 C 
ENDBRANCH  93  95
ENDBRANCH  10  93
BRANCH  27  97
HETATM   97  C   UNK N   1      28.863   8.916  -0.737  0.00  0.00     0.137 C 
BRANCH  97  98
HETATM   98  C   UNK N   1      29.933   8.101  -1.394  0.00  0.00     0.217 C 
HETATM   99  O   UNK N   1      31.057   8.564  -1.505  0.00  0.00    -0.274 OA
HETATM  100  N   UNK N   1      29.665   6.872  -1.873  0.00  0.00    -0.370 N 
HETATM  101  H   UNK N   1      28.877   6.282  -1.845  0.00  0.00     0.159 HD
HETATM  102  H   UNK N   1      30.425   6.474  -2.356  0.00  0.00     0.159 HD
ENDBRANCH  97  98
ENDBRANCH  27  97
BRANCH  14 103
HETATM  103  C   UNK N   1      27.517  16.492   5.396  0.00  0.00     0.073 C 
BRANCH 103 104
HETATM  104  C   UNK N   1      27.587  17.984   5.383  0.00  0.00    -0.056 A 
HETATM  105  C   UNK N   1      27.311  18.681   4.203  0.00  0.00     0.007 A 
HETATM  106  C   UNK N   1      27.372  20.077   4.187  0.00  0.00     0.001 A 
HETATM  107  C   UNK N   1      27.720  20.778   5.347  0.00  0.00     0.000 A 
HETATM  108  C   UNK N   1      27.995  20.085   6.528  0.00  0.00     0.001 A 
HETATM  109  C   UNK N   1      27.919  18.693   6.548  0.00  0.00     0.007 A 
ENDBRANCH 103 104
ENDBRANCH  14 103
BRANCH  22 110
HETATM  110  C   UNK N   1      29.497  11.447   2.137  0.00  0.00     0.144 C 
BRANCH 110 111
HETATM  111  C   UNK N   1      29.341  11.247   3.618  0.00  0.00     0.141 C 
HETATM  112  O   UNK N   1      28.964  10.175   4.062  0.00  0.00    -0.650 OA
BRANCH 111 113
HETATM  113  O   UNK N   1      29.690  12.233   4.463  0.00  0.00    -0.776 OA
HETATM  114  H   UNK N   1      29.924  13.077   4.131  0.00  0.00     0.167 HD
ENDBRANCH 111 113
ENDBRANCH 110 111
ENDBRANCH  22 110
BRANCH  18 115
HETATM  115  C   UNK N   1      25.909  15.312   1.562  0.00  0.00     0.093 C 
BRANCH 115 116
HETATM  116  C   UNK N   1      24.556  14.929   2.060  0.00  0.00     0.028 A 
HETATM  117  N   UNK N   1      24.099  15.251   3.278  0.00  0.00    -0.354 N 
HETATM  118  C   UNK N   1      22.866  14.708   3.340  0.00  0.00     0.180 A 
ATOM    119  HN  UNK N   1      24.579  15.788   3.999  1.00  0.00     0.166 HD
HETATM  120  N   UNK N   1      22.547  14.057   2.202  0.00  0.00    -0.360 N 
HETATM  121  C   UNK N   1      23.608  14.191   1.390  0.00  0.00     0.114 A 
HETATM  122  H   UNK N   1      21.707  13.580   2.007  0.00  0.00     0.166 HD
ENDBRANCH 115 116
ENDBRANCH  18 115
TORSDOF 35
ENDMDL
MODEL 8
REMARK VINA RESULT:      -6.6      3.372      7.393
REMARK WARNING: 32 MAX_TORS EXCEEDED!!!
REMARK  35 active torsions:
REMARK  status: ('A' for Active; 'I' for Inactive)
REMARK    1  A    between atoms: C_3  and  C_9 
REMARK    2  A    between atoms: C_6  and  C_7 
REMARK    3  A    between atoms: C_7  and  N_8 
REMARK    4  A    between atoms: C_7  and  C_26 
REMARK       I    between atoms: C_9  and  N_10 
REMARK    5  A    between atoms: N_10  and  C_11 
REMARK    6  A    between atoms: C_11  and  C_12 
REMARK    7  A    between atoms: C_11  and  C_36 
REMARK       I    between atoms: C_12  and  N_13 
REMARK    8  A    between atoms: N_13  and  C_14 
REMARK    9  A    between atoms: C_14  and  C_15 
REMARK   10  A    between atoms: C_14  and  C_40 
REMARK       I    between atoms: C_15  and  N_16 
REMARK   11  A    between atoms: C_17  and  N_16 
REMARK   12  A    between atoms: C_17  and  C_18 
REMARK   13  A    between atoms: C_17  and  C_45 
REMARK       I    between atoms: C_18  and  N_19 
REMARK   14  A    between atoms: N_19  and  C_20 
REMARK   15  A    between atoms: C_23  and  C_50 
REMARK   16  A    between atoms: C_26  and  C_28 
REMARK   17  A    between atoms: C_36  and  C_37 
REMARK   18  A    between atoms: C_40  and  C_41 
REMARK   19  A    between atoms: C_41  and  C_42 
REMARK   20  A    between atoms: C_42  and  O_43 
REMARK   21  A    between atoms: C_45  and  C_46 
REMARK   22  A    between atoms: C_50  and  C_68 
REMARK   23  A    between atoms: C_51  and  C_71 
REMARK   24  A    between atoms: C_55  and  C_75 
REMARK   25  A    between atoms: C_59  and  C_82 
REMARK   26  A    between atoms: C_63  and  C_98 
REMARK   27  A    between atoms: C_68  and  C_69 
REMARK   28  A    between atoms: C_69  and  N_70 
REMARK   29  A    between atoms: C_71  and  C_73 
REMARK   30  A    between atoms: C_75  and  C_76 
REMARK   31  A    between atoms: C_82  and  C_83 
REMARK   32  A    between atoms: C_89  and  C_93 
REMARK   33  A    between atoms: C_93  and  C_94 
REMARK       I    between atoms: C_94  and  N_96 
REMARK   34  A    between atoms: C_98  and  C_100 
REMARK   35  A    between atoms: C_100  and  O_102 
ROOT
HETATM    1  C   UNK N   1      26.790   9.991   2.057  0.00  0.00     0.176 C 
HETATM    2  C   UNK N   1      28.150  10.033   1.463  0.00  0.00     0.241 C 
HETATM    3  N   UNK N   1      29.158  10.382   2.294  0.00  0.00    -0.346 N 
HETATM    4  C   UNK N   1      30.393  11.003   1.880  0.00  0.00     0.176 C 
HETATM    5  C   UNK N   1      30.131  12.411   1.421  0.00  0.00     0.241 C 
HETATM    6  N   UNK N   1      30.358  13.473   2.234  0.00  0.00    -0.346 N 
HETATM    7  O   UNK N   1      28.308  10.003   0.252  0.00  0.00    -0.271 OA
HETATM    8  O   UNK N   1      29.690  12.608   0.299  0.00  0.00    -0.271 OA
HETATM    9  C   UNK N   1      25.954  11.217   1.725  0.00  0.00     0.035 C 
HETATM   10  C   UNK N   1      30.687  13.409   3.648  0.00  0.00     0.180 C 
HETATM   11  C   UNK N   1      29.445  13.109   4.461  0.00  0.00     0.241 C 
HETATM   12  O   UNK N   1      29.165  11.951   4.733  0.00  0.00    -0.271 OA
HETATM   13  N   UNK N   1      28.626  14.102   4.892  0.00  0.00    -0.346 N 
HETATM   14  C   UNK N   1      28.887  15.503   4.657  0.00  0.00     0.180 C 
HETATM   15  C   UNK N   1      28.537  16.113   3.321  0.00  0.00     0.241 C 
HETATM   16  N   UNK N   1      27.418  16.854   3.134  0.00  0.00    -0.346 N 
HETATM   17  O   UNK N   1      29.294  15.947   2.379  0.00  0.00    -0.271 OA
HETATM   18  C   UNK N   1      26.481  17.121   4.195  0.00  0.00     0.182 C 
HETATM   19  C   UNK N   1      25.390  16.113   4.158  0.00  0.00     0.241 C 
HETATM   20  N   UNK N   1      24.625  15.996   3.052  0.00  0.00    -0.346 N 
HETATM   21  O   UNK N   1      25.240  15.367   5.120  0.00  0.00    -0.271 OA
HETATM   22  C   UNK N   1      23.705  14.905   2.779  0.00  0.00     0.186 C 
HETATM   23  C   UNK N   1      22.514  14.792   3.729  0.00  0.00     0.241 C 
HETATM   24  N   UNK N   1      21.507  13.909   3.421  0.00  0.00    -0.346 N 
HETATM   25  O   UNK N   1      22.448  15.455   4.716  0.00  0.00    -0.271 OA
HETATM   26  C   UNK N   1      25.059  11.144   0.510  0.00  0.00     0.004 C 
HETATM   27  C   UNK N   1      21.506  13.138   2.209  0.00  0.00     0.185 C 
HETATM   28  C   UNK N   1      20.924  11.763   2.368  0.00  0.00     0.240 C 
HETATM   29  N   UNK N   1      21.709  10.664   2.281  0.00  0.00    -0.359 N 
HETATM   30  O   UNK N   1      19.723  11.628   2.560  0.00  0.00    -0.271 OA
HETATM   31  C   UNK N   1      23.599  11.451   0.868  0.00  0.00     0.020 C 
HETATM   32  C   UNK N   1      23.150  10.726   2.143  0.00  0.00     0.122 C 
HETATM   33  H   UNK N   1      29.042  10.199   3.254  0.00  0.00     0.163 HD
HETATM   34  H   UNK N   1      30.294  14.369   1.829  0.00  0.00     0.163 HD
HETATM   35  H   UNK N   1      27.813  13.855   5.390  0.00  0.00     0.163 HD
HETATM   36  H   UNK N   1      27.240  17.224   2.240  0.00  0.00     0.163 HD
HETATM   37  H   UNK N   1      24.696  16.708   2.375  0.00  0.00     0.163 HD
HETATM   38  H   UNK N   1      20.759  13.802   4.052  0.00  0.00     0.163 HD
HETATM   39  H   UNK N   1      21.279   9.779   2.312  0.00  0.00     0.162 HD
ENDROOT
BRANCH   1  40
HETATM   40  N   UNK N   1      26.094   8.725   2.198  0.00  0.00    -0.346 N 
HETATM   41  C   UNK N   1      25.990   7.990   3.331  0.00  0.00     0.241 C 
HETATM   42  O   UNK N   1      25.443   6.899   3.279  0.00  0.00    -0.271 OA
HETATM   43  H   UNK N   1      25.656   8.367   1.393  0.00  0.00     0.163 HD
BRANCH  41  44
HETATM   44  C   UNK N   1      26.539   8.490   4.646  0.00  0.00     0.180 C 
BRANCH  44  45
HETATM   45  N   UNK N   1      27.595   7.669   5.234  0.00  0.00    -0.346 N 
HETATM   46  C   UNK N   1      28.935   7.914   5.229  0.00  0.00     0.241 C 
HETATM   47  O   UNK N   1      29.404   8.874   4.642  0.00  0.00    -0.271 OA
HETATM   48  H   UNK N   1      27.305   6.843   5.685  0.00  0.00     0.163 HD
BRANCH  46  49
HETATM   49  C   UNK N   1      29.881   6.907   5.798  0.00  0.00     0.177 C 
BRANCH  49  50
HETATM   50  N   UNK N   1      30.230   7.401   7.097  0.00  0.00    -0.346 N 
HETATM   51  C   UNK N   1      30.060   6.547   8.130  0.00  0.00     0.241 C 
HETATM   52  O   UNK N   1      29.843   5.358   7.909  0.00  0.00    -0.271 OA
HETATM   53  H   UNK N   1      30.576   8.314   7.229  0.00  0.00     0.163 HD
BRANCH  51  54
HETATM   54  C   UNK N   1      30.107   7.008   9.538  0.00  0.00     0.177 C 
BRANCH  54  55
HETATM   55  N   UNK N   1      31.505   7.318   9.725  0.00  0.00    -0.346 N 
HETATM   56  C   UNK N   1      31.995   8.591   9.744  0.00  0.00     0.241 C 
HETATM   57  O   UNK N   1      31.484   9.481   9.083  0.00  0.00    -0.271 OA
HETATM   58  H   UNK N   1      32.136   6.572   9.844  0.00  0.00     0.163 HD
BRANCH  56  59
HETATM   59  C   UNK N   1      33.057   8.948  10.729  0.00  0.00     0.184 C 
HETATM   60  C   UNK N   1      34.436   8.473  10.246  0.00  0.00     0.115 C 
HETATM   61  S   UNK N   1      35.190   9.826   9.278  0.00  0.00    -0.112 SA
HETATM   62  C   UNK N   1      34.030  10.906  10.094  0.00  0.00     0.066 C 
HETATM   63  N   UNK N   1      33.092  10.356  10.752  0.00  0.00    -0.372 N 
ATOM     64  HN  UNK N   1      32.404  10.903  11.268  1.00  0.00     0.160 HD
BRANCH  62  65
HETATM   65  C   UNK N   1      33.926  12.353   9.793  0.00  0.00     0.135 C 
BRANCH  65  66
HETATM   66  N   UNK N   1      32.688  12.578   9.063  0.00  0.00    -0.420 N 
HETATM   67  H   UNK N   1      31.899  12.064   8.668  0.00  0.00     0.150 HD
HETATM   68  H   UNK N   1      32.569  13.575   8.888  0.00  0.00     0.150 HD
ENDBRANCH  65  66
BRANCH  65  69
HETATM   69  C   UNK N   1      35.146  12.654   8.904  0.00  0.00     0.010 C 
HETATM   70  C   UNK N   1      36.160  13.529   9.640  0.00  0.00     0.012 C 
BRANCH  69  71
HETATM   71  C   UNK N   1      34.817  13.241   7.550  0.00  0.00     0.002 C 
HETATM   72  C   UNK N   1      35.886  14.256   7.183  0.00  0.00     0.005 C 
ENDBRANCH  69  71
ENDBRANCH  65  69
ENDBRANCH  62  65
ENDBRANCH  56  59
ENDBRANCH  54  55
BRANCH  54  73
HETATM   73  C   UNK N   1      29.654   5.834  10.418  0.00  0.00     0.038 C 
BRANCH  73  74
HETATM   74  C   UNK N   1      30.705   5.247  11.323  0.00  0.00    -0.020 C 
HETATM   75  C   UNK N   1      30.000   4.813  12.592  0.00  0.00     0.009 C 
HETATM   76  C   UNK N   1      31.282   4.016  10.658  0.00  0.00     0.009 C 
ENDBRANCH  73  74
ENDBRANCH  54  73
ENDBRANCH  51  54
ENDBRANCH  49  50
BRANCH  49  77
HETATM   77  C   UNK N   1      31.092   6.550   4.948  0.00  0.00     0.045 C 
BRANCH  77  78
HETATM   78  C   UNK N   1      30.716   5.615   3.786  0.00  0.00     0.112 C 
BRANCH  78  79
HETATM   79  C   UNK N   1      30.756   6.279   2.436  0.00  0.00     0.139 C 
HETATM   80  O   UNK N   1      31.634   5.987   1.641  0.00  0.00    -0.650 OA
BRANCH  79  81
HETATM   81  O   UNK N   1      29.839   7.208   2.105  0.00  0.00    -0.776 OA
HETATM   82  H   UNK N   1      29.955   8.132   2.211  0.00  0.00     0.167 HD
ENDBRANCH  79  81
ENDBRANCH  78  79
ENDBRANCH  77  78
ENDBRANCH  49  77
ENDBRANCH  46  49
ENDBRANCH  44  45
BRANCH  44  83
HETATM   83  C   UNK N   1      25.437   8.754   5.687  0.00  0.00     0.013 C 
HETATM   84  C   UNK N   1      24.137   9.074   4.976  0.00  0.00     0.012 C 
BRANCH  83  85
HETATM   85  C   UNK N   1      25.188   7.573   6.619  0.00  0.00     0.002 C 
HETATM   86  C   UNK N   1      23.782   7.642   7.187  0.00  0.00     0.005 C 
ENDBRANCH  83  85
ENDBRANCH  44  83
ENDBRANCH  41  44
ENDBRANCH   1  40
BRANCH   4  87
HETATM   87  C   UNK N   1      31.197  10.218   0.851  0.00  0.00     0.036 C 
BRANCH  87  88
HETATM   88  C   UNK N   1      32.659  10.149   1.241  0.00  0.00     0.021 C 
BRANCH  88  89
HETATM   89  C   UNK N   1      32.851   9.284   2.470  0.00  0.00     0.111 C 
BRANCH  89  90
HETATM   90  N   UNK N   1      33.745   8.182   2.159  0.00  0.00    -0.430 N 
HETATM   91  H   UNK N   1      33.882   7.688   1.277  0.00  0.00     0.149 HD
HETATM   92  H   UNK N   1      34.319   7.854   2.936  0.00  0.00     0.149 HD
ENDBRANCH  89  90
ENDBRANCH  88  89
ENDBRANCH  87  88
ENDBRANCH   4  87
BRANCH  10  93
HETATM   93  C   UNK N   1      31.892  12.516   3.979  0.00  0.00     0.013 C 
HETATM   94  C   UNK N   1      32.118  12.457   5.483  0.00  0.00     0.012 C 
BRANCH  93  95
HETATM   95  C   UNK N   1      33.154  13.011   3.289  0.00  0.00     0.002 C 
HETATM   96  C   UNK N   1      33.624  14.307   3.923  0.00  0.00     0.005 C 
ENDBRANCH  93  95
ENDBRANCH  10  93
BRANCH  27  97
HETATM   97  C   UNK N   1      20.959  13.917   1.008  0.00  0.00     0.137 C 
BRANCH  97  98
HETATM   98  C   UNK N   1      19.929  14.939   1.376  0.00  0.00     0.217 C 
HETATM   99  O   UNK N   1      18.890  14.580   1.904  0.00  0.00    -0.274 OA
HETATM  100  N   UNK N   1      20.135  16.245   1.121  0.00  0.00    -0.370 N 
HETATM  101  H   UNK N   1      20.896  16.764   0.772  0.00  0.00     0.159 HD
HETATM  102  H   UNK N   1      19.353  16.805   1.331  0.00  0.00     0.159 HD
ENDBRANCH  97  98
ENDBRANCH  27  97
BRANCH  14 103
HETATM  103  C   UNK N   1      29.146  16.336   5.900  0.00  0.00     0.073 C 
BRANCH 103 104
HETATM  104  C   UNK N   1      30.613  16.577   6.050  0.00  0.00    -0.056 A 
HETATM  105  C   UNK N   1      31.292  17.333   5.091  0.00  0.00     0.007 A 
HETATM  106  C   UNK N   1      32.665  17.564   5.229  0.00  0.00     0.001 A 
HETATM  107  C   UNK N   1      33.361  17.029   6.318  0.00  0.00     0.000 A 
HETATM  108  C   UNK N   1      32.684  16.274   7.279  0.00  0.00     0.001 A 
HETATM  109  C   UNK N   1      31.312  16.057   7.150  0.00  0.00     0.007 A 
ENDBRANCH 103 104
ENDBRANCH  14 103
BRANCH  22 110
HETATM  110  C   UNK N   1      24.485  13.615   2.605  0.00  0.00     0.144 C 
BRANCH 110 111
HETATM  111  C   UNK N   1      24.893  12.914   3.870  0.00  0.00     0.141 C 
HETATM  112  O   UNK N   1      24.056  12.378   4.577  0.00  0.00    -0.650 OA
BRANCH 111 113
HETATM  113  O   UNK N   1      26.195  12.812   4.184  0.00  0.00    -0.776 OA
HETATM  114  H   UNK N   1      26.824  12.601   3.522  0.00  0.00     0.167 HD
ENDBRANCH 111 113
ENDBRANCH 110 111
ENDBRANCH  22 110
BRANCH  18 115
HETATM  115  C   UNK N   1      25.913  18.519   4.041  0.00  0.00     0.093 C 
BRANCH 115 116
HETATM  116  C   UNK N   1      26.528  19.449   5.031  0.00  0.00     0.028 A 
HETATM  117  N   UNK N   1      26.990  19.057   6.226  0.00  0.00    -0.354 N 
HETATM  118  C   UNK N   1      27.437  20.185   6.813  0.00  0.00     0.180 A 
ATOM    119  HN  UNK N   1      27.001  18.111   6.607  1.00  0.00     0.166 HD
HETATM  120  N   UNK N   1      27.263  21.266   6.023  0.00  0.00    -0.360 N 
HETATM  121  C   UNK N   1      26.689  20.809   4.897  0.00  0.00     0.114 A 
HETATM  122  H   UNK N   1      27.505  22.197   6.229  0.00  0.00     0.166 HD
ENDBRANCH 115 116
ENDBRANCH  18 115
TORSDOF 35
ENDMDL
MODEL 9
REMARK VINA RESULT:      -6.6      3.302      7.362
REMARK WARNING: 32 MAX_TORS EXCEEDED!!!
REMARK  35 active torsions:
REMARK  status: ('A' for Active; 'I' for Inactive)
REMARK    1  A    between atoms: C_3  and  C_9 
REMARK    2  A    between atoms: C_6  and  C_7 
REMARK    3  A    between atoms: C_7  and  N_8 
REMARK    4  A    between atoms: C_7  and  C_26 
REMARK       I    between atoms: C_9  and  N_10 
REMARK    5  A    between atoms: N_10  and  C_11 
REMARK    6  A    between atoms: C_11  and  C_12 
REMARK    7  A    between atoms: C_11  and  C_36 
REMARK       I    between atoms: C_12  and  N_13 
REMARK    8  A    between atoms: N_13  and  C_14 
REMARK    9  A    between atoms: C_14  and  C_15 
REMARK   10  A    between atoms: C_14  and  C_40 
REMARK       I    between atoms: C_15  and  N_16 
REMARK   11  A    between atoms: C_17  and  N_16 
REMARK   12  A    between atoms: C_17  and  C_18 
REMARK   13  A    between atoms: C_17  and  C_45 
REMARK       I    between atoms: C_18  and  N_19 
REMARK   14  A    between atoms: N_19  and  C_20 
REMARK   15  A    between atoms: C_23  and  C_50 
REMARK   16  A    between atoms: C_26  and  C_28 
REMARK   17  A    between atoms: C_36  and  C_37 
REMARK   18  A    between atoms: C_40  and  C_41 
REMARK   19  A    between atoms: C_41  and  C_42 
REMARK   20  A    between atoms: C_42  and  O_43 
REMARK   21  A    between atoms: C_45  and  C_46 
REMARK   22  A    between atoms: C_50  and  C_68 
REMARK   23  A    between atoms: C_51  and  C_71 
REMARK   24  A    between atoms: C_55  and  C_75 
REMARK   25  A    between atoms: C_59  and  C_82 
REMARK   26  A    between atoms: C_63  and  C_98 
REMARK   27  A    between atoms: C_68  and  C_69 
REMARK   28  A    between atoms: C_69  and  N_70 
REMARK   29  A    between atoms: C_71  and  C_73 
REMARK   30  A    between atoms: C_75  and  C_76 
REMARK   31  A    between atoms: C_82  and  C_83 
REMARK   32  A    between atoms: C_89  and  C_93 
REMARK   33  A    between atoms: C_93  and  C_94 
REMARK       I    between atoms: C_94  and  N_96 
REMARK   34  A    between atoms: C_98  and  C_100 
REMARK   35  A    between atoms: C_100  and  O_102 
ROOT
HETATM    1  C   UNK N   1      26.662  10.167   2.014  0.00  0.00     0.176 C 
HETATM    2  C   UNK N   1      28.052  10.244   1.498  0.00  0.00     0.241 C 
HETATM    3  N   UNK N   1      29.006  10.589   2.391  0.00  0.00    -0.346 N 
HETATM    4  C   UNK N   1      30.252  11.238   2.060  0.00  0.00     0.176 C 
HETATM    5  C   UNK N   1      29.992  12.653   1.620  0.00  0.00     0.241 C 
HETATM    6  N   UNK N   1      30.156  13.699   2.467  0.00  0.00    -0.346 N 
HETATM    7  O   UNK N   1      28.276  10.245   0.297  0.00  0.00    -0.271 OA
HETATM    8  O   UNK N   1      29.611  12.869   0.480  0.00  0.00    -0.271 OA
HETATM    9  C   UNK N   1      25.824  11.387   1.665  0.00  0.00     0.035 C 
HETATM   10  C   UNK N   1      30.407  13.607   3.896  0.00  0.00     0.180 C 
HETATM   11  C   UNK N   1      29.128  13.269   4.632  0.00  0.00     0.241 C 
HETATM   12  O   UNK N   1      28.853  12.100   4.862  0.00  0.00    -0.271 OA
HETATM   13  N   UNK N   1      28.270  14.239   5.038  0.00  0.00    -0.346 N 
HETATM   14  C   UNK N   1      28.520  15.649   4.850  0.00  0.00     0.180 C 
HETATM   15  C   UNK N   1      28.234  16.284   3.511  0.00  0.00     0.241 C 
HETATM   16  N   UNK N   1      27.115  17.012   3.279  0.00  0.00    -0.346 N 
HETATM   17  O   UNK N   1      29.044  16.152   2.609  0.00  0.00    -0.271 OA
HETATM   18  C   UNK N   1      26.118  17.239   4.292  0.00  0.00     0.182 C 
HETATM   19  C   UNK N   1      25.046  16.217   4.172  0.00  0.00     0.241 C 
HETATM   20  N   UNK N   1      24.345  16.113   3.023  0.00  0.00    -0.346 N 
HETATM   21  O   UNK N   1      24.856  15.446   5.108  0.00  0.00    -0.271 OA
HETATM   22  C   UNK N   1      23.460  15.015   2.675  0.00  0.00     0.186 C 
HETATM   23  C   UNK N   1      22.221  14.862   3.555  0.00  0.00     0.241 C 
HETATM   24  N   UNK N   1      21.247  13.971   3.171  0.00  0.00    -0.346 N 
HETATM   25  O   UNK N   1      22.090  15.501   4.551  0.00  0.00    -0.271 OA
HETATM   26  C   UNK N   1      24.999  11.329   0.401  0.00  0.00     0.004 C 
HETATM   27  C   UNK N   1      21.326  13.228   1.945  0.00  0.00     0.185 C 
HETATM   28  C   UNK N   1      20.758  11.842   2.040  0.00  0.00     0.240 C 
HETATM   29  N   UNK N   1      21.565  10.757   1.972  0.00  0.00    -0.359 N 
HETATM   30  O   UNK N   1      19.551  11.684   2.162  0.00  0.00    -0.271 OA
HETATM   31  C   UNK N   1      23.517  11.605   0.684  0.00  0.00     0.020 C 
HETATM   32  C   UNK N   1      23.010  10.844   1.916  0.00  0.00     0.122 C 
HETATM   33  H   UNK N   1      28.840  10.382   3.339  0.00  0.00     0.163 HD
HETATM   34  H   UNK N   1      30.099  14.602   2.079  0.00  0.00     0.163 HD
HETATM   35  H   UNK N   1      27.435  13.967   5.485  0.00  0.00     0.163 HD
HETATM   36  H   UNK N   1      26.981  17.400   2.385  0.00  0.00     0.163 HD
HETATM   37  H   UNK N   1      24.442  16.842   2.368  0.00  0.00     0.163 HD
HETATM   38  H   UNK N   1      20.468  13.837   3.758  0.00  0.00     0.163 HD
HETATM   39  H   UNK N   1      21.150   9.865   1.959  0.00  0.00     0.162 HD
ENDROOT
BRANCH   1  40
HETATM   40  N   UNK N   1      25.980   8.887   2.088  0.00  0.00    -0.346 N 
HETATM   41  C   UNK N   1      25.725   8.180   3.215  0.00  0.00     0.241 C 
HETATM   42  O   UNK N   1      25.216   7.074   3.115  0.00  0.00    -0.271 OA
HETATM   43  H   UNK N   1      25.674   8.498   1.239  0.00  0.00     0.163 HD
BRANCH  41  44
HETATM   44  C   UNK N   1      26.062   8.728   4.582  0.00  0.00     0.180 C 
BRANCH  44  45
HETATM   45  N   UNK N   1      26.986   7.914   5.369  0.00  0.00    -0.346 N 
HETATM   46  C   UNK N   1      28.312   7.706   5.138  0.00  0.00     0.241 C 
HETATM   47  O   UNK N   1      28.865   8.165   4.153  0.00  0.00    -0.271 OA
HETATM   48  H   UNK N   1      26.605   7.463   6.158  0.00  0.00     0.163 HD
BRANCH  46  49
HETATM   49  C   UNK N   1      29.082   6.759   5.999  0.00  0.00     0.177 C 
BRANCH  49  50
HETATM   50  N   UNK N   1      30.407   7.297   6.069  0.00  0.00    -0.346 N 
HETATM   51  C   UNK N   1      30.948   7.404   7.304  0.00  0.00     0.241 C 
HETATM   52  O   UNK N   1      30.405   6.848   8.257  0.00  0.00    -0.271 OA
HETATM   53  H   UNK N   1      30.899   7.575   5.262  0.00  0.00     0.163 HD
BRANCH  51  54
HETATM   54  C   UNK N   1      32.177   8.194   7.551  0.00  0.00     0.177 C 
BRANCH  54  55
HETATM   55  N   UNK N   1      31.940   8.750   8.861  0.00  0.00    -0.346 N 
HETATM   56  C   UNK N   1      32.838   8.665   9.886  0.00  0.00     0.241 C 
HETATM   57  O   UNK N   1      33.587   7.707   9.999  0.00  0.00    -0.271 OA
HETATM   58  H   UNK N   1      31.088   9.216   9.024  0.00  0.00     0.163 HD
BRANCH  56  59
HETATM   59  C   UNK N   1      33.038   9.843  10.779  0.00  0.00     0.184 C 
HETATM   60  C   UNK N   1      34.451   9.839  11.384  0.00  0.00     0.115 C 
HETATM   61  S   UNK N   1      35.545  10.782  10.265  0.00  0.00    -0.112 SA
HETATM   62  C   UNK N   1      34.056  11.504   9.600  0.00  0.00     0.066 C 
HETATM   63  N   UNK N   1      32.953  10.971   9.940  0.00  0.00    -0.372 N 
ATOM     64  HN  UNK N   1      32.057  11.340   9.623  1.00  0.00     0.160 HD
BRANCH  62  65
HETATM   65  C   UNK N   1      34.060  12.456   8.465  0.00  0.00     0.135 C 
BRANCH  65  66
HETATM   66  N   UNK N   1      35.336  12.338   7.775  0.00  0.00    -0.420 N 
HETATM   67  H   UNK N   1      36.193  11.785   7.790  0.00  0.00     0.150 HD
HETATM   68  H   UNK N   1      35.391  13.036   7.035  0.00  0.00     0.150 HD
ENDBRANCH  65  66
BRANCH  65  69
HETATM   69  C   UNK N   1      33.919  13.842   9.119  0.00  0.00     0.010 C 
HETATM   70  C   UNK N   1      32.488  14.364   8.999  0.00  0.00     0.012 C 
BRANCH  69  71
HETATM   71  C   UNK N   1      34.908  14.877   8.632  0.00  0.00     0.002 C 
HETATM   72  C   UNK N   1      34.903  16.050   9.598  0.00  0.00     0.005 C 
ENDBRANCH  69  71
ENDBRANCH  65  69
ENDBRANCH  62  65
ENDBRANCH  56  59
ENDBRANCH  54  55
BRANCH  54  73
HETATM   73  C   UNK N   1      32.246   9.281   6.468  0.00  0.00     0.038 C 
BRANCH  73  74
HETATM   74  C   UNK N   1      33.625   9.633   5.976  0.00  0.00    -0.020 C 
HETATM   75  C   UNK N   1      34.564   8.564   6.498  0.00  0.00     0.009 C 
HETATM   76  C   UNK N   1      33.629   9.568   4.464  0.00  0.00     0.009 C 
ENDBRANCH  73  74
ENDBRANCH  54  73
ENDBRANCH  51  54
ENDBRANCH  49  50
BRANCH  49  77
HETATM   77  C   UNK N   1      29.052   5.291   5.597  0.00  0.00     0.045 C 
BRANCH  77  78
HETATM   78  C   UNK N   1      27.876   4.546   6.251  0.00  0.00     0.112 C 
BRANCH  78  79
HETATM   79  C   UNK N   1      27.566   5.012   7.649  0.00  0.00     0.139 C 
HETATM   80  O   UNK N   1      26.589   5.714   7.853  0.00  0.00    -0.650 OA
BRANCH  79  81
HETATM   81  O   UNK N   1      28.370   4.674   8.674  0.00  0.00    -0.776 OA
HETATM   82  H   UNK N   1      28.109   4.664   9.574  0.00  0.00     0.167 HD
ENDBRANCH  79  81
ENDBRANCH  78  79
ENDBRANCH  77  78
ENDBRANCH  49  77
ENDBRANCH  46  49
ENDBRANCH  44  45
BRANCH  44  83
HETATM   83  C   UNK N   1      24.810   9.057   5.413  0.00  0.00     0.013 C 
HETATM   84  C   UNK N   1      24.477   7.882   6.312  0.00  0.00     0.012 C 
BRANCH  83  85
HETATM   85  C   UNK N   1      24.974  10.292   6.291  0.00  0.00     0.002 C 
HETATM   86  C   UNK N   1      23.837  10.377   7.294  0.00  0.00     0.005 C 
ENDBRANCH  83  85
ENDBRANCH  44  83
ENDBRANCH  41  44
ENDBRANCH   1  40
BRANCH   4  87
HETATM   87  C   UNK N   1      31.124  10.490   1.060  0.00  0.00     0.036 C 
BRANCH  87  88
HETATM   88  C   UNK N   1      32.209  11.390   0.505  0.00  0.00     0.021 C 
BRANCH  88  89
HETATM   89  C   UNK N   1      32.263  11.305  -1.006  0.00  0.00     0.111 C 
BRANCH  89  90
HETATM   90  N   UNK N   1      30.935  11.044  -1.531  0.00  0.00    -0.430 N 
HETATM   91  H   UNK N   1      30.350  10.214  -1.430  0.00  0.00     0.149 HD
HETATM   92  H   UNK N   1      30.526  11.801  -2.080  0.00  0.00     0.149 HD
ENDBRANCH  89  90
ENDBRANCH  88  89
ENDBRANCH  87  88
ENDBRANCH   4  87
BRANCH  10  93
HETATM   93  C   UNK N   1      31.607  12.725   4.273  0.00  0.00     0.013 C 
HETATM   94  C   UNK N   1      31.865  12.782   5.772  0.00  0.00     0.012 C 
BRANCH  93  95
HETATM   95  C   UNK N   1      32.861  13.143   3.519  0.00  0.00     0.002 C 
HETATM   96  C   UNK N   1      33.976  13.464   4.497  0.00  0.00     0.005 C 
ENDBRANCH  93  95
ENDBRANCH  10  93
BRANCH  27  97
HETATM   97  C   UNK N   1      20.833  14.027   0.732  0.00  0.00     0.137 C 
BRANCH  97  98
HETATM   98  C   UNK N   1      19.619  14.856   1.016  0.00  0.00     0.217 C 
HETATM   99  O   UNK N   1      19.754  15.995   1.431  0.00  0.00    -0.274 OA
HETATM  100  N   UNK N   1      18.384  14.353   0.828  0.00  0.00    -0.370 N 
HETATM  101  H   UNK N   1      18.036  13.510   0.455  0.00  0.00     0.159 HD
HETATM  102  H   UNK N   1      17.672  14.961   1.129  0.00  0.00     0.159 HD
ENDBRANCH  97  98
ENDBRANCH  27  97
BRANCH  14 103
HETATM  103  C   UNK N   1      28.697  16.456   6.124  0.00  0.00     0.073 C 
BRANCH 103 104
HETATM  104  C   UNK N   1      30.143  16.769   6.327  0.00  0.00    -0.056 A 
HETATM  105  C   UNK N   1      30.575  17.289   7.551  0.00  0.00     0.007 A 
HETATM  106  C   UNK N   1      31.928  17.581   7.746  0.00  0.00     0.001 A 
HETATM  107  C   UNK N   1      32.850  17.364   6.716  0.00  0.00     0.000 A 
HETATM  108  C   UNK N   1      32.421  16.843   5.492  0.00  0.00     0.001 A 
HETATM  109  C   UNK N   1      31.074  16.538   5.302  0.00  0.00     0.007 A 
ENDBRANCH 103 104
ENDBRANCH  14 103
BRANCH  22 110
HETATM  110  C   UNK N   1      24.270  13.742   2.516  0.00  0.00     0.144 C 
BRANCH 110 111
HETATM  111  C   UNK N   1      24.599  13.005   3.783  0.00  0.00     0.141 C 
HETATM  112  O   UNK N   1      23.727  12.414   4.399  0.00  0.00    -0.650 OA
BRANCH 111 113
HETATM  113  O   UNK N   1      25.875  12.933   4.199  0.00  0.00    -0.776 OA
HETATM  114  H   UNK N   1      26.255  13.645   4.674  0.00  0.00     0.167 HD
ENDBRANCH 111 113
ENDBRANCH 110 111
ENDBRANCH  22 110
BRANCH  18 115
HETATM  115  C   UNK N   1      25.535  18.632   4.139  0.00  0.00     0.093 C 
BRANCH 115 116
HETATM  116  C   UNK N   1      26.260  19.605   5.006  0.00  0.00     0.028 A 
HETATM  117  N   UNK N   1      25.859  19.935   6.241  0.00  0.00    -0.354 N 
HETATM  118  C   UNK N   1      26.760  20.843   6.667  0.00  0.00     0.180 A 
ATOM    119  HN  UNK N   1      25.050  19.577   6.747  1.00  0.00     0.166 HD
HETATM  120  N   UNK N   1      27.704  21.090   5.734  0.00  0.00    -0.360 N 
HETATM  121  C   UNK N   1      27.395  20.313   4.683  0.00  0.00     0.114 A 
HETATM  122  H   UNK N   1      28.463  21.714   5.808  0.00  0.00     0.166 HD
ENDBRANCH 115 116
ENDBRANCH  18 115
TORSDOF 35
ENDMDL
