MODEL 1
REMARK VINA RESULT:      -4.3      0.000      0.000
REMARK  6 active torsions:
REMARK  status: ('A' for Active; 'I' for Inactive)
REMARK    1  A    between atoms: C_2  and  C_3 
REMARK    2  A    between atoms: C_3  and  C_4 
REMARK    3  A    between atoms: C_4  and  C_8 
REMARK    4  A    between atoms: C_4  and  C_5 
REMARK    5  A    between atoms: C_5  and  O_9 
REMARK    6  A    between atoms: C_6  and  C_8 
ROOT
HETATM    1  C   UNK N   1      35.632  12.780  15.883  0.00  0.00     0.083 C 
ENDROOT
BRANCH   1   2
HETATM    2  C   UNK N   1      34.701  13.398  16.948  0.00  0.00     0.015 C 
BRANCH   2   3
HETATM    3  C   UNK N   1      35.326  13.820  18.264  0.00  0.00    -0.004 C 
HETATM    4  C   UNK N   1      35.248  12.667  19.246  0.00  0.00     0.005 C 
ENDBRANCH   2   3
ENDBRANCH   1   2
BRANCH   1   5
HETATM    5  C   UNK N   1      35.885  11.288  15.576  0.00  0.00     0.015 C 
BRANCH   5   6
HETATM    6  C   UNK N   1      34.701  10.345  15.674  0.00  0.00    -0.004 C 
HETATM    7  C   UNK N   1      33.670  10.724  14.629  0.00  0.00     0.005 C 
ENDBRANCH   5   6
ENDBRANCH   1   5
BRANCH   1   8
HETATM    8  C   UNK N   1      36.398  13.756  15.030  0.00  0.00     0.143 C 
HETATM    9  O   UNK N   1      35.975  14.078  13.930  0.00  0.00    -0.650 OA
BRANCH   8  10
HETATM   10  O   UNK N   1      37.556  14.284  15.473  0.00  0.00    -0.776 OA
HETATM   11  H   UNK N   1      37.609  15.197  15.673  0.00  0.00     0.167 HD
ENDBRANCH   8  10
ENDBRANCH   1   8
TORSDOF 6
ENDMDL
MODEL 2
REMARK VINA RESULT:      -4.2      0.258      3.285
REMARK  6 active torsions:
REMARK  status: ('A' for Active; 'I' for Inactive)
REMARK    1  A    between atoms: C_2  and  C_3 
REMARK    2  A    between atoms: C_3  and  C_4 
REMARK    3  A    between atoms: C_4  and  C_8 
REMARK    4  A    between atoms: C_4  and  C_5 
REMARK    5  A    between atoms: C_5  and  O_9 
REMARK    6  A    between atoms: C_6  and  C_8 
ROOT
HETATM    1  C   UNK N   1      35.700  12.660  15.945  0.00  0.00     0.083 C 
ENDROOT
BRANCH   1   2
HETATM    2  C   UNK N   1      35.889  11.133  15.810  0.00  0.00     0.015 C 
BRANCH   2   3
HETATM    3  C   UNK N   1      34.639  10.275  15.776  0.00  0.00    -0.004 C 
HETATM    4  C   UNK N   1      33.739  10.746  14.650  0.00  0.00     0.005 C 
ENDBRANCH   2   3
ENDBRANCH   1   2
BRANCH   1   5
HETATM    5  C   UNK N   1      34.773  13.433  16.907  0.00  0.00     0.015 C 
BRANCH   5   6
HETATM    6  C   UNK N   1      35.324  13.788  18.275  0.00  0.00    -0.004 C 
HETATM    7  C   UNK N   1      35.250  12.572  19.176  0.00  0.00     0.005 C 
ENDBRANCH   5   6
ENDBRANCH   1   5
BRANCH   1   8
HETATM    8  C   UNK N   1      36.528  13.511  15.019  0.00  0.00     0.143 C 
HETATM    9  O   UNK N   1      36.303  13.515  13.818  0.00  0.00    -0.650 OA
BRANCH   8  10
HETATM   10  O   UNK N   1      37.525  14.275  15.506  0.00  0.00    -0.776 OA
HETATM   11  H   UNK N   1      37.471  14.616  16.377  0.00  0.00     0.167 HD
ENDBRANCH   8  10
ENDBRANCH   1   8
TORSDOF 6
ENDMDL
MODEL 3
REMARK VINA RESULT:      -4.1      9.274     10.806
REMARK  6 active torsions:
REMARK  status: ('A' for Active; 'I' for Inactive)
REMARK    1  A    between atoms: C_2  and  C_3 
REMARK    2  A    between atoms: C_3  and  C_4 
REMARK    3  A    between atoms: C_4  and  C_8 
REMARK    4  A    between atoms: C_4  and  C_5 
REMARK    5  A    between atoms: C_5  and  O_9 
REMARK    6  A    between atoms: C_6  and  C_8 
ROOT
HETATM    1  C   UNK N   1      33.431  17.509   7.729  0.00  0.00     0.083 C 
ENDROOT
BRANCH   1   2
HETATM    2  C   UNK N   1      33.769  17.591   6.225  0.00  0.00     0.015 C 
BRANCH   2   3
HETATM    3  C   UNK N   1      32.930  16.759   5.274  0.00  0.00    -0.004 C 
HETATM    4  C   UNK N   1      32.264  17.674   4.264  0.00  0.00     0.005 C 
ENDBRANCH   2   3
ENDBRANCH   1   2
BRANCH   1   5
HETATM    5  C   UNK N   1      32.152  16.965   8.399  0.00  0.00     0.015 C 
BRANCH   5   6
HETATM    6  C   UNK N   1      30.974  17.912   8.529  0.00  0.00    -0.004 C 
HETATM    7  C   UNK N   1      29.919  17.543   7.505  0.00  0.00     0.005 C 
ENDBRANCH   5   6
ENDBRANCH   1   5
BRANCH   1   8
HETATM    8  C   UNK N   1      34.486  18.028   8.671  0.00  0.00     0.143 C 
HETATM    9  O   UNK N   1      35.164  18.997   8.364  0.00  0.00    -0.650 OA
BRANCH   8  10
HETATM   10  O   UNK N   1      34.691  17.428   9.859  0.00  0.00    -0.776 OA
HETATM   11  H   UNK N   1      34.447  16.532   9.980  0.00  0.00     0.167 HD
ENDBRANCH   8  10
ENDBRANCH   1   8
TORSDOF 6
ENDMDL
MODEL 4
REMARK VINA RESULT:      -4.1     26.476     27.863
REMARK  6 active torsions:
REMARK  status: ('A' for Active; 'I' for Inactive)
REMARK    1  A    between atoms: C_2  and  C_3 
REMARK    2  A    between atoms: C_3  and  C_4 
REMARK    3  A    between atoms: C_4  and  C_8 
REMARK    4  A    between atoms: C_4  and  C_5 
REMARK    5  A    between atoms: C_5  and  O_9 
REMARK    6  A    between atoms: C_6  and  C_8 
ROOT
HETATM    1  C   UNK N   1      26.271  27.929  -5.108  0.00  0.00     0.083 C 
ENDROOT
BRANCH   1   2
HETATM    2  C   UNK N   1      25.160  27.151  -5.847  0.00  0.00     0.015 C 
BRANCH   2   3
HETATM    3  C   UNK N   1      25.468  25.727  -6.270  0.00  0.00    -0.004 C 
HETATM    4  C   UNK N   1      25.775  24.895  -5.040  0.00  0.00     0.005 C 
ENDBRANCH   2   3
ENDBRANCH   1   2
BRANCH   1   5
HETATM    5  C   UNK N   1      27.733  28.164  -5.543  0.00  0.00     0.015 C 
BRANCH   5   6
HETATM    6  C   UNK N   1      27.964  28.921  -6.837  0.00  0.00    -0.004 C 
HETATM    7  C   UNK N   1      28.263  27.934  -7.948  0.00  0.00     0.005 C 
ENDBRANCH   5   6
ENDBRANCH   1   5
BRANCH   1   8
HETATM    8  C   UNK N   1      25.880  28.542  -3.789  0.00  0.00     0.143 C 
HETATM    9  O   UNK N   1      25.485  27.836  -2.873  0.00  0.00    -0.650 OA
BRANCH   8  10
HETATM   10  O   UNK N   1      25.962  29.874  -3.608  0.00  0.00    -0.776 OA
HETATM   11  H   UNK N   1      26.799  30.294  -3.584  0.00  0.00     0.167 HD
ENDBRANCH   8  10
ENDBRANCH   1   8
TORSDOF 6
ENDMDL
MODEL 5
REMARK VINA RESULT:      -4.1      8.288      9.660
REMARK  6 active torsions:
REMARK  status: ('A' for Active; 'I' for Inactive)
REMARK    1  A    between atoms: C_2  and  C_3 
REMARK    2  A    between atoms: C_3  and  C_4 
REMARK    3  A    between atoms: C_4  and  C_8 
REMARK    4  A    between atoms: C_4  and  C_5 
REMARK    5  A    between atoms: C_5  and  O_9 
REMARK    6  A    between atoms: C_6  and  C_8 
ROOT
HETATM    1  C   UNK N   1      33.474  17.397   8.677  0.00  0.00     0.083 C 
ENDROOT
BRANCH   1   2
HETATM    2  C   UNK N   1      31.982  17.765   8.524  0.00  0.00     0.015 C 
BRANCH   2   3
HETATM    3  C   UNK N   1      31.083  16.764   7.823  0.00  0.00    -0.004 C 
HETATM    4  C   UNK N   1      31.130  17.011   6.328  0.00  0.00     0.005 C 
ENDBRANCH   2   3
ENDBRANCH   1   2
BRANCH   1   5
HETATM    5  C   UNK N   1      34.107  16.291   9.548  0.00  0.00     0.015 C 
BRANCH   5   6
HETATM    6  C   UNK N   1      34.953  15.246   8.844  0.00  0.00    -0.004 C 
HETATM    7  C   UNK N   1      34.095  14.499   7.843  0.00  0.00     0.005 C 
ENDBRANCH   5   6
ENDBRANCH   1   5
BRANCH   1   8
HETATM    8  C   UNK N   1      34.442  18.223   7.872  0.00  0.00     0.143 C 
HETATM    9  O   UNK N   1      34.522  18.074   6.661  0.00  0.00    -0.650 OA
BRANCH   8  10
HETATM   10  O   UNK N   1      35.228  19.132   8.479  0.00  0.00    -0.776 OA
HETATM   11  H   UNK N   1      34.856  19.747   9.080  0.00  0.00     0.167 HD
ENDBRANCH   8  10
ENDBRANCH   1   8
TORSDOF 6
ENDMDL
MODEL 6
REMARK VINA RESULT:      -4.0     20.935     22.140
REMARK  6 active torsions:
REMARK  status: ('A' for Active; 'I' for Inactive)
REMARK    1  A    between atoms: C_2  and  C_3 
REMARK    2  A    between atoms: C_3  and  C_4 
REMARK    3  A    between atoms: C_4  and  C_8 
REMARK    4  A    between atoms: C_4  and  C_5 
REMARK    5  A    between atoms: C_5  and  O_9 
REMARK    6  A    between atoms: C_6  and  C_8 
ROOT
HETATM    1  C   UNK N   1      31.512  21.583  -3.110  0.00  0.00     0.083 C 
ENDROOT
BRANCH   1   2
HETATM    2  C   UNK N   1      32.953  21.225  -2.688  0.00  0.00     0.015 C 
BRANCH   2   3
HETATM    3  C   UNK N   1      33.958  20.953  -3.792  0.00  0.00    -0.004 C 
HETATM    4  C   UNK N   1      34.059  19.457  -4.018  0.00  0.00     0.005 C 
ENDBRANCH   2   3
ENDBRANCH   1   2
BRANCH   1   5
HETATM    5  C   UNK N   1      30.526  20.756  -3.964  0.00  0.00     0.015 C 
BRANCH   5   6
HETATM    6  C   UNK N   1      30.370  21.144  -5.422  0.00  0.00    -0.004 C 
HETATM    7  C   UNK N   1      30.971  20.061  -6.295  0.00  0.00     0.005 C 
ENDBRANCH   5   6
ENDBRANCH   1   5
BRANCH   1   8
HETATM    8  C   UNK N   1      30.995  22.913  -2.628  0.00  0.00     0.143 C 
HETATM    9  O   UNK N   1      31.090  23.905  -3.335  0.00  0.00    -0.650 OA
BRANCH   8  10
HETATM   10  O   UNK N   1      30.422  23.019  -1.414  0.00  0.00    -0.776 OA
HETATM   11  H   UNK N   1      29.496  23.130  -1.340  0.00  0.00     0.167 HD
ENDBRANCH   8  10
ENDBRANCH   1   8
TORSDOF 6
ENDMDL
MODEL 7
REMARK VINA RESULT:      -4.0      2.379      3.449
REMARK  6 active torsions:
REMARK  status: ('A' for Active; 'I' for Inactive)
REMARK    1  A    between atoms: C_2  and  C_3 
REMARK    2  A    between atoms: C_3  and  C_4 
REMARK    3  A    between atoms: C_4  and  C_8 
REMARK    4  A    between atoms: C_4  and  C_5 
REMARK    5  A    between atoms: C_5  and  O_9 
REMARK    6  A    between atoms: C_6  and  C_8 
ROOT
HETATM    1  C   UNK N   1      35.108  12.503  17.667  0.00  0.00     0.083 C 
ENDROOT
BRANCH   1   2
HETATM    2  C   UNK N   1      34.716  13.123  16.308  0.00  0.00     0.015 C 
BRANCH   2   3
HETATM    3  C   UNK N   1      35.741  13.063  15.191  0.00  0.00    -0.004 C 
HETATM    4  C   UNK N   1      36.837  14.074  15.463  0.00  0.00     0.005 C 
ENDBRANCH   2   3
ENDBRANCH   1   2
BRANCH   1   5
HETATM    5  C   UNK N   1      35.373  11.021  18.007  0.00  0.00     0.015 C 
BRANCH   5   6
HETATM    6  C   UNK N   1      36.388  10.280  17.158  0.00  0.00    -0.004 C 
HETATM    7  C   UNK N   1      35.662   9.337  16.219  0.00  0.00     0.005 C 
ENDBRANCH   5   6
ENDBRANCH   1   5
BRANCH   1   8
HETATM    8  C   UNK N   1      35.251  13.468  18.814  0.00  0.00     0.143 C 
HETATM    9  O   UNK N   1      35.309  14.671  18.605  0.00  0.00    -0.650 OA
BRANCH   8  10
HETATM   10  O   UNK N   1      35.317  13.014  20.080  0.00  0.00    -0.776 OA
HETATM   11  H   UNK N   1      35.535  12.119  20.246  0.00  0.00     0.167 HD
ENDBRANCH   8  10
ENDBRANCH   1   8
TORSDOF 6
ENDMDL
MODEL 8
REMARK VINA RESULT:      -3.9      1.540      3.374
REMARK  6 active torsions:
REMARK  status: ('A' for Active; 'I' for Inactive)
REMARK    1  A    between atoms: C_2  and  C_3 
REMARK    2  A    between atoms: C_3  and  C_4 
REMARK    3  A    between atoms: C_4  and  C_8 
REMARK    4  A    between atoms: C_4  and  C_5 
REMARK    5  A    between atoms: C_5  and  O_9 
REMARK    6  A    between atoms: C_6  and  C_8 
ROOT
HETATM    1  C   UNK N   1      36.023  13.012  15.075  0.00  0.00     0.083 C 
ENDROOT
BRANCH   1   2
HETATM    2  C   UNK N   1      36.483  11.830  14.193  0.00  0.00     0.015 C 
BRANCH   2   3
HETATM    3  C   UNK N   1      37.690  11.039  14.659  0.00  0.00    -0.004 C 
HETATM    4  C   UNK N   1      37.245   9.987  15.656  0.00  0.00     0.005 C 
ENDBRANCH   2   3
ENDBRANCH   1   2
BRANCH   1   5
HETATM    5  C   UNK N   1      34.875  13.053  16.105  0.00  0.00     0.015 C 
BRANCH   5   6
HETATM    6  C   UNK N   1      35.164  12.521  17.496  0.00  0.00    -0.004 C 
HETATM    7  C   UNK N   1      35.206  13.677  18.475  0.00  0.00     0.005 C 
ENDBRANCH   5   6
ENDBRANCH   1   5
BRANCH   1   8
HETATM    8  C   UNK N   1      36.794  14.295  14.911  0.00  0.00     0.143 C 
HETATM    9  O   UNK N   1      37.451  14.743  15.839  0.00  0.00    -0.650 OA
BRANCH   8  10
HETATM   10  O   UNK N   1      36.766  14.960  13.741  0.00  0.00    -0.776 OA
HETATM   11  H   UNK N   1      37.567  15.201  13.319  0.00  0.00     0.167 HD
ENDBRANCH   8  10
ENDBRANCH   1   8
TORSDOF 6
ENDMDL
MODEL 9
REMARK VINA RESULT:      -3.9      8.233      9.620
REMARK  6 active torsions:
REMARK  status: ('A' for Active; 'I' for Inactive)
REMARK    1  A    between atoms: C_2  and  C_3 
REMARK    2  A    between atoms: C_3  and  C_4 
REMARK    3  A    between atoms: C_4  and  C_8 
REMARK    4  A    between atoms: C_4  and  C_5 
REMARK    5  A    between atoms: C_5  and  O_9 
REMARK    6  A    between atoms: C_6  and  C_8 
ROOT
HETATM    1  C   UNK N   1      33.091  17.258   8.295  0.00  0.00     0.083 C 
ENDROOT
BRANCH   1   2
HETATM    2  C   UNK N   1      31.645  17.641   7.915  0.00  0.00     0.015 C 
BRANCH   2   3
HETATM    3  C   UNK N   1      30.812  18.353   8.964  0.00  0.00    -0.004 C 
HETATM    4  C   UNK N   1      29.372  18.428   8.493  0.00  0.00     0.005 C 
ENDBRANCH   2   3
ENDBRANCH   1   2
BRANCH   1   5
HETATM    5  C   UNK N   1      33.572  16.144   9.249  0.00  0.00     0.015 C 
BRANCH   5   6
HETATM    6  C   UNK N   1      35.066  16.020   9.482  0.00  0.00    -0.004 C 
HETATM    7  C   UNK N   1      35.402  16.542  10.865  0.00  0.00     0.005 C 
ENDBRANCH   5   6
ENDBRANCH   1   5
BRANCH   1   8
HETATM    8  C   UNK N   1      34.180  18.076   7.652  0.00  0.00     0.143 C 
HETATM    9  O   UNK N   1      34.528  17.846   6.503  0.00  0.00    -0.650 OA
BRANCH   8  10
HETATM   10  O   UNK N   1      34.781  19.067   8.338  0.00  0.00    -0.776 OA
HETATM   11  H   UNK N   1      34.756  19.071   9.274  0.00  0.00     0.167 HD
ENDBRANCH   8  10
ENDBRANCH   1   8
TORSDOF 6
ENDMDL
