MODEL 1
REMARK VINA RESULT:      -7.0      0.000      0.000
REMARK  18 active torsions:
REMARK  status: ('A' for Active; 'I' for Inactive)
REMARK    1  A    between atoms: C_1  and  O_13 
REMARK    2  A    between atoms: C_4  and  O_16 
REMARK    3  A    between atoms: C_11  and  O_37 
REMARK    4  A    between atoms: C_12  and  C_49 
REMARK    5  A    between atoms: C_15  and  O_13 
REMARK    6  A    between atoms: C_20  and  O_16 
REMARK    7  A    between atoms: C_17  and  O_23 
REMARK    8  A    between atoms: C_22  and  N_31 
REMARK    9  A    between atoms: N_25  and  O_42 
REMARK   10  A    between atoms: C_38  and  O_40 
REMARK   11  A    between atoms: C_41  and  O_51 
REMARK   12  A    between atoms: O_42  and  C_43 
REMARK   13  A    between atoms: C_43  and  O_44 
REMARK   14  A    between atoms: O_44  and  C_45 
REMARK   15  A    between atoms: C_45  and  C_46 
REMARK   16  A    between atoms: C_46  and  O_47 
REMARK   17  A    between atoms: C_54  and  O_56 
REMARK   18  A    between atoms: C_55  and  O_57 
ROOT
HETATM    1  C   UNK N   1      28.242  16.479   5.929  0.00  0.00     0.165 C 
HETATM    2  C   UNK N   1      28.021  15.434   4.797  0.00  0.00     0.043 C 
HETATM    3  C   UNK N   1      30.758  15.765   6.299  0.00  0.00     0.050 C 
HETATM    4  C   UNK N   1      26.613  14.771   4.809  0.00  0.00     0.144 C 
HETATM    5  C   UNK N   1      31.321  15.589   4.876  0.00  0.00     0.033 C 
HETATM    6  C   UNK N   1      26.447  13.595   3.809  0.00  0.00     0.111 C 
HETATM    7  C   UNK N   1      32.500  14.631   4.875  0.00  0.00     0.020 C 
HETATM    8  C   UNK N   1      27.498  12.524   3.903  0.00  0.00     0.265 C 
HETATM    9  C   UNK N   1      32.283  13.185   4.471  0.00  0.00     0.061 C 
HETATM   10  O   UNK N   1      28.308  12.315   2.831  0.00  0.00    -0.312 OA
HETATM   11  C   UNK N   1      30.847  12.885   3.991  0.00  0.00     0.164 C 
HETATM   12  C   UNK N   1      29.290  11.357   2.652  0.00  0.00     0.168 C 
HETATM   13  C   UNK N   1      28.459  15.926   3.424  0.00  0.00     0.015 C 
HETATM   14  C   UNK N   1      31.583  16.848   4.056  0.00  0.00     0.016 C 
HETATM   15  C   UNK N   1      26.315  14.093   2.373  0.00  0.00     0.023 C 
HETATM   16  N   UNK N   1      33.714  14.993   5.186  0.00  0.00    -0.272 N 
ATOM     17  HN  UNK N   1      34.433  14.270   5.164  1.00  0.00     0.193 HD
HETATM   18  O   UNK N   1      27.611  11.860   4.923  0.00  0.00    -0.265 OA
HETATM   19  C   UNK N   1      32.691  12.270   5.619  0.00  0.00     0.019 C 
HETATM   20  C   UNK N   1      30.573  11.440   3.512  0.00  0.00     0.107 C 
HETATM   21  C   UNK N   1      29.643  16.795   6.521  0.00  0.00     0.081 C 
HETATM   22  C   UNK N   1      31.713  10.952   2.627  0.00  0.00     0.051 C 
HETATM   23  C   UNK N   1      29.457  16.891   8.022  0.00  0.00     0.049 C 
ENDROOT
BRANCH   1  24
HETATM   24  O   UNK N   1      27.358  17.590   6.023  0.00  0.00    -0.350 OA
BRANCH  24  25
HETATM   25  C   UNK N   1      28.003  18.802   5.685  0.00  0.00     0.291 C 
HETATM   26  C   UNK N   1      27.525  19.327   4.328  0.00  0.00     0.206 C 
HETATM   27  C   UNK N   1      26.136  20.002   4.404  0.00  0.00     0.257 C 
HETATM   28  C   UNK N   1      25.624  20.059   5.843  0.00  0.00     0.070 C 
HETATM   29  C   UNK N   1      26.735  20.515   6.790  0.00  0.00     0.122 C 
HETATM   30  O   UNK N   1      27.953  19.780   6.719  0.00  0.00    -0.354 OA
HETATM   31  C   UNK N   1      27.010  21.999   6.638  0.00  0.00     0.040 C 
BRANCH  26  32
HETATM   32  O   UNK N   1      28.447  20.254   3.844  0.00  0.00    -0.388 OA
HETATM   33  H   UNK N   1      29.173  20.583   3.290  0.00  0.00     0.210 HD
ENDBRANCH  26  32
BRANCH  27  34
HETATM   34  N   UNK N   1      25.115  19.377   3.552  0.00  0.00     0.087 N 
HETATM   35  C   UNK N   1      24.737  20.359   2.547  0.00  0.00     0.310 C 
HETATM   36  C   UNK N   1      25.647  18.247   2.805  0.00  0.00     0.310 C 
ENDBRANCH  27  34
ENDBRANCH  24  25
ENDBRANCH   1  24
BRANCH  21  37
HETATM   37  O   UNK N   1      30.091  18.035   6.088  0.00  0.00    -0.388 OA
HETATM   38  H   UNK N   1      29.903  18.543   5.283  0.00  0.00     0.210 HD
ENDBRANCH  21  37
BRANCH   4  39
HETATM   39  O   UNK N   1      25.580  15.711   4.596  0.00  0.00    -0.355 OA
BRANCH  39  40
HETATM   40  C   UNK N   1      24.878  15.830   5.811  0.00  0.00     0.263 C 
HETATM   41  C   UNK N   1      24.107  14.545   6.200  0.00  0.00     0.101 C 
HETATM   42  C   UNK N   1      22.799  14.367   5.393  0.00  0.00     0.089 C 
HETATM   43  C   UNK N   1      22.021  15.693   5.388  0.00  0.00     0.181 C 
HETATM   44  C   UNK N   1      23.154  14.043   3.949  0.00  0.00     0.049 C 
HETATM   45  C   UNK N   1      22.970  16.811   4.928  0.00  0.00     0.152 C 
HETATM   46  O   UNK N   1      24.044  16.979   5.835  0.00  0.00    -0.354 OA
HETATM   47  C   UNK N   1      22.200  18.107   4.784  0.00  0.00     0.042 C 
BRANCH  42  48
HETATM   48  O   UNK N   1      21.997  13.282   5.839  0.00  0.00    -0.383 OA
HETATM   49  C   UNK N   1      22.619  12.574   6.882  0.00  0.00     0.202 C 
ENDBRANCH  42  48
BRANCH  43  50
HETATM   50  O   UNK N   1      21.519  15.993   6.659  0.00  0.00    -0.390 OA
HETATM   51  H   UNK N   1      21.368  16.678   7.330  0.00  0.00     0.210 HD
ENDBRANCH  43  50
ENDBRANCH  39  40
ENDBRANCH   4  39
BRANCH  16  52
HETATM   52  O   UNK N   1      34.098  16.213   5.529  0.00  0.00    -0.255 OA
BRANCH  52  53
HETATM   53  C   UNK N   1      34.406  16.604   6.815  0.00  0.00     0.369 C 
BRANCH  53  54
HETATM   54  O   UNK N   1      34.543  17.994   6.843  0.00  0.00    -0.363 OA
BRANCH  54  55
HETATM   55  C   UNK N   1      34.343  18.360   8.174  0.00  0.00     0.196 C 
BRANCH  55  56
HETATM   56  C   UNK N   1      34.610  17.169   9.078  0.00  0.00     0.193 C 
BRANCH  56  57
HETATM   57  O   UNK N   1      35.471  17.543  10.111  0.00  0.00    -0.394 OA
HETATM   58  C   UNK N   1      35.593  16.402  10.907  0.00  0.00     0.201 C 
ENDBRANCH  56  57
ENDBRANCH  55  56
ENDBRANCH  54  55
ENDBRANCH  53  54
ENDBRANCH  52  53
ENDBRANCH  16  52
BRANCH  11  59
HETATM   59  O   UNK N   1      29.953  13.199   5.016  0.00  0.00    -0.392 OA
HETATM   60  H   UNK N   1      28.997  13.165   5.176  0.00  0.00     0.210 HD
ENDBRANCH  11  59
BRANCH  12  61
HETATM   61  C   UNK N   1      28.758   9.967   2.294  0.00  0.00     0.031 C 
HETATM   62  C   UNK N   1      27.765  10.001   1.146  0.00  0.00     0.007 C 
ENDBRANCH  12  61
BRANCH  20  63
HETATM   63  O   UNK N   1      30.471  10.594   4.619  0.00  0.00    -0.385 OA
HETATM   64  H   UNK N   1      30.235   9.812   5.142  0.00  0.00     0.210 HD
ENDBRANCH  20  63
TORSDOF 18
ENDMDL
MODEL 2
REMARK VINA RESULT:      -6.8      4.354      9.713
REMARK  18 active torsions:
REMARK  status: ('A' for Active; 'I' for Inactive)
REMARK    1  A    between atoms: C_1  and  O_13 
REMARK    2  A    between atoms: C_4  and  O_16 
REMARK    3  A    between atoms: C_11  and  O_37 
REMARK    4  A    between atoms: C_12  and  C_49 
REMARK    5  A    between atoms: C_15  and  O_13 
REMARK    6  A    between atoms: C_20  and  O_16 
REMARK    7  A    between atoms: C_17  and  O_23 
REMARK    8  A    between atoms: C_22  and  N_31 
REMARK    9  A    between atoms: N_25  and  O_42 
REMARK   10  A    between atoms: C_38  and  O_40 
REMARK   11  A    between atoms: C_41  and  O_51 
REMARK   12  A    between atoms: O_42  and  C_43 
REMARK   13  A    between atoms: C_43  and  O_44 
REMARK   14  A    between atoms: O_44  and  C_45 
REMARK   15  A    between atoms: C_45  and  C_46 
REMARK   16  A    between atoms: C_46  and  O_47 
REMARK   17  A    between atoms: C_54  and  O_56 
REMARK   18  A    between atoms: C_55  and  O_57 
ROOT
HETATM    1  C   UNK N   1      24.354  13.174   3.810  0.00  0.00     0.165 C 
HETATM    2  C   UNK N   1      23.949  13.025   5.305  0.00  0.00     0.043 C 
HETATM    3  C   UNK N   1      23.279  15.578   3.604  0.00  0.00     0.050 C 
HETATM    4  C   UNK N   1      23.508  11.587   5.704  0.00  0.00     0.144 C 
HETATM    5  C   UNK N   1      23.690  16.296   4.904  0.00  0.00     0.033 C 
HETATM    6  C   UNK N   1      22.921  11.469   7.138  0.00  0.00     0.111 C 
HETATM    7  C   UNK N   1      22.707  17.404   5.244  0.00  0.00     0.020 C 
HETATM    8  C   UNK N   1      21.811  12.432   7.454  0.00  0.00     0.265 C 
HETATM    9  C   UNK N   1      21.622  17.146   6.273  0.00  0.00     0.061 C 
HETATM   10  O   UNK N   1      22.010  13.350   8.437  0.00  0.00    -0.312 OA
HETATM   11  C   UNK N   1      21.725  15.762   6.948  0.00  0.00     0.164 C 
HETATM   12  C   UNK N   1      21.129  14.284   8.951  0.00  0.00     0.168 C 
HETATM   13  C   UNK N   1      24.946  13.655   6.269  0.00  0.00     0.015 C 
HETATM   14  C   UNK N   1      25.144  16.732   5.044  0.00  0.00     0.016 C 
HETATM   15  C   UNK N   1      24.014  11.542   8.199  0.00  0.00     0.023 C 
HETATM   16  N   UNK N   1      22.759  18.592   4.708  0.00  0.00    -0.272 N 
ATOM     17  HN  UNK N   1      22.046  19.261   4.998  1.00  0.00     0.193 HD
HETATM   18  O   UNK N   1      20.757  12.380   6.838  0.00  0.00    -0.265 OA
HETATM   19  C   UNK N   1      20.255  17.356   5.633  0.00  0.00     0.019 C 
HETATM   20  C   UNK N   1      20.681  15.458   8.048  0.00  0.00     0.107 C 
HETATM   21  C   UNK N   1      24.220  14.512   3.030  0.00  0.00     0.081 C 
HETATM   22  C   UNK N   1      20.513  16.662   8.964  0.00  0.00     0.051 C 
HETATM   23  C   UNK N   1      23.663  14.153   1.667  0.00  0.00     0.049 C 
ENDROOT
BRANCH   1  24
HETATM   24  O   UNK N   1      25.399  12.357   3.295  0.00  0.00    -0.350 OA
BRANCH  24  25
HETATM   25  C   UNK N   1      26.612  12.557   3.993  0.00  0.00     0.291 C 
HETATM   26  C   UNK N   1      27.455  11.279   4.019  0.00  0.00     0.206 C 
HETATM   27  C   UNK N   1      28.184  11.015   2.682  0.00  0.00     0.257 C 
HETATM   28  C   UNK N   1      27.951  12.154   1.689  0.00  0.00     0.070 C 
HETATM   29  C   UNK N   1      28.114  13.508   2.379  0.00  0.00     0.122 C 
HETATM   30  O   UNK N   1      27.337  13.703   3.557  0.00  0.00    -0.354 OA
HETATM   31  C   UNK N   1      29.573  13.810   2.659  0.00  0.00     0.040 C 
BRANCH  26  32
HETATM   32  O   UNK N   1      28.406  11.378   5.035  0.00  0.00    -0.388 OA
HETATM   33  H   UNK N   1      29.075  11.062   5.663  0.00  0.00     0.210 HD
ENDBRANCH  26  32
BRANCH  27  34
HETATM   34  N   UNK N   1      27.831   9.739   2.045  0.00  0.00     0.087 N 
HETATM   35  C   UNK N   1      26.975  10.049   0.910  0.00  0.00     0.310 C 
HETATM   36  C   UNK N   1      28.995   9.074   1.479  0.00  0.00     0.310 C 
ENDBRANCH  27  34
ENDBRANCH  24  25
ENDBRANCH   1  24
BRANCH  21  37
HETATM   37  O   UNK N   1      25.466  15.085   2.820  0.00  0.00    -0.388 OA
HETATM   38  H   UNK N   1      25.770  15.750   2.182  0.00  0.00     0.210 HD
ENDBRANCH  21  37
BRANCH   4  39
HETATM   39  O   UNK N   1      24.553  10.649   5.552  0.00  0.00    -0.355 OA
BRANCH  39  40
HETATM   40  C   UNK N   1      24.122   9.709   4.595  0.00  0.00     0.263 C 
HETATM   41  C   UNK N   1      22.980   8.798   5.105  0.00  0.00     0.101 C 
HETATM   42  C   UNK N   1      23.484   7.685   6.055  0.00  0.00     0.089 C 
HETATM   43  C   UNK N   1      24.718   7.008   5.435  0.00  0.00     0.181 C 
HETATM   44  C   UNK N   1      23.926   8.323   7.364  0.00  0.00     0.049 C 
HETATM   45  C   UNK N   1      25.729   8.099   5.050  0.00  0.00     0.152 C 
HETATM   46  O   UNK N   1      25.203   8.961   4.058  0.00  0.00    -0.354 OA
HETATM   47  C   UNK N   1      27.010   7.458   4.560  0.00  0.00     0.042 C 
BRANCH  42  48
HETATM   48  O   UNK N   1      22.483   6.743   6.411  0.00  0.00    -0.383 OA
HETATM   49  C   UNK N   1      21.253   7.039   5.798  0.00  0.00     0.202 C 
ENDBRANCH  42  48
BRANCH  43  50
HETATM   50  O   UNK N   1      24.373   6.262   4.302  0.00  0.00    -0.390 OA
HETATM   51  H   UNK N   1      23.846   6.221   3.489  0.00  0.00     0.210 HD
ENDBRANCH  43  50
ENDBRANCH  39  40
ENDBRANCH   4  39
BRANCH  16  52
HETATM   52  O   UNK N   1      23.651  19.008   3.823  0.00  0.00    -0.255 OA
BRANCH  52  53
HETATM   53  C   UNK N   1      23.524  20.149   3.060  0.00  0.00     0.369 C 
BRANCH  53  54
HETATM   54  O   UNK N   1      22.220  20.633   3.185  0.00  0.00    -0.363 OA
BRANCH  54  55
HETATM   55  C   UNK N   1      21.624  20.422   1.942  0.00  0.00     0.196 C 
BRANCH  55  56
HETATM   56  C   UNK N   1      20.408  19.525   2.103  0.00  0.00     0.193 C 
BRANCH  56  57
HETATM   57  O   UNK N   1      20.817  18.209   2.327  0.00  0.00    -0.394 OA
HETATM   58  C   UNK N   1      19.957  17.430   1.552  0.00  0.00     0.201 C 
ENDBRANCH  56  57
ENDBRANCH  55  56
ENDBRANCH  54  55
ENDBRANCH  53  54
ENDBRANCH  52  53
ENDBRANCH  16  52
BRANCH  11  59
HETATM   59  O   UNK N   1      21.650  14.773   5.966  0.00  0.00    -0.392 OA
HETATM   60  H   UNK N   1      21.004  14.445   5.321  0.00  0.00     0.210 HD
ENDBRANCH  11  59
BRANCH  12  61
HETATM   61  C   UNK N   1      20.108  13.712   9.939  0.00  0.00     0.031 C 
HETATM   62  C   UNK N   1      20.699  12.637  10.831  0.00  0.00     0.007 C 
ENDBRANCH  12  61
BRANCH  20  63
HETATM   63  O   UNK N   1      19.450  15.171   7.454  0.00  0.00    -0.385 OA
HETATM   64  H   UNK N   1      18.530  15.295   7.171  0.00  0.00     0.210 HD
ENDBRANCH  20  63
TORSDOF 18
ENDMDL
MODEL 3
REMARK VINA RESULT:      -6.7      2.172     10.031
REMARK  18 active torsions:
REMARK  status: ('A' for Active; 'I' for Inactive)
REMARK    1  A    between atoms: C_1  and  O_13 
REMARK    2  A    between atoms: C_4  and  O_16 
REMARK    3  A    between atoms: C_11  and  O_37 
REMARK    4  A    between atoms: C_12  and  C_49 
REMARK    5  A    between atoms: C_15  and  O_13 
REMARK    6  A    between atoms: C_20  and  O_16 
REMARK    7  A    between atoms: C_17  and  O_23 
REMARK    8  A    between atoms: C_22  and  N_31 
REMARK    9  A    between atoms: N_25  and  O_42 
REMARK   10  A    between atoms: C_38  and  O_40 
REMARK   11  A    between atoms: C_41  and  O_51 
REMARK   12  A    between atoms: O_42  and  C_43 
REMARK   13  A    between atoms: C_43  and  O_44 
REMARK   14  A    between atoms: O_44  and  C_45 
REMARK   15  A    between atoms: C_45  and  C_46 
REMARK   16  A    between atoms: C_46  and  O_47 
REMARK   17  A    between atoms: C_54  and  O_56 
REMARK   18  A    between atoms: C_55  and  O_57 
ROOT
HETATM    1  C   UNK N   1      28.454  13.797   4.938  0.00  0.00     0.165 C 
HETATM    2  C   UNK N   1      28.769  15.315   4.797  0.00  0.00     0.043 C 
HETATM    3  C   UNK N   1      25.933  14.100   4.211  0.00  0.00     0.050 C 
HETATM    4  C   UNK N   1      29.738  15.867   5.881  0.00  0.00     0.144 C 
HETATM    5  C   UNK N   1      25.992  15.078   3.020  0.00  0.00     0.033 C 
HETATM    6  C   UNK N   1      29.908  17.411   5.866  0.00  0.00     0.111 C 
HETATM    7  C   UNK N   1      24.677  15.825   2.869  0.00  0.00     0.020 C 
HETATM    8  C   UNK N   1      28.625  18.195   5.903  0.00  0.00     0.265 C 
HETATM    9  C   UNK N   1      24.553  17.231   3.425  0.00  0.00     0.061 C 
HETATM   10  O   UNK N   1      28.317  18.984   4.840  0.00  0.00    -0.312 OA
HETATM   11  C   UNK N   1      25.871  17.787   4.007  0.00  0.00     0.164 C 
HETATM   12  C   UNK N   1      27.244  19.841   4.671  0.00  0.00     0.168 C 
HETATM   13  C   UNK N   1      29.133  15.728   3.376  0.00  0.00     0.015 C 
HETATM   14  C   UNK N   1      26.526  14.549   1.694  0.00  0.00     0.016 C 
HETATM   15  C   UNK N   1      30.782  17.868   4.702  0.00  0.00     0.023 C 
HETATM   16  N   UNK N   1      23.639  15.325   2.259  0.00  0.00    -0.272 N 
ATOM     17  HN  UNK N   1      22.801  15.905   2.221  1.00  0.00     0.193 HD
HETATM   18  O   UNK N   1      27.886  18.119   6.873  0.00  0.00    -0.265 OA
HETATM   19  C   UNK N   1      23.427  17.275   4.451  0.00  0.00     0.019 C 
HETATM   20  C   UNK N   1      25.826  19.237   4.539  0.00  0.00     0.107 C 
HETATM   21  C   UNK N   1      27.125  13.163   4.444  0.00  0.00     0.081 C 
HETATM   22  C   UNK N   1      25.069  20.134   3.568  0.00  0.00     0.051 C 
HETATM   23  C   UNK N   1      26.688  12.196   5.526  0.00  0.00     0.049 C 
ENDROOT
BRANCH   1  24
HETATM   24  O   UNK N   1      29.530  12.866   4.921  0.00  0.00    -0.350 OA
BRANCH  24  25
HETATM   25  C   UNK N   1      29.523  12.081   3.745  0.00  0.00     0.291 C 
HETATM   26  C   UNK N   1      30.636  12.510   2.784  0.00  0.00     0.206 C 
HETATM   27  C   UNK N   1      32.028  11.991   3.210  0.00  0.00     0.257 C 
HETATM   28  C   UNK N   1      31.933  11.095   4.445  0.00  0.00     0.070 C 
HETATM   29  C   UNK N   1      30.773  10.108   4.303  0.00  0.00     0.122 C 
HETATM   30  O   UNK N   1      29.505  10.678   3.998  0.00  0.00    -0.354 OA
HETATM   31  C   UNK N   1      31.106   9.011   3.311  0.00  0.00     0.040 C 
BRANCH  26  32
HETATM   32  O   UNK N   1      30.350  12.026   1.507  0.00  0.00    -0.388 OA
HETATM   33  H   UNK N   1      29.986  11.416   0.846  0.00  0.00     0.210 HD
ENDBRANCH  26  32
BRANCH  27  34
HETATM   34  N   UNK N   1      33.016  13.050   3.457  0.00  0.00     0.087 N 
HETATM   35  C   UNK N   1      34.285  12.587   2.915  0.00  0.00     0.310 C 
HETATM   36  C   UNK N   1      32.705  14.266   2.722  0.00  0.00     0.310 C 
ENDBRANCH  27  34
ENDBRANCH  24  25
ENDBRANCH   1  24
BRANCH  21  37
HETATM   37  O   UNK N   1      27.334  12.416   3.293  0.00  0.00    -0.388 OA
HETATM   38  H   UNK N   1      27.155  11.484   3.089  0.00  0.00     0.210 HD
ENDBRANCH  21  37
BRANCH   4  39
HETATM   39  O   UNK N   1      31.012  15.260   5.817  0.00  0.00    -0.355 OA
BRANCH  39  40
HETATM   40  C   UNK N   1      31.516  15.227   7.131  0.00  0.00     0.263 C 
HETATM   41  C   UNK N   1      32.454  16.415   7.456  0.00  0.00     0.101 C 
HETATM   42  C   UNK N   1      33.867  16.243   6.847  0.00  0.00     0.089 C 
HETATM   43  C   UNK N   1      34.379  14.825   7.146  0.00  0.00     0.181 C 
HETATM   44  C   UNK N   1      33.768  16.381   5.335  0.00  0.00     0.049 C 
HETATM   45  C   UNK N   1      33.307  13.817   6.701  0.00  0.00     0.152 C 
HETATM   46  O   UNK N   1      32.112  13.976   7.443  0.00  0.00    -0.354 OA
HETATM   47  C   UNK N   1      33.836  12.407   6.858  0.00  0.00     0.042 C 
BRANCH  42  48
HETATM   48  O   UNK N   1      34.790  17.241   7.260  0.00  0.00    -0.383 OA
HETATM   49  C   UNK N   1      34.182  18.195   8.093  0.00  0.00     0.202 C 
ENDBRANCH  42  48
BRANCH  43  50
HETATM   50  O   UNK N   1      34.648  14.657   8.509  0.00  0.00    -0.390 OA
HETATM   51  H   UNK N   1      34.673  14.044   9.260  0.00  0.00     0.210 HD
ENDBRANCH  43  50
ENDBRANCH  39  40
ENDBRANCH   4  39
BRANCH  16  52
HETATM   52  O   UNK N   1      23.573  14.134   1.686  0.00  0.00    -0.255 OA
BRANCH  52  53
HETATM   53  C   UNK N   1      22.610  13.755   0.774  0.00  0.00     0.369 C 
BRANCH  53  54
HETATM   54  O   UNK N   1      21.728  14.820   0.580  0.00  0.00    -0.363 OA
BRANCH  54  55
HETATM   55  C   UNK N   1      20.504  14.386   1.090  0.00  0.00     0.196 C 
BRANCH  55  56
HETATM   56  C   UNK N   1      19.921  15.453   2.001  0.00  0.00     0.193 C 
BRANCH  56  57
HETATM   57  O   UNK N   1      20.867  16.457   2.220  0.00  0.00    -0.394 OA
HETATM   58  C   UNK N   1      20.134  17.645   2.218  0.00  0.00     0.201 C 
ENDBRANCH  56  57
ENDBRANCH  55  56
ENDBRANCH  54  55
ENDBRANCH  53  54
ENDBRANCH  52  53
ENDBRANCH  16  52
BRANCH  11  59
HETATM   59  O   UNK N   1      26.304  16.942   5.030  0.00  0.00    -0.392 OA
HETATM   60  H   UNK N   1      26.067  16.741   5.948  0.00  0.00     0.210 HD
ENDBRANCH  11  59
BRANCH  12  61
HETATM   61  C   UNK N   1      27.386  21.182   5.397  0.00  0.00     0.031 C 
HETATM   62  C   UNK N   1      26.706  21.184   6.754  0.00  0.00     0.007 C 
ENDBRANCH  12  61
BRANCH  20  63
HETATM   63  O   UNK N   1      25.172  19.260   5.774  0.00  0.00    -0.385 OA
HETATM   64  H   UNK N   1      25.001  19.080   6.711  0.00  0.00     0.210 HD
ENDBRANCH  20  63
TORSDOF 18
ENDMDL
MODEL 4
REMARK VINA RESULT:      -6.7      2.344     10.107
REMARK  18 active torsions:
REMARK  status: ('A' for Active; 'I' for Inactive)
REMARK    1  A    between atoms: C_1  and  O_13 
REMARK    2  A    between atoms: C_4  and  O_16 
REMARK    3  A    between atoms: C_11  and  O_37 
REMARK    4  A    between atoms: C_12  and  C_49 
REMARK    5  A    between atoms: C_15  and  O_13 
REMARK    6  A    between atoms: C_20  and  O_16 
REMARK    7  A    between atoms: C_17  and  O_23 
REMARK    8  A    between atoms: C_22  and  N_31 
REMARK    9  A    between atoms: N_25  and  O_42 
REMARK   10  A    between atoms: C_38  and  O_40 
REMARK   11  A    between atoms: C_41  and  O_51 
REMARK   12  A    between atoms: O_42  and  C_43 
REMARK   13  A    between atoms: C_43  and  O_44 
REMARK   14  A    between atoms: O_44  and  C_45 
REMARK   15  A    between atoms: C_45  and  C_46 
REMARK   16  A    between atoms: C_46  and  O_47 
REMARK   17  A    between atoms: C_54  and  O_56 
REMARK   18  A    between atoms: C_55  and  O_57 
ROOT
HETATM    1  C   UNK N   1      28.494  13.740   4.458  0.00  0.00     0.165 C 
HETATM    2  C   UNK N   1      28.569  15.295   4.483  0.00  0.00     0.043 C 
HETATM    3  C   UNK N   1      25.965  13.726   3.698  0.00  0.00     0.050 C 
HETATM    4  C   UNK N   1      29.429  15.872   5.645  0.00  0.00     0.144 C 
HETATM    5  C   UNK N   1      25.882  14.822   2.618  0.00  0.00     0.033 C 
HETATM    6  C   UNK N   1      29.355  17.416   5.794  0.00  0.00     0.111 C 
HETATM    7  C   UNK N   1      24.468  15.369   2.510  0.00  0.00     0.020 C 
HETATM    8  C   UNK N   1      27.965  17.983   5.878  0.00  0.00     0.265 C 
HETATM    9  C   UNK N   1      24.120  16.672   3.204  0.00  0.00     0.061 C 
HETATM   10  O   UNK N   1      27.548  18.824   4.895  0.00  0.00    -0.312 OA
HETATM   11  C   UNK N   1      25.328  17.359   3.876  0.00  0.00     0.164 C 
HETATM   12  C   UNK N   1      26.356  19.519   4.786  0.00  0.00     0.168 C 
HETATM   13  C   UNK N   1      28.879  15.908   3.123  0.00  0.00     0.015 C 
HETATM   14  C   UNK N   1      26.506  14.527   1.259  0.00  0.00     0.016 C 
HETATM   15  C   UNK N   1      30.159  18.124   4.708  0.00  0.00     0.023 C 
HETATM   16  N   UNK N   1      23.528  14.782   1.823  0.00  0.00    -0.272 N 
ATOM     17  HN  UNK N   1      22.610  15.227   1.823  1.00  0.00     0.193 HD
HETATM   18  O   UNK N   1      27.237  17.691   6.815  0.00  0.00    -0.265 OA
HETATM   19  C   UNK N   1      22.990  16.432   4.199  0.00  0.00     0.019 C 
HETATM   20  C   UNK N   1      25.052  18.721   4.554  0.00  0.00     0.107 C 
HETATM   21  C   UNK N   1      27.286  12.965   3.865  0.00  0.00     0.081 C 
HETATM   22  C   UNK N   1      24.174  19.587   3.662  0.00  0.00     0.051 C 
HETATM   23  C   UNK N   1      26.995  11.832   4.829  0.00  0.00     0.049 C 
ENDROOT
BRANCH   1  24
HETATM   24  O   UNK N   1      29.703  12.994   4.373  0.00  0.00    -0.350 OA
BRANCH  24  25
HETATM   25  C   UNK N   1      30.528  13.451   3.320  0.00  0.00     0.291 C 
HETATM   26  C   UNK N   1      31.983  13.020   3.526  0.00  0.00     0.206 C 
HETATM   27  C   UNK N   1      32.223  11.536   3.168  0.00  0.00     0.257 C 
HETATM   28  C   UNK N   1      30.958  10.888   2.605  0.00  0.00     0.070 C 
HETATM   29  C   UNK N   1      30.292  11.810   1.583  0.00  0.00     0.122 C 
HETATM   30  O   UNK N   1      30.023  13.137   2.025  0.00  0.00    -0.354 OA
HETATM   31  C   UNK N   1      31.071  11.841   0.282  0.00  0.00     0.040 C 
BRANCH  26  32
HETATM   32  O   UNK N   1      32.812  13.812   2.732  0.00  0.00    -0.388 OA
HETATM   33  H   UNK N   1      33.636  14.079   2.294  0.00  0.00     0.210 HD
ENDBRANCH  26  32
BRANCH  27  34
HETATM   34  N   UNK N   1      32.729  10.721   4.281  0.00  0.00     0.087 N 
HETATM   35  C   UNK N   1      31.591  10.010   4.843  0.00  0.00     0.310 C 
HETATM   36  C   UNK N   1      33.644   9.685   3.825  0.00  0.00     0.310 C 
ENDBRANCH  27  34
ENDBRANCH  24  25
ENDBRANCH   1  24
BRANCH  21  37
HETATM   37  O   UNK N   1      27.622  12.385   2.649  0.00  0.00    -0.388 OA
HETATM   38  H   UNK N   1      28.430  12.434   2.115  0.00  0.00     0.210 HD
ENDBRANCH  21  37
BRANCH   4  39
HETATM   39  O   UNK N   1      30.782  15.479   5.552  0.00  0.00    -0.355 OA
BRANCH  39  40
HETATM   40  C   UNK N   1      31.310  15.517   6.857  0.00  0.00     0.263 C 
HETATM   41  C   UNK N   1      32.233  16.734   7.107  0.00  0.00     0.101 C 
HETATM   42  C   UNK N   1      33.638  16.556   6.482  0.00  0.00     0.089 C 
HETATM   43  C   UNK N   1      34.179  15.161   6.840  0.00  0.00     0.181 C 
HETATM   44  C   UNK N   1      33.511  16.619   4.968  0.00  0.00     0.049 C 
HETATM   45  C   UNK N   1      33.117  14.116   6.463  0.00  0.00     0.152 C 
HETATM   46  O   UNK N   1      31.932  14.293   7.217  0.00  0.00    -0.354 OA
HETATM   47  C   UNK N   1      33.671  12.724   6.678  0.00  0.00     0.042 C 
BRANCH  42  48
HETATM   48  O   UNK N   1      34.551  17.586   6.830  0.00  0.00    -0.383 OA
HETATM   49  C   UNK N   1      34.102  18.322   7.940  0.00  0.00     0.202 C 
ENDBRANCH  42  48
BRANCH  43  50
HETATM   50  O   UNK N   1      34.474  15.064   8.204  0.00  0.00    -0.390 OA
HETATM   51  H   UNK N   1      34.378  14.546   9.019  0.00  0.00     0.210 HD
ENDBRANCH  43  50
ENDBRANCH  39  40
ENDBRANCH   4  39
BRANCH  16  52
HETATM   52  O   UNK N   1      23.654  13.663   1.128  0.00  0.00    -0.255 OA
BRANCH  52  53
HETATM   53  C   UNK N   1      22.624  12.788   0.858  0.00  0.00     0.369 C 
BRANCH  53  54
HETATM   54  O   UNK N   1      21.532  13.114   1.664  0.00  0.00    -0.363 OA
BRANCH  54  55
HETATM   55  C   UNK N   1      20.487  13.386   0.781  0.00  0.00     0.196 C 
BRANCH  55  56
HETATM   56  C   UNK N   1      19.932  14.774   1.057  0.00  0.00     0.193 C 
BRANCH  56  57
HETATM   57  O   UNK N   1      20.826  15.741   0.595  0.00  0.00    -0.394 OA
HETATM   58  C   UNK N   1      20.066  16.905   0.477  0.00  0.00     0.201 C 
ENDBRANCH  56  57
ENDBRANCH  55  56
ENDBRANCH  54  55
ENDBRANCH  53  54
ENDBRANCH  52  53
ENDBRANCH  16  52
BRANCH  11  59
HETATM   59  O   UNK N   1      25.878  16.487   4.817  0.00  0.00    -0.392 OA
HETATM   60  H   UNK N   1      26.757  16.204   5.111  0.00  0.00     0.210 HD
ENDBRANCH  11  59
BRANCH  12  61
HETATM   61  C   UNK N   1      26.279  20.780   5.651  0.00  0.00     0.031 C 
HETATM   62  C   UNK N   1      27.645  21.252   6.116  0.00  0.00     0.007 C 
ENDBRANCH  12  61
BRANCH  20  63
HETATM   63  O   UNK N   1      24.389  18.510   5.767  0.00  0.00    -0.385 OA
HETATM   64  H   UNK N   1      24.249  18.462   6.725  0.00  0.00     0.210 HD
ENDBRANCH  20  63
TORSDOF 18
ENDMDL
MODEL 5
REMARK VINA RESULT:      -6.6      3.793      9.020
REMARK  18 active torsions:
REMARK  status: ('A' for Active; 'I' for Inactive)
REMARK    1  A    between atoms: C_1  and  O_13 
REMARK    2  A    between atoms: C_4  and  O_16 
REMARK    3  A    between atoms: C_11  and  O_37 
REMARK    4  A    between atoms: C_12  and  C_49 
REMARK    5  A    between atoms: C_15  and  O_13 
REMARK    6  A    between atoms: C_20  and  O_16 
REMARK    7  A    between atoms: C_17  and  O_23 
REMARK    8  A    between atoms: C_22  and  N_31 
REMARK    9  A    between atoms: N_25  and  O_42 
REMARK   10  A    between atoms: C_38  and  O_40 
REMARK   11  A    between atoms: C_41  and  O_51 
REMARK   12  A    between atoms: O_42  and  C_43 
REMARK   13  A    between atoms: C_43  and  O_44 
REMARK   14  A    between atoms: O_44  and  C_45 
REMARK   15  A    between atoms: C_45  and  C_46 
REMARK   16  A    between atoms: C_46  and  O_47 
REMARK   17  A    between atoms: C_54  and  O_56 
REMARK   18  A    between atoms: C_55  and  O_57 
ROOT
HETATM    1  C   UNK N   1      24.278  13.015   3.718  0.00  0.00     0.165 C 
HETATM    2  C   UNK N   1      23.877  12.909   5.219  0.00  0.00     0.043 C 
HETATM    3  C   UNK N   1      23.291  15.453   3.474  0.00  0.00     0.050 C 
HETATM    4  C   UNK N   1      23.386  11.496   5.647  0.00  0.00     0.144 C 
HETATM    5  C   UNK N   1      23.737  16.179   4.759  0.00  0.00     0.033 C 
HETATM    6  C   UNK N   1      22.804  11.425   7.086  0.00  0.00     0.111 C 
HETATM    7  C   UNK N   1      22.798  17.329   5.084  0.00  0.00     0.020 C 
HETATM    8  C   UNK N   1      21.732  12.435   7.390  0.00  0.00     0.265 C 
HETATM    9  C   UNK N   1      21.711  17.130   6.123  0.00  0.00     0.061 C 
HETATM   10  O   UNK N   1      21.971  13.362   8.355  0.00  0.00    -0.312 OA
HETATM   11  C   UNK N   1      21.766  15.756   6.823  0.00  0.00     0.164 C 
HETATM   12  C   UNK N   1      21.128  14.338   8.856  0.00  0.00     0.168 C 
HETATM   13  C   UNK N   1      24.903  13.518   6.165  0.00  0.00     0.015 C 
HETATM   14  C   UNK N   1      25.207  16.564   4.882  0.00  0.00     0.016 C 
HETATM   15  C   UNK N   1      23.905  11.477   8.139  0.00  0.00     0.023 C 
HETATM   16  N   UNK N   1      22.890  18.504   4.526  0.00  0.00    -0.272 N 
ATOM     17  HN  UNK N   1      22.204  19.204   4.807  1.00  0.00     0.193 HD
HETATM   18  O   UNK N   1      20.673  12.410   6.781  0.00  0.00    -0.265 OA
HETATM   19  C   UNK N   1      20.348  17.379   5.487  0.00  0.00     0.019 C 
HETATM   20  C   UNK N   1      20.719  15.510   7.934  0.00  0.00     0.107 C 
HETATM   21  C   UNK N   1      24.189  14.342   2.915  0.00  0.00     0.081 C 
HETATM   22  C   UNK N   1      20.601  16.737   8.829  0.00  0.00     0.051 C 
HETATM   23  C   UNK N   1      23.610  13.980   1.562  0.00  0.00     0.049 C 
ENDROOT
BRANCH   1  24
HETATM   24  O   UNK N   1      25.289  12.151   3.213  0.00  0.00    -0.350 OA
BRANCH  24  25
HETATM   25  C   UNK N   1      26.509  12.309   3.909  0.00  0.00     0.291 C 
HETATM   26  C   UNK N   1      27.310  11.004   3.930  0.00  0.00     0.206 C 
HETATM   27  C   UNK N   1      28.026  10.719   2.591  0.00  0.00     0.257 C 
HETATM   28  C   UNK N   1      27.830  11.867   1.601  0.00  0.00     0.070 C 
HETATM   29  C   UNK N   1      28.038  13.214   2.294  0.00  0.00     0.122 C 
HETATM   30  O   UNK N   1      27.270  13.432   3.474  0.00  0.00    -0.354 OA
HETATM   31  C   UNK N   1      29.507  13.467   2.572  0.00  0.00     0.040 C 
BRANCH  26  32
HETATM   32  O   UNK N   1      28.266  11.069   4.944  0.00  0.00    -0.388 OA
HETATM   33  H   UNK N   1      29.082  11.359   5.382  0.00  0.00     0.210 HD
ENDBRANCH  26  32
BRANCH  27  34
HETATM   34  N   UNK N   1      27.630   9.457   1.951  0.00  0.00     0.087 N 
HETATM   35  C   UNK N   1      26.681   9.788   0.900  0.00  0.00     0.310 C 
HETATM   36  C   UNK N   1      28.748   8.817   1.274  0.00  0.00     0.310 C 
ENDBRANCH  27  34
ENDBRANCH  24  25
ENDBRANCH   1  24
BRANCH  21  37
HETATM   37  O   UNK N   1      25.454  14.865   2.687  0.00  0.00    -0.388 OA
HETATM   38  H   UNK N   1      26.158  15.136   3.297  0.00  0.00     0.210 HD
ENDBRANCH  21  37
BRANCH   4  39
HETATM   39  O   UNK N   1      24.394  10.516   5.506  0.00  0.00    -0.355 OA
BRANCH  39  40
HETATM   40  C   UNK N   1      23.919   9.572   4.576  0.00  0.00     0.263 C 
HETATM   41  C   UNK N   1      22.754   8.710   5.120  0.00  0.00     0.101 C 
HETATM   42  C   UNK N   1      23.234   7.602   6.088  0.00  0.00     0.089 C 
HETATM   43  C   UNK N   1      24.436   6.871   5.467  0.00  0.00     0.181 C 
HETATM   44  C   UNK N   1      23.715   8.252   7.376  0.00  0.00     0.049 C 
HETATM   45  C   UNK N   1      25.477   7.919   5.045  0.00  0.00     0.152 C 
HETATM   46  O   UNK N   1      24.967   8.776   4.041  0.00  0.00    -0.354 OA
HETATM   47  C   UNK N   1      26.730   7.224   4.553  0.00  0.00     0.042 C 
BRANCH  42  48
HETATM   48  O   UNK N   1      22.207   6.702   6.478  0.00  0.00    -0.383 OA
HETATM   49  C   UNK N   1      20.983   7.015   5.861  0.00  0.00     0.202 C 
ENDBRANCH  42  48
BRANCH  43  50
HETATM   50  O   UNK N   1      24.051   6.113   4.355  0.00  0.00    -0.390 OA
HETATM   51  H   UNK N   1      23.324   5.674   3.886  0.00  0.00     0.210 HD
ENDBRANCH  43  50
ENDBRANCH  39  40
ENDBRANCH   4  39
BRANCH  16  52
HETATM   52  O   UNK N   1      23.791  18.870   3.628  0.00  0.00    -0.255 OA
BRANCH  52  53
HETATM   53  C   UNK N   1      24.600  19.981   3.738  0.00  0.00     0.369 C 
BRANCH  53  54
HETATM   54  O   UNK N   1      25.800  19.734   3.067  0.00  0.00    -0.363 OA
BRANCH  54  55
HETATM   55  C   UNK N   1      26.806  20.002   3.996  0.00  0.00     0.196 C 
BRANCH  55  56
HETATM   56  C   UNK N   1      26.194  20.573   5.264  0.00  0.00     0.193 C 
BRANCH  56  57
HETATM   57  O   UNK N   1      27.159  20.630   6.271  0.00  0.00    -0.394 OA
HETATM   58  C   UNK N   1      27.696  19.342   6.324  0.00  0.00     0.201 C 
ENDBRANCH  56  57
ENDBRANCH  55  56
ENDBRANCH  54  55
ENDBRANCH  53  54
ENDBRANCH  52  53
ENDBRANCH  16  52
BRANCH  11  59
HETATM   59  O   UNK N   1      21.648  14.753   5.860  0.00  0.00    -0.392 OA
HETATM   60  H   UNK N   1      21.102  14.561   5.082  0.00  0.00     0.210 HD
ENDBRANCH  11  59
BRANCH  12  61
HETATM   61  C   UNK N   1      20.093  13.823   9.860  0.00  0.00     0.031 C 
HETATM   62  C   UNK N   1      20.656  12.757  10.782  0.00  0.00     0.007 C 
ENDBRANCH  12  61
BRANCH  20  63
HETATM   63  O   UNK N   1      19.474  15.259   7.352  0.00  0.00    -0.385 OA
HETATM   64  H   UNK N   1      18.516  15.311   7.205  0.00  0.00     0.210 HD
ENDBRANCH  20  63
TORSDOF 18
ENDMDL
MODEL 6
REMARK VINA RESULT:      -6.4      2.176      9.833
REMARK  18 active torsions:
REMARK  status: ('A' for Active; 'I' for Inactive)
REMARK    1  A    between atoms: C_1  and  O_13 
REMARK    2  A    between atoms: C_4  and  O_16 
REMARK    3  A    between atoms: C_11  and  O_37 
REMARK    4  A    between atoms: C_12  and  C_49 
REMARK    5  A    between atoms: C_15  and  O_13 
REMARK    6  A    between atoms: C_20  and  O_16 
REMARK    7  A    between atoms: C_17  and  O_23 
REMARK    8  A    between atoms: C_22  and  N_31 
REMARK    9  A    between atoms: N_25  and  O_42 
REMARK   10  A    between atoms: C_38  and  O_40 
REMARK   11  A    between atoms: C_41  and  O_51 
REMARK   12  A    between atoms: O_42  and  C_43 
REMARK   13  A    between atoms: C_43  and  O_44 
REMARK   14  A    between atoms: O_44  and  C_45 
REMARK   15  A    between atoms: C_45  and  C_46 
REMARK   16  A    between atoms: C_46  and  O_47 
REMARK   17  A    between atoms: C_54  and  O_56 
REMARK   18  A    between atoms: C_55  and  O_57 
ROOT
HETATM    1  C   UNK N   1      29.008  13.534   4.695  0.00  0.00     0.165 C 
HETATM    2  C   UNK N   1      29.045  15.089   4.751  0.00  0.00     0.043 C 
HETATM    3  C   UNK N   1      26.576  13.481   3.666  0.00  0.00     0.050 C 
HETATM    4  C   UNK N   1      29.761  15.664   6.008  0.00  0.00     0.144 C 
HETATM    5  C   UNK N   1      26.585  14.593   2.599  0.00  0.00     0.033 C 
HETATM    6  C   UNK N   1      29.636  17.204   6.171  0.00  0.00     0.111 C 
HETATM    7  C   UNK N   1      25.179  15.113   2.347  0.00  0.00     0.020 C 
HETATM    8  C   UNK N   1      28.233  17.740   6.112  0.00  0.00     0.265 C 
HETATM    9  C   UNK N   1      24.729  16.396   3.019  0.00  0.00     0.061 C 
HETATM   10  O   UNK N   1      27.906  18.589   5.102  0.00  0.00    -0.312 OA
HETATM   11  C   UNK N   1      25.842  17.096   3.828  0.00  0.00     0.164 C 
HETATM   12  C   UNK N   1      26.717  19.260   4.876  0.00  0.00     0.168 C 
HETATM   13  C   UNK N   1      29.485  15.733   3.442  0.00  0.00     0.015 C 
HETATM   14  C   UNK N   1      27.359  14.335   1.312  0.00  0.00     0.016 C 
HETATM   15  C   UNK N   1      30.536  17.947   5.189  0.00  0.00     0.023 C 
HETATM   16  N   UNK N   1      24.332  14.518   1.554  0.00  0.00    -0.272 N 
ATOM     17  HN  UNK N   1      23.410  14.943   1.461  1.00  0.00     0.193 HD
HETATM   18  O   UNK N   1      27.415  17.417   6.960  0.00  0.00    -0.265 OA
HETATM   19  C   UNK N   1      23.504  16.115   3.882  0.00  0.00     0.019 C 
HETATM   20  C   UNK N   1      25.464  18.439   4.493  0.00  0.00     0.107 C 
HETATM   21  C   UNK N   1      27.888  12.744   3.963  0.00  0.00     0.081 C 
HETATM   22  C   UNK N   1      24.667  19.303   3.523  0.00  0.00     0.051 C 
HETATM   23  C   UNK N   1      27.520  11.589   4.873  0.00  0.00     0.049 C 
ENDROOT
BRANCH   1  24
HETATM   24  O   UNK N   1      30.235  12.815   4.730  0.00  0.00    -0.350 OA
BRANCH  24  25
HETATM   25  C   UNK N   1      30.499  12.170   3.500  0.00  0.00     0.291 C 
HETATM   26  C   UNK N   1      31.559  12.925   2.693  0.00  0.00     0.206 C 
HETATM   27  C   UNK N   1      32.994  12.680   3.213  0.00  0.00     0.257 C 
HETATM   28  C   UNK N   1      33.005  11.664   4.355  0.00  0.00     0.070 C 
HETATM   29  C   UNK N   1      32.112  10.469   4.019  0.00  0.00     0.122 C 
HETATM   30  O   UNK N   1      30.776  10.779   3.635  0.00  0.00    -0.354 OA
HETATM   31  C   UNK N   1      32.761   9.576   2.979  0.00  0.00     0.040 C 
BRANCH  26  32
HETATM   32  O   UNK N   1      31.491  12.522   1.359  0.00  0.00    -0.388 OA
HETATM   33  H   UNK N   1      31.820  12.353   0.461  0.00  0.00     0.210 HD
ENDBRANCH  26  32
BRANCH  27  34
HETATM   34  N   UNK N   1      33.695  13.897   3.641  0.00  0.00     0.087 N 
HETATM   35  C   UNK N   1      35.070  13.784   3.180  0.00  0.00     0.310 C 
HETATM   36  C   UNK N   1      33.167  15.087   2.991  0.00  0.00     0.310 C 
ENDBRANCH  27  34
ENDBRANCH  24  25
ENDBRANCH   1  24
BRANCH  21  37
HETATM   37  O   UNK N   1      28.366  12.193   2.782  0.00  0.00    -0.388 OA
HETATM   38  H   UNK N   1      27.908  11.786   2.030  0.00  0.00     0.210 HD
ENDBRANCH  21  37
BRANCH   4  39
HETATM   39  O   UNK N   1      31.125  15.301   6.056  0.00  0.00    -0.355 OA
BRANCH  39  40
HETATM   40  C   UNK N   1      31.410  14.958   7.392  0.00  0.00     0.263 C 
HETATM   41  C   UNK N   1      31.877  16.162   8.245  0.00  0.00     0.101 C 
HETATM   42  C   UNK N   1      33.349  16.553   7.970  0.00  0.00     0.089 C 
HETATM   43  C   UNK N   1      34.221  15.287   7.982  0.00  0.00     0.181 C 
HETATM   44  C   UNK N   1      33.443  17.156   6.576  0.00  0.00     0.049 C 
HETATM   45  C   UNK N   1      33.591  14.254   7.033  0.00  0.00     0.152 C 
HETATM   46  O   UNK N   1      32.307  13.861   7.481  0.00  0.00    -0.354 OA
HETATM   47  C   UNK N   1      34.497  13.047   6.919  0.00  0.00     0.042 C 
BRANCH  42  48
HETATM   48  O   UNK N   1      33.847  17.551   8.850  0.00  0.00    -0.383 OA
HETATM   49  C   UNK N   1      34.615  18.508   8.166  0.00  0.00     0.202 C 
ENDBRANCH  42  48
BRANCH  43  50
HETATM   50  O   UNK N   1      34.319  14.748   9.269  0.00  0.00    -0.390 OA
HETATM   51  H   UNK N   1      33.844  14.450  10.061  0.00  0.00     0.210 HD
ENDBRANCH  43  50
ENDBRANCH  39  40
ENDBRANCH   4  39
BRANCH  16  52
HETATM   52  O   UNK N   1      24.558  13.414   0.860  0.00  0.00    -0.255 OA
BRANCH  52  53
HETATM   53  C   UNK N   1      23.685  12.874  -0.059  0.00  0.00     0.369 C 
BRANCH  53  54
HETATM   54  O   UNK N   1      22.379  13.199   0.313  0.00  0.00    -0.363 OA
BRANCH  54  55
HETATM   55  C   UNK N   1      21.869  12.052   0.923  0.00  0.00     0.196 C 
BRANCH  55  56
HETATM   56  C   UNK N   1      21.185  12.427   2.227  0.00  0.00     0.193 C 
BRANCH  56  57
HETATM   57  O   UNK N   1      22.116  12.978   3.108  0.00  0.00    -0.394 OA
HETATM   58  C   UNK N   1      22.828  11.886   3.607  0.00  0.00     0.201 C 
ENDBRANCH  56  57
ENDBRANCH  55  56
ENDBRANCH  54  55
ENDBRANCH  53  54
ENDBRANCH  52  53
ENDBRANCH  16  52
BRANCH  11  59
HETATM   59  O   UNK N   1      26.306  16.219   4.810  0.00  0.00    -0.392 OA
HETATM   60  H   UNK N   1      26.809  15.391   4.859  0.00  0.00     0.210 HD
ENDBRANCH  11  59
BRANCH  12  61
HETATM   61  C   UNK N   1      26.519  20.504   5.746  0.00  0.00     0.031 C 
HETATM   62  C   UNK N   1      27.817  21.243   6.012  0.00  0.00     0.007 C 
ENDBRANCH  12  61
BRANCH  20  63
HETATM   63  O   UNK N   1      24.679  18.194   5.623  0.00  0.00    -0.385 OA
HETATM   64  H   UNK N   1      24.446  17.897   6.516  0.00  0.00     0.210 HD
ENDBRANCH  20  63
TORSDOF 18
ENDMDL
MODEL 7
REMARK VINA RESULT:      -6.4      2.988      7.783
REMARK  18 active torsions:
REMARK  status: ('A' for Active; 'I' for Inactive)
REMARK    1  A    between atoms: C_1  and  O_13 
REMARK    2  A    between atoms: C_4  and  O_16 
REMARK    3  A    between atoms: C_11  and  O_37 
REMARK    4  A    between atoms: C_12  and  C_49 
REMARK    5  A    between atoms: C_15  and  O_13 
REMARK    6  A    between atoms: C_20  and  O_16 
REMARK    7  A    between atoms: C_17  and  O_23 
REMARK    8  A    between atoms: C_22  and  N_31 
REMARK    9  A    between atoms: N_25  and  O_42 
REMARK   10  A    between atoms: C_38  and  O_40 
REMARK   11  A    between atoms: C_41  and  O_51 
REMARK   12  A    between atoms: O_42  and  C_43 
REMARK   13  A    between atoms: C_43  and  O_44 
REMARK   14  A    between atoms: O_44  and  C_45 
REMARK   15  A    between atoms: C_45  and  C_46 
REMARK   16  A    between atoms: C_46  and  O_47 
REMARK   17  A    between atoms: C_54  and  O_56 
REMARK   18  A    between atoms: C_55  and  O_57 
ROOT
HETATM    1  C   UNK N   1      29.176  13.406   4.148  0.00  0.00     0.165 C 
HETATM    2  C   UNK N   1      27.881  13.984   3.507  0.00  0.00     0.043 C 
HETATM    3  C   UNK N   1      28.994  11.129   2.823  0.00  0.00     0.050 C 
HETATM    4  C   UNK N   1      27.013  14.832   4.481  0.00  0.00     0.144 C 
HETATM    5  C   UNK N   1      28.598  11.546   1.394  0.00  0.00     0.033 C 
HETATM    6  C   UNK N   1      25.630  15.252   3.911  0.00  0.00     0.111 C 
HETATM    7  C   UNK N   1      27.874  10.416   0.681  0.00  0.00     0.020 C 
HETATM    8  C   UNK N   1      24.799  14.126   3.361  0.00  0.00     0.265 C 
HETATM    9  C   UNK N   1      26.359  10.430   0.611  0.00  0.00     0.061 C 
HETATM   10  O   UNK N   1      24.492  14.135   2.037  0.00  0.00    -0.312 OA
HETATM   11  C   UNK N   1      25.723  11.703   1.210  0.00  0.00     0.164 C 
HETATM   12  C   UNK N   1      23.695  13.260   1.319  0.00  0.00     0.168 C 
HETATM   13  C   UNK N   1      28.116  14.645   2.156  0.00  0.00     0.015 C 
HETATM   14  C   UNK N   1      29.665  12.204   0.526  0.00  0.00     0.016 C 
HETATM   15  C   UNK N   1      25.762  16.372   2.886  0.00  0.00     0.023 C 
HETATM   16  N   UNK N   1      28.495   9.429   0.097  0.00  0.00    -0.272 N 
ATOM     17  HN  UNK N   1      27.916   8.715  -0.345  1.00  0.00     0.193 HD
HETATM   18  O   UNK N   1      24.410  13.231   4.097  0.00  0.00    -0.265 OA
HETATM   19  C   UNK N   1      25.808   9.169   1.266  0.00  0.00     0.019 C 
HETATM   20  C   UNK N   1      24.183  11.806   1.120  0.00  0.00     0.107 C 
HETATM   21  C   UNK N   1      29.847  12.094   3.656  0.00  0.00     0.081 C 
HETATM   22  C   UNK N   1      23.705  11.380  -0.262  0.00  0.00     0.051 C 
HETATM   23  C   UNK N   1      30.248  11.329   4.901  0.00  0.00     0.049 C 
ENDROOT
BRANCH   1  24
HETATM   24  O   UNK N   1      30.117  14.304   4.728  0.00  0.00    -0.350 OA
BRANCH  24  25
HETATM   25  C   UNK N   1      30.563  15.268   3.796  0.00  0.00     0.291 C 
HETATM   26  C   UNK N   1      31.022  16.549   4.498  0.00  0.00     0.206 C 
HETATM   27  C   UNK N   1      32.423  16.411   5.136  0.00  0.00     0.257 C 
HETATM   28  C   UNK N   1      33.044  15.050   4.826  0.00  0.00     0.070 C 
HETATM   29  C   UNK N   1      32.852  14.697   3.350  0.00  0.00     0.122 C 
HETATM   30  O   UNK N   1      31.514  14.762   2.864  0.00  0.00    -0.354 OA
HETATM   31  C   UNK N   1      33.770  15.519   2.465  0.00  0.00     0.040 C 
BRANCH  26  32
HETATM   32  O   UNK N   1      31.052  17.593   3.574  0.00  0.00    -0.388 OA
HETATM   33  H   UNK N   1      31.257  18.481   3.238  0.00  0.00     0.210 HD
ENDBRANCH  26  32
BRANCH  27  34
HETATM   34  N   UNK N   1      32.449  16.634   6.589  0.00  0.00     0.087 N 
HETATM   35  C   UNK N   1      32.827  15.373   7.209  0.00  0.00     0.310 C 
HETATM   36  C   UNK N   1      33.485  17.580   6.976  0.00  0.00     0.310 C 
ENDBRANCH  27  34
ENDBRANCH  24  25
ENDBRANCH   1  24
BRANCH  21  37
HETATM   37  O   UNK N   1      31.015  12.371   2.957  0.00  0.00    -0.388 OA
HETATM   38  H   UNK N   1      31.219  13.039   2.284  0.00  0.00     0.210 HD
ENDBRANCH  21  37
BRANCH   4  39
HETATM   39  O   UNK N   1      27.694  15.982   4.938  0.00  0.00    -0.355 OA
BRANCH  39  40
HETATM   40  C   UNK N   1      27.009  16.437   6.080  0.00  0.00     0.263 C 
HETATM   41  C   UNK N   1      26.262  17.774   5.853  0.00  0.00     0.101 C 
HETATM   42  C   UNK N   1      27.212  18.996   5.864  0.00  0.00     0.089 C 
HETATM   43  C   UNK N   1      28.151  18.898   7.078  0.00  0.00     0.181 C 
HETATM   44  C   UNK N   1      28.078  18.954   4.615  0.00  0.00     0.049 C 
HETATM   45  C   UNK N   1      28.811  17.511   7.071  0.00  0.00     0.152 C 
HETATM   46  O   UNK N   1      27.849  16.483   7.224  0.00  0.00    -0.354 OA
HETATM   47  C   UNK N   1      29.843  17.431   8.176  0.00  0.00     0.042 C 
BRANCH  42  48
HETATM   48  O   UNK N   1      26.534  20.244   5.815  0.00  0.00    -0.383 OA
HETATM   49  C   UNK N   1      27.432  21.323   5.866  0.00  0.00     0.202 C 
ENDBRANCH  42  48
BRANCH  43  50
HETATM   50  O   UNK N   1      27.454  19.084   8.277  0.00  0.00    -0.390 OA
HETATM   51  H   UNK N   1      26.588  19.148   8.709  0.00  0.00     0.210 HD
ENDBRANCH  43  50
ENDBRANCH  39  40
ENDBRANCH   4  39
BRANCH  16  52
HETATM   52  O   UNK N   1      29.807   9.267   0.026  0.00  0.00    -0.255 OA
BRANCH  52  53
HETATM   53  C   UNK N   1      30.503   9.008  -1.135  0.00  0.00     0.369 C 
BRANCH  53  54
HETATM   54  O   UNK N   1      29.591   8.812  -2.174  0.00  0.00    -0.363 OA
BRANCH  54  55
HETATM   55  C   UNK N   1      30.186   9.377  -3.302  0.00  0.00     0.196 C 
BRANCH  55  56
HETATM   56  C   UNK N   1      30.317  10.880  -3.113  0.00  0.00     0.193 C 
BRANCH  56  57
HETATM   57  O   UNK N   1      31.366  11.365  -3.896  0.00  0.00    -0.394 OA
HETATM   58  C   UNK N   1      32.381  11.666  -2.986  0.00  0.00     0.201 C 
ENDBRANCH  56  57
ENDBRANCH  55  56
ENDBRANCH  54  55
ENDBRANCH  53  54
ENDBRANCH  52  53
ENDBRANCH  16  52
BRANCH  11  59
HETATM   59  O   UNK N   1      26.107  11.813   2.547  0.00  0.00    -0.392 OA
HETATM   60  H   UNK N   1      26.914  11.995   3.054  0.00  0.00     0.210 HD
ENDBRANCH  11  59
BRANCH  12  61
HETATM   61  C   UNK N   1      22.191  13.494   1.486  0.00  0.00     0.031 C 
HETATM   62  C   UNK N   1      21.791  14.933   1.218  0.00  0.00     0.007 C 
ENDBRANCH  12  61
BRANCH  20  63
HETATM   63  O   UNK N   1      23.604  10.965   2.074  0.00  0.00    -0.385 OA
HETATM   64  H   UNK N   1      22.912  10.527   2.594  0.00  0.00     0.210 HD
ENDBRANCH  20  63
TORSDOF 18
ENDMDL
MODEL 8
REMARK VINA RESULT:      -6.3      4.607     11.596
REMARK  18 active torsions:
REMARK  status: ('A' for Active; 'I' for Inactive)
REMARK    1  A    between atoms: C_1  and  O_13 
REMARK    2  A    between atoms: C_4  and  O_16 
REMARK    3  A    between atoms: C_11  and  O_37 
REMARK    4  A    between atoms: C_12  and  C_49 
REMARK    5  A    between atoms: C_15  and  O_13 
REMARK    6  A    between atoms: C_20  and  O_16 
REMARK    7  A    between atoms: C_17  and  O_23 
REMARK    8  A    between atoms: C_22  and  N_31 
REMARK    9  A    between atoms: N_25  and  O_42 
REMARK   10  A    between atoms: C_38  and  O_40 
REMARK   11  A    between atoms: C_41  and  O_51 
REMARK   12  A    between atoms: O_42  and  C_43 
REMARK   13  A    between atoms: C_43  and  O_44 
REMARK   14  A    between atoms: O_44  and  C_45 
REMARK   15  A    between atoms: C_45  and  C_46 
REMARK   16  A    between atoms: C_46  and  O_47 
REMARK   17  A    between atoms: C_54  and  O_56 
REMARK   18  A    between atoms: C_55  and  O_57 
ROOT
HETATM    1  C   UNK N   1      35.434  14.244   9.601  0.00  0.00     0.165 C 
HETATM    2  C   UNK N   1      35.155  13.442   8.296  0.00  0.00     0.043 C 
HETATM    3  C   UNK N   1      33.699  16.137   8.983  0.00  0.00     0.050 C 
HETATM    4  C   UNK N   1      36.419  12.778   7.676  0.00  0.00     0.144 C 
HETATM    5  C   UNK N   1      32.478  15.375   8.432  0.00  0.00     0.033 C 
HETATM    6  C   UNK N   1      36.189  12.139   6.279  0.00  0.00     0.111 C 
HETATM    7  C   UNK N   1      31.669  16.256   7.494  0.00  0.00     0.020 C 
HETATM    8  C   UNK N   1      35.555  13.045   5.260  0.00  0.00     0.265 C 
HETATM    9  C   UNK N   1      31.855  16.115   5.996  0.00  0.00     0.061 C 
HETATM   10  O   UNK N   1      34.333  12.710   4.767  0.00  0.00    -0.312 OA
HETATM   11  C   UNK N   1      32.811  14.970   5.595  0.00  0.00     0.164 C 
HETATM   12  C   UNK N   1      33.585  13.335   3.785  0.00  0.00     0.168 C 
HETATM   13  C   UNK N   1      33.958  12.507   8.404  0.00  0.00     0.015 C 
HETATM   14  C   UNK N   1      31.608  14.615   9.427  0.00  0.00     0.016 C 
HETATM   15  C   UNK N   1      35.421  10.826   6.381  0.00  0.00     0.023 C 
HETATM   16  N   UNK N   1      30.792  17.125   7.914  0.00  0.00    -0.272 N 
ATOM     17  HN  UNK N   1      30.308  17.674   7.202  1.00  0.00     0.193 HD
HETATM   18  O   UNK N   1      36.135  14.054   4.887  0.00  0.00    -0.265 OA
HETATM   19  C   UNK N   1      32.305  17.448   5.412  0.00  0.00     0.019 C 
HETATM   20  C   UNK N   1      33.001  14.737   4.078  0.00  0.00     0.107 C 
HETATM   21  C   UNK N   1      34.567  15.453  10.047  0.00  0.00     0.081 C 
HETATM   22  C   UNK N   1      31.658  14.798   3.362  0.00  0.00     0.051 C 
HETATM   23  C   UNK N   1      35.535  16.511  10.539  0.00  0.00     0.049 C 
ENDROOT
BRANCH   1  24
HETATM   24  O   UNK N   1      36.029  13.575  10.707  0.00  0.00    -0.350 OA
BRANCH  24  25
HETATM   25  C   UNK N   1      35.058  13.130  11.634  0.00  0.00     0.291 C 
HETATM   26  C   UNK N   1      35.032  11.601  11.720  0.00  0.00     0.206 C 
HETATM   27  C   UNK N   1      36.199  11.029  12.557  0.00  0.00     0.257 C 
HETATM   28  C   UNK N   1      37.043  12.146  13.170  0.00  0.00     0.070 C 
HETATM   29  C   UNK N   1      36.145  13.228  13.773  0.00  0.00     0.122 C 
HETATM   30  O   UNK N   1      35.152  13.767  12.905  0.00  0.00    -0.354 OA
HETATM   31  C   UNK N   1      35.508  12.754  15.065  0.00  0.00     0.040 C 
BRANCH  26  32
HETATM   32  O   UNK N   1      33.828  11.196  12.296  0.00  0.00    -0.388 OA
HETATM   33  H   UNK N   1      32.882  11.241  12.508  0.00  0.00     0.210 HD
ENDBRANCH  26  32
BRANCH  27  34
HETATM   34  N   UNK N   1      37.076  10.111  11.818  0.00  0.00     0.087 N 
HETATM   35  C   UNK N   1      37.674   9.212  12.794  0.00  0.00     0.310 C 
HETATM   36  C   UNK N   1      36.327   9.253  10.913  0.00  0.00     0.310 C 
ENDBRANCH  27  34
ENDBRANCH  24  25
ENDBRANCH   1  24
BRANCH  21  37
HETATM   37  O   UNK N   1      33.761  15.109  11.124  0.00  0.00    -0.388 OA
HETATM   38  H   UNK N   1      33.896  15.192  12.082  0.00  0.00     0.210 HD
ENDBRANCH  21  37
BRANCH   4  39
HETATM   39  O   UNK N   1      36.993  11.817   8.537  0.00  0.00    -0.355 OA
BRANCH  39  40
HETATM   40  C   UNK N   1      38.161  12.393   9.073  0.00  0.00     0.263 C 
HETATM   41  C   UNK N   1      39.057  13.065   8.005  0.00  0.00     0.101 C 
HETATM   42  C   UNK N   1      39.871  12.040   7.179  0.00  0.00     0.089 C 
HETATM   43  C   UNK N   1      40.530  11.030   8.134  0.00  0.00     0.181 C 
HETATM   44  C   UNK N   1      38.918  11.264   6.284  0.00  0.00     0.049 C 
HETATM   45  C   UNK N   1      39.447  10.463   9.065  0.00  0.00     0.152 C 
HETATM   46  O   UNK N   1      38.886  11.477   9.879  0.00  0.00    -0.354 OA
HETATM   47  C   UNK N   1      40.037   9.367   9.927  0.00  0.00     0.042 C 
BRANCH  42  48
HETATM   48  O   UNK N   1      40.816  12.637   6.302  0.00  0.00    -0.383 OA
HETATM   49  C   UNK N   1      40.800  14.039   6.402  0.00  0.00     0.202 C 
ENDBRANCH  42  48
BRANCH  43  50
HETATM   50  O   UNK N   1      41.539  11.631   8.894  0.00  0.00    -0.390 OA
HETATM   51  H   UNK N   1      41.815  11.949   9.768  0.00  0.00     0.210 HD
ENDBRANCH  43  50
ENDBRANCH  39  40
ENDBRANCH   4  39
BRANCH  16  52
HETATM   52  O   UNK N   1      30.472  17.361   9.176  0.00  0.00    -0.255 OA
BRANCH  52  53
HETATM   53  C   UNK N   1      29.252  17.845   9.598  0.00  0.00     0.369 C 
BRANCH  53  54
HETATM   54  O   UNK N   1      28.988  19.045   8.934  0.00  0.00    -0.363 OA
BRANCH  54  55
HETATM   55  C   UNK N   1      27.821  18.818   8.205  0.00  0.00     0.196 C 
BRANCH  55  56
HETATM   56  C   UNK N   1      28.091  19.036   6.726  0.00  0.00     0.193 C 
BRANCH  56  57
HETATM   57  O   UNK N   1      27.039  19.753   6.153  0.00  0.00    -0.394 OA
HETATM   58  C   UNK N   1      27.389  21.094   6.317  0.00  0.00     0.201 C 
ENDBRANCH  56  57
ENDBRANCH  55  56
ENDBRANCH  54  55
ENDBRANCH  53  54
ENDBRANCH  52  53
ENDBRANCH  16  52
BRANCH  11  59
HETATM   59  O   UNK N   1      34.058  15.198   6.178  0.00  0.00    -0.392 OA
HETATM   60  H   UNK N   1      34.826  14.680   6.464  0.00  0.00     0.210 HD
ENDBRANCH  11  59
BRANCH  12  61
HETATM   61  C   UNK N   1      34.046  13.037   2.355  0.00  0.00     0.031 C 
HETATM   62  C   UNK N   1      33.366  11.815   1.767  0.00  0.00     0.007 C 
ENDBRANCH  12  61
BRANCH  20  63
HETATM   63  O   UNK N   1      33.834  15.730   3.555  0.00  0.00    -0.385 OA
HETATM   64  H   UNK N   1      34.474  16.155   2.964  0.00  0.00     0.210 HD
ENDBRANCH  20  63
TORSDOF 18
ENDMDL
MODEL 9
REMARK VINA RESULT:      -6.2      2.113      9.782
REMARK  18 active torsions:
REMARK  status: ('A' for Active; 'I' for Inactive)
REMARK    1  A    between atoms: C_1  and  O_13 
REMARK    2  A    between atoms: C_4  and  O_16 
REMARK    3  A    between atoms: C_11  and  O_37 
REMARK    4  A    between atoms: C_12  and  C_49 
REMARK    5  A    between atoms: C_15  and  O_13 
REMARK    6  A    between atoms: C_20  and  O_16 
REMARK    7  A    between atoms: C_17  and  O_23 
REMARK    8  A    between atoms: C_22  and  N_31 
REMARK    9  A    between atoms: N_25  and  O_42 
REMARK   10  A    between atoms: C_38  and  O_40 
REMARK   11  A    between atoms: C_41  and  O_51 
REMARK   12  A    between atoms: O_42  and  C_43 
REMARK   13  A    between atoms: C_43  and  O_44 
REMARK   14  A    between atoms: O_44  and  C_45 
REMARK   15  A    between atoms: C_45  and  C_46 
REMARK   16  A    between atoms: C_46  and  O_47 
REMARK   17  A    between atoms: C_54  and  O_56 
REMARK   18  A    between atoms: C_55  and  O_57 
ROOT
HETATM    1  C   UNK N   1      28.489  13.701   4.528  0.00  0.00     0.165 C 
HETATM    2  C   UNK N   1      28.558  15.256   4.513  0.00  0.00     0.043 C 
HETATM    3  C   UNK N   1      25.952  13.659   3.794  0.00  0.00     0.050 C 
HETATM    4  C   UNK N   1      29.427  15.866   5.651  0.00  0.00     0.144 C 
HETATM    5  C   UNK N   1      25.855  14.727   2.687  0.00  0.00     0.033 C 
HETATM    6  C   UNK N   1      29.348  17.413   5.762  0.00  0.00     0.111 C 
HETATM    7  C   UNK N   1      24.437  15.266   2.579  0.00  0.00     0.020 C 
HETATM    8  C   UNK N   1      27.957  17.977   5.846  0.00  0.00     0.265 C 
HETATM    9  C   UNK N   1      24.091  16.585   3.244  0.00  0.00     0.061 C 
HETATM   10  O   UNK N   1      27.527  18.792   4.846  0.00  0.00    -0.312 OA
HETATM   11  C   UNK N   1      25.303  17.293   3.886  0.00  0.00     0.164 C 
HETATM   12  C   UNK N   1      26.331  19.478   4.731  0.00  0.00     0.168 C 
HETATM   13  C   UNK N   1      28.852  15.837   3.135  0.00  0.00     0.015 C 
HETATM   14  C   UNK N   1      26.467  14.400   1.330  0.00  0.00     0.016 C 
HETATM   15  C   UNK N   1      30.138  18.096   4.651  0.00  0.00     0.023 C 
HETATM   16  N   UNK N   1      23.493  14.659   1.916  0.00  0.00    -0.272 N 
ATOM     17  HN  UNK N   1      22.573  15.099   1.914  1.00  0.00     0.193 HD
HETATM   18  O   UNK N   1      27.239  17.706   6.797  0.00  0.00    -0.265 OA
HETATM   19  C   UNK N   1      22.972  16.365   4.255  0.00  0.00     0.019 C 
HETATM   20  C   UNK N   1      25.028  18.670   4.533  0.00  0.00     0.107 C 
HETATM   21  C   UNK N   1      27.278  12.907   3.967  0.00  0.00     0.081 C 
HETATM   22  C   UNK N   1      24.138  19.511   3.627  0.00  0.00     0.051 C 
HETATM   23  C   UNK N   1      27.001  11.798   4.962  0.00  0.00     0.049 C 
ENDROOT
BRANCH   1  24
HETATM   24  O   UNK N   1      29.700  12.957   4.450  0.00  0.00    -0.350 OA
BRANCH  24  25
HETATM   25  C   UNK N   1      30.513  13.392   3.378  0.00  0.00     0.291 C 
HETATM   26  C   UNK N   1      31.963  12.934   3.560  0.00  0.00     0.206 C 
HETATM   27  C   UNK N   1      32.168  11.444   3.207  0.00  0.00     0.257 C 
HETATM   28  C   UNK N   1      30.880  10.816   2.673  0.00  0.00     0.070 C 
HETATM   29  C   UNK N   1      30.213  11.745   1.658  0.00  0.00     0.122 C 
HETATM   30  O   UNK N   1      29.978  13.079   2.095  0.00  0.00    -0.354 OA
HETATM   31  C   UNK N   1      30.968  11.751   0.342  0.00  0.00     0.040 C 
BRANCH  26  32
HETATM   32  O   UNK N   1      32.792  13.705   2.745  0.00  0.00    -0.388 OA
HETATM   33  H   UNK N   1      33.625  14.097   2.438  0.00  0.00     0.210 HD
ENDBRANCH  26  32
BRANCH  27  34
HETATM   34  N   UNK N   1      32.680  10.627   4.316  0.00  0.00     0.087 N 
HETATM   35  C   UNK N   1      31.574   9.810   4.793  0.00  0.00     0.310 C 
HETATM   36  C   UNK N   1      33.693   9.682   3.873  0.00  0.00     0.310 C 
ENDBRANCH  27  34
ENDBRANCH  24  25
ENDBRANCH   1  24
BRANCH  21  37
HETATM   37  O   UNK N   1      27.604  12.298   2.762  0.00  0.00    -0.388 OA
HETATM   38  H   UNK N   1      27.196  12.350   1.884  0.00  0.00     0.210 HD
ENDBRANCH  21  37
BRANCH   4  39
HETATM   39  O   UNK N   1      30.781  15.475   5.555  0.00  0.00    -0.355 OA
BRANCH  39  40
HETATM   40  C   UNK N   1      31.315  15.527   6.857  0.00  0.00     0.263 C 
HETATM   41  C   UNK N   1      32.246  16.742   7.088  0.00  0.00     0.101 C 
HETATM   42  C   UNK N   1      33.646  16.549   6.458  0.00  0.00     0.089 C 
HETATM   43  C   UNK N   1      34.182  15.156   6.830  0.00  0.00     0.181 C 
HETATM   44  C   UNK N   1      33.512  16.594   4.943  0.00  0.00     0.049 C 
HETATM   45  C   UNK N   1      33.112  14.112   6.471  0.00  0.00     0.152 C 
HETATM   46  O   UNK N   1      31.932  14.304   7.230  0.00  0.00    -0.354 OA
HETATM   47  C   UNK N   1      33.661  12.720   6.701  0.00  0.00     0.042 C 
BRANCH  42  48
HETATM   48  O   UNK N   1      34.567  17.579   6.789  0.00  0.00    -0.383 OA
HETATM   49  C   UNK N   1      34.151  18.300   7.922  0.00  0.00     0.202 C 
ENDBRANCH  42  48
BRANCH  43  50
HETATM   50  O   UNK N   1      34.483  15.074   8.194  0.00  0.00    -0.390 OA
HETATM   51  H   UNK N   1      35.165  15.154   8.879  0.00  0.00     0.210 HD
ENDBRANCH  43  50
ENDBRANCH  39  40
ENDBRANCH   4  39
BRANCH  16  52
HETATM   52  O   UNK N   1      23.617  13.523   1.249  0.00  0.00    -0.255 OA
BRANCH  52  53
HETATM   53  C   UNK N   1      23.060  12.322   1.634  0.00  0.00     0.369 C 
BRANCH  53  54
HETATM   54  O   UNK N   1      24.083  11.395   1.841  0.00  0.00    -0.363 OA
BRANCH  54  55
HETATM   55  C   UNK N   1      23.773  10.310   1.021  0.00  0.00     0.196 C 
BRANCH  55  56
HETATM   56  C   UNK N   1      25.051   9.710   0.459  0.00  0.00     0.193 C 
BRANCH  56  57
HETATM   57  O   UNK N   1      26.146  10.486   0.843  0.00  0.00    -0.394 OA
HETATM   58  C   UNK N   1      27.260   9.683   0.593  0.00  0.00     0.201 C 
ENDBRANCH  56  57
ENDBRANCH  55  56
ENDBRANCH  54  55
ENDBRANCH  53  54
ENDBRANCH  52  53
ENDBRANCH  16  52
BRANCH  11  59
HETATM   59  O   UNK N   1      25.865  16.447   4.843  0.00  0.00    -0.392 OA
HETATM   60  H   UNK N   1      25.565  15.794   5.495  0.00  0.00     0.210 HD
ENDBRANCH  11  59
BRANCH  12  61
HETATM   61  C   UNK N   1      26.258  20.761   5.565  0.00  0.00     0.031 C 
HETATM   62  C   UNK N   1      27.622  21.229   6.035  0.00  0.00     0.007 C 
ENDBRANCH  12  61
BRANCH  20  63
HETATM   63  O   UNK N   1      24.378  18.488   5.756  0.00  0.00    -0.385 OA
HETATM   64  H   UNK N   1      24.224  18.177   6.662  0.00  0.00     0.210 HD
ENDBRANCH  20  63
TORSDOF 18
ENDMDL
