MODEL 1
REMARK VINA RESULT:      -8.1      0.000      0.000
REMARK  10 active torsions:
REMARK  status: ('A' for Active; 'I' for Inactive)
REMARK    1  A    between atoms: C_4  and  C_9 
REMARK    2  A    between atoms: C_5  and  C_28 
REMARK    3  A    between atoms: C_7  and  N_12 
REMARK    4  A    between atoms: C_9  and  O_11 
REMARK       I    between atoms: N_12  and  C_13 
REMARK    5  A    between atoms: C_13  and  C_14 
REMARK    6  A    between atoms: C_14  and  C_25 
REMARK    7  A    between atoms: N_16  and  O_18 
REMARK    8  A    between atoms: C_22  and  N_26 
REMARK    9  A    between atoms: C_28  and  S_29 
REMARK   10  A    between atoms: S_29  and  C_31 
ROOT
HETATM    1  S   UNK N   1      30.216  16.027   5.635  0.00  0.00    -0.136 SA
HETATM    2  C   UNK N   1      30.969  17.114   6.879  0.00  0.00     0.187 A 
HETATM    3  N   UNK N   1      29.927  17.937   7.437  0.00  0.00    -0.293 N 
HETATM    4  C   UNK N   1      28.793  18.530   6.773  0.00  0.00     0.116 C 
HETATM    5  C   UNK N   1      28.664  18.308   5.428  0.00  0.00    -0.027 C 
HETATM    6  C   UNK N   1      29.715  17.499   4.699  0.00  0.00     0.113 C 
HETATM    7  C   UNK N   1      31.720  17.255   8.310  0.00  0.00     0.211 A 
HETATM    8  C   UNK N   1      30.474  18.018   8.616  0.00  0.00     0.251 A 
HETATM    9  O   UNK N   1      30.116  18.655   9.593  0.00  0.00    -0.271 OA
ENDROOT
BRANCH   7  10
HETATM   10  N   UNK N   1      32.801  18.222   8.239  0.00  0.00    -0.340 N 
HETATM   11  C   UNK N   1      34.116  17.871   8.281  0.00  0.00     0.273 C 
HETATM   12  O   UNK N   1      34.945  18.729   8.537  0.00  0.00    -0.266 OA
HETATM   13  H   UNK N   1      32.572  19.176   8.156  0.00  0.00     0.163 HD
BRANCH  11  14
HETATM   14  C   UNK N   1      34.538  16.441   8.205  0.00  0.00     0.149 C 
HETATM   15  N   UNK N   1      34.699  15.835   7.075  0.00  0.00    -0.260 N 
ATOM     16  HN  UNK N   1      34.888  14.833   7.070  1.00  0.00     0.194 HD
BRANCH  14  17
HETATM   17  C   UNK N   1      34.778  15.696   9.446  0.00  0.00     0.075 A 
HETATM   18  C   UNK N   1      34.219  14.419   9.665  0.00  0.00     0.085 A 
HETATM   19  S   UNK N   1      34.731  13.987  11.181  0.00  0.00    -0.064 SA
HETATM   20  C   UNK N   1      35.624  15.328  11.507  0.00  0.00     0.142 A 
HETATM   21  N   UNK N   1      35.550  16.199  10.475  0.00  0.00    -0.335 N 
ATOM     22  HN  UNK N   1      36.006  17.110  10.456  1.00  0.00     0.168 HD
BRANCH  20  23
HETATM   23  N   UNK N   1      36.412  15.531  12.657  0.00  0.00    -0.380 N 
HETATM   24  H   UNK N   1      36.206  15.232  13.572  0.00  0.00     0.158 HD
HETATM   25  H   UNK N   1      37.255  16.021  12.532  0.00  0.00     0.158 HD
ENDBRANCH  20  23
ENDBRANCH  14  17
BRANCH  15  26
HETATM   26  O   UNK N   1      34.622  16.481   5.928  0.00  0.00    -0.285 OA
HETATM   27  C   UNK N   1      33.956  15.933   4.864  0.00  0.00     0.237 C 
ENDBRANCH  15  26
ENDBRANCH  11  14
ENDBRANCH   7  10
BRANCH   4  28
HETATM   28  C   UNK N   1      27.805  19.381   7.537  0.00  0.00     0.194 C 
HETATM   29  O   UNK N   1      27.409  20.434   7.075  0.00  0.00    -0.645 OA
BRANCH  28  30
HETATM   30  O   UNK N   1      27.337  19.001   8.741  0.00  0.00    -0.772 OA
HETATM   31  H   UNK N   1      26.634  19.470   9.147  0.00  0.00     0.167 HD
ENDBRANCH  28  30
ENDBRANCH   4  28
BRANCH   5  32
HETATM   32  C   UNK N   1      27.534  18.911   4.628  0.00  0.00     0.120 C 
BRANCH  32  33
HETATM   33  S   UNK N   1      26.014  17.907   4.557  0.00  0.00    -0.087 SA
BRANCH  33  34
HETATM   34  C   UNK N   1      25.154  19.189   3.658  0.00  0.00     0.175 A 
HETATM   35  N   UNK N   1      23.829  19.373   3.633  0.00  0.00    -0.262 N 
HETATM   36  N   UNK N   1      23.606  20.424   2.865  0.00  0.00    -0.223 N 
HETATM   37  C   UNK N   1      22.800  18.596   4.301  0.00  0.00     0.181 C 
HETATM   38  N   UNK N   1      24.772  20.881   2.424  0.00  0.00    -0.005 NA
ATOM     39  HN  UNK N   1      22.691  20.817   2.648  1.00  0.00     0.206 HD
HETATM   40  N   UNK N   1      25.753  20.127   2.903  0.00  0.00    -0.261 N 
ATOM     41  HN  UNK N   1      26.754  20.237   2.735  1.00  0.00     0.186 HD
ENDBRANCH  33  34
ENDBRANCH  32  33
ENDBRANCH   5  32
TORSDOF 10
ENDMDL
MODEL 2
REMARK VINA RESULT:      -8.0      2.898      9.548
REMARK  10 active torsions:
REMARK  status: ('A' for Active; 'I' for Inactive)
REMARK    1  A    between atoms: C_4  and  C_9 
REMARK    2  A    between atoms: C_5  and  C_28 
REMARK    3  A    between atoms: C_7  and  N_12 
REMARK    4  A    between atoms: C_9  and  O_11 
REMARK       I    between atoms: N_12  and  C_13 
REMARK    5  A    between atoms: C_13  and  C_14 
REMARK    6  A    between atoms: C_14  and  C_25 
REMARK    7  A    between atoms: N_16  and  O_18 
REMARK    8  A    between atoms: C_22  and  N_26 
REMARK    9  A    between atoms: C_28  and  S_29 
REMARK   10  A    between atoms: S_29  and  C_31 
ROOT
HETATM    1  S   UNK N   1      33.831  15.894   5.001  0.00  0.00    -0.136 SA
HETATM    2  C   UNK N   1      32.410  16.274   6.066  0.00  0.00     0.187 A 
HETATM    3  N   UNK N   1      32.915  16.644   7.363  0.00  0.00    -0.293 N 
HETATM    4  C   UNK N   1      34.036  16.097   8.084  0.00  0.00     0.116 C 
HETATM    5  C   UNK N   1      34.734  15.080   7.487  0.00  0.00    -0.027 C 
HETATM    6  C   UNK N   1      34.285  14.556   6.140  0.00  0.00     0.113 C 
HETATM    7  C   UNK N   1      31.147  17.242   6.382  0.00  0.00     0.211 A 
HETATM    8  C   UNK N   1      31.946  17.476   7.622  0.00  0.00     0.251 A 
HETATM    9  O   UNK N   1      31.725  18.114   8.637  0.00  0.00    -0.271 OA
ENDROOT
BRANCH   7  10
HETATM   10  N   UNK N   1      29.981  16.469   6.772  0.00  0.00    -0.340 N 
HETATM   11  C   UNK N   1      28.718  16.772   6.362  0.00  0.00     0.273 C 
HETATM   12  O   UNK N   1      27.774  16.293   6.968  0.00  0.00    -0.266 OA
HETATM   13  H   UNK N   1      30.110  15.688   7.358  0.00  0.00     0.163 HD
BRANCH  11  14
HETATM   14  C   UNK N   1      28.472  17.811   5.320  0.00  0.00     0.149 C 
HETATM   15  N   UNK N   1      28.782  17.622   4.079  0.00  0.00    -0.260 N 
ATOM     16  HN  UNK N   1      28.691  18.395   3.420  1.00  0.00     0.194 HD
BRANCH  14  17
HETATM   17  C   UNK N   1      27.860  19.088   5.708  0.00  0.00     0.075 A 
HETATM   18  C   UNK N   1      27.889  20.214   4.859  0.00  0.00     0.085 A 
HETATM   19  S   UNK N   1      27.113  21.406   5.710  0.00  0.00    -0.064 SA
HETATM   20  C   UNK N   1      26.746  20.523   7.048  0.00  0.00     0.142 A 
HETATM   21  N   UNK N   1      27.231  19.267   6.924  0.00  0.00    -0.335 N 
ATOM     22  HN  UNK N   1      27.143  18.544   7.637  1.00  0.00     0.168 HD
BRANCH  20  23
HETATM   23  N   UNK N   1      25.982  20.972   8.143  0.00  0.00    -0.380 N 
HETATM   24  H   UNK N   1      25.978  21.878   8.527  0.00  0.00     0.158 HD
HETATM   25  H   UNK N   1      25.390  20.311   8.567  0.00  0.00     0.158 HD
ENDBRANCH  20  23
ENDBRANCH  14  17
BRANCH  15  26
HETATM   26  O   UNK N   1      29.217  16.455   3.646  0.00  0.00    -0.285 OA
HETATM   27  C   UNK N   1      30.368  16.372   2.907  0.00  0.00     0.237 C 
ENDBRANCH  15  26
ENDBRANCH  11  14
ENDBRANCH   7  10
BRANCH   4  28
HETATM   28  C   UNK N   1      34.405  16.617   9.455  0.00  0.00     0.194 C 
HETATM   29  O   UNK N   1      35.156  17.567   9.574  0.00  0.00    -0.645 OA
BRANCH  28  30
HETATM   30  O   UNK N   1      33.917  16.050  10.573  0.00  0.00    -0.772 OA
HETATM   31  H   UNK N   1      34.474  15.542  11.131  0.00  0.00     0.167 HD
ENDBRANCH  28  30
ENDBRANCH   4  28
BRANCH   5  32
HETATM   32  C   UNK N   1      35.903  14.411   8.169  0.00  0.00     0.120 C 
BRANCH  32  33
HETATM   33  S   UNK N   1      35.633  12.668   8.635  0.00  0.00    -0.087 SA
BRANCH  33  34
HETATM   34  C   UNK N   1      35.556  13.096  10.368  0.00  0.00     0.175 A 
HETATM   35  N   UNK N   1      36.606  13.240  11.186  0.00  0.00    -0.262 N 
HETATM   36  N   UNK N   1      36.123  13.564  12.370  0.00  0.00    -0.223 N 
HETATM   37  C   UNK N   1      38.016  13.079  10.876  0.00  0.00     0.181 C 
HETATM   38  N   UNK N   1      34.800  13.620  12.286  0.00  0.00    -0.005 NA
ATOM     39  HN  UNK N   1      36.676  13.741  13.209  1.00  0.00     0.206 HD
HETATM   40  N   UNK N   1      34.421  13.332  11.048  0.00  0.00    -0.261 N 
ATOM     41  HN  UNK N   1      33.467  13.295  10.687  1.00  0.00     0.186 HD
ENDBRANCH  33  34
ENDBRANCH  32  33
ENDBRANCH   5  32
TORSDOF 10
ENDMDL
MODEL 3
REMARK VINA RESULT:      -7.8      2.026      2.415
REMARK  10 active torsions:
REMARK  status: ('A' for Active; 'I' for Inactive)
REMARK    1  A    between atoms: C_4  and  C_9 
REMARK    2  A    between atoms: C_5  and  C_28 
REMARK    3  A    between atoms: C_7  and  N_12 
REMARK    4  A    between atoms: C_9  and  O_11 
REMARK       I    between atoms: N_12  and  C_13 
REMARK    5  A    between atoms: C_13  and  C_14 
REMARK    6  A    between atoms: C_14  and  C_25 
REMARK    7  A    between atoms: N_16  and  O_18 
REMARK    8  A    between atoms: C_22  and  N_26 
REMARK    9  A    between atoms: C_28  and  S_29 
REMARK   10  A    between atoms: S_29  and  C_31 
ROOT
HETATM    1  S   UNK N   1      31.311  14.957   5.775  0.00  0.00    -0.136 SA
HETATM    2  C   UNK N   1      31.717  16.060   7.159  0.00  0.00     0.187 A 
HETATM    3  N   UNK N   1      30.517  16.763   7.532  0.00  0.00    -0.293 N 
HETATM    4  C   UNK N   1      29.471  17.275   6.683  0.00  0.00     0.116 C 
HETATM    5  C   UNK N   1      29.610  17.094   5.332  0.00  0.00    -0.027 C 
HETATM    6  C   UNK N   1      30.849  16.411   4.794  0.00  0.00     0.113 C 
HETATM    7  C   UNK N   1      32.179  16.215   8.707  0.00  0.00     0.211 A 
HETATM    8  C   UNK N   1      30.830  16.850   8.793  0.00  0.00     0.251 A 
HETATM    9  O   UNK N   1      30.241  17.414   9.700  0.00  0.00    -0.271 OA
ENDROOT
BRANCH   7  10
HETATM   10  N   UNK N   1      33.156  17.278   8.856  0.00  0.00    -0.340 N 
HETATM   11  C   UNK N   1      34.472  17.046   9.123  0.00  0.00     0.273 C 
HETATM   12  O   UNK N   1      35.156  17.964   9.547  0.00  0.00    -0.266 OA
HETATM   13  H   UNK N   1      32.854  18.210   8.759  0.00  0.00     0.163 HD
BRANCH  11  14
HETATM   14  C   UNK N   1      35.037  15.665   9.086  0.00  0.00     0.149 C 
HETATM   15  N   UNK N   1      35.338  15.081   7.973  0.00  0.00    -0.260 N 
ATOM     16  HN  UNK N   1      35.626  14.102   7.988  1.00  0.00     0.194 HD
BRANCH  14  17
HETATM   17  C   UNK N   1      35.258  14.945  10.345  0.00  0.00     0.075 A 
HETATM   18  C   UNK N   1      34.813  13.619  10.530  0.00  0.00     0.085 A 
HETATM   19  S   UNK N   1      35.254  13.237  12.081  0.00  0.00    -0.064 SA
HETATM   20  C   UNK N   1      35.986  14.659  12.463  0.00  0.00     0.142 A 
HETATM   21  N   UNK N   1      35.901  15.520  11.424  0.00  0.00    -0.335 N 
ATOM     22  HN  UNK N   1      36.267  16.472  11.433  1.00  0.00     0.168 HD
BRANCH  20  23
HETATM   23  N   UNK N   1      36.664  14.936  13.666  0.00  0.00    -0.380 N 
HETATM   24  H   UNK N   1      37.249  15.706  13.849  0.00  0.00     0.158 HD
HETATM   25  H   UNK N   1      36.541  14.292  14.399  0.00  0.00     0.158 HD
ENDBRANCH  20  23
ENDBRANCH  14  17
BRANCH  15  26
HETATM   26  O   UNK N   1      35.282  15.718   6.821  0.00  0.00    -0.285 OA
HETATM   27  C   UNK N   1      35.158  15.022   5.647  0.00  0.00     0.237 C 
ENDBRANCH  15  26
ENDBRANCH  11  14
ENDBRANCH   7  10
BRANCH   4  28
HETATM   28  C   UNK N   1      28.283  18.004   7.269  0.00  0.00     0.194 C 
HETATM   29  O   UNK N   1      28.234  19.220   7.251  0.00  0.00    -0.645 OA
BRANCH  28  30
HETATM   30  O   UNK N   1      27.254  17.335   7.820  0.00  0.00    -0.772 OA
HETATM   31  H   UNK N   1      26.747  17.725   8.506  0.00  0.00     0.167 HD
ENDBRANCH  28  30
ENDBRANCH   4  28
BRANCH   5  32
HETATM   32  C   UNK N   1      28.592  17.622   4.350  0.00  0.00     0.120 C 
BRANCH  32  33
HETATM   33  S   UNK N   1      27.697  16.346   3.402  0.00  0.00    -0.087 SA
BRANCH  33  34
HETATM   34  C   UNK N   1      26.516  16.128   4.725  0.00  0.00     0.175 A 
HETATM   35  N   UNK N   1      25.423  16.872   4.928  0.00  0.00    -0.262 N 
HETATM   36  N   UNK N   1      24.822  16.381   5.995  0.00  0.00    -0.223 N 
HETATM   37  C   UNK N   1      24.950  18.006   4.154  0.00  0.00     0.181 C 
HETATM   38  N   UNK N   1      25.531  15.352   6.444  0.00  0.00    -0.005 NA
ATOM     39  HN  UNK N   1      23.959  16.734   6.406  1.00  0.00     0.206 HD
HETATM   40  N   UNK N   1      26.593  15.174   5.669  0.00  0.00    -0.261 N 
ATOM     41  HN  UNK N   1      27.318  14.462   5.770  1.00  0.00     0.186 HD
ENDBRANCH  33  34
ENDBRANCH  32  33
ENDBRANCH   5  32
TORSDOF 10
ENDMDL
MODEL 4
REMARK VINA RESULT:      -7.3      3.812     10.871
REMARK  10 active torsions:
REMARK  status: ('A' for Active; 'I' for Inactive)
REMARK    1  A    between atoms: C_4  and  C_9 
REMARK    2  A    between atoms: C_5  and  C_28 
REMARK    3  A    between atoms: C_7  and  N_12 
REMARK    4  A    between atoms: C_9  and  O_11 
REMARK       I    between atoms: N_12  and  C_13 
REMARK    5  A    between atoms: C_13  and  C_14 
REMARK    6  A    between atoms: C_14  and  C_25 
REMARK    7  A    between atoms: N_16  and  O_18 
REMARK    8  A    between atoms: C_22  and  N_26 
REMARK    9  A    between atoms: C_28  and  S_29 
REMARK   10  A    between atoms: S_29  and  C_31 
ROOT
HETATM    1  S   UNK N   1      26.091  15.627   4.091  0.00  0.00    -0.136 SA
HETATM    2  C   UNK N   1      24.985  16.956   4.645  0.00  0.00     0.187 A 
HETATM    3  N   UNK N   1      25.689  18.205   4.505  0.00  0.00    -0.293 N 
HETATM    4  C   UNK N   1      27.082  18.487   4.742  0.00  0.00     0.116 C 
HETATM    5  C   UNK N   1      27.871  17.452   5.169  0.00  0.00    -0.027 C 
HETATM    6  C   UNK N   1      27.253  16.090   5.405  0.00  0.00     0.113 C 
HETATM    7  C   UNK N   1      23.622  17.802   4.406  0.00  0.00     0.211 A 
HETATM    8  C   UNK N   1      24.619  18.903   4.249  0.00  0.00     0.251 A 
HETATM    9  O   UNK N   1      24.500  20.105   4.083  0.00  0.00    -0.271 OA
ENDROOT
BRANCH   7  10
HETATM   10  N   UNK N   1      22.927  18.038   5.659  0.00  0.00    -0.340 N 
HETATM   11  C   UNK N   1      21.578  18.210   5.739  0.00  0.00     0.273 C 
HETATM   12  O   UNK N   1      21.109  18.713   6.747  0.00  0.00    -0.266 OA
HETATM   13  H   UNK N   1      23.456  18.076   6.488  0.00  0.00     0.163 HD
BRANCH  11  14
HETATM   14  C   UNK N   1      20.696  17.969   4.559  0.00  0.00     0.149 C 
HETATM   15  N   UNK N   1      20.435  18.900   3.701  0.00  0.00    -0.260 N 
ATOM     16  HN  UNK N   1      19.748  18.722   2.968  1.00  0.00     0.194 HD
BRANCH  14  17
HETATM   17  C   UNK N   1      20.103  16.641   4.364  0.00  0.00     0.075 A 
HETATM   18  C   UNK N   1      19.461  15.953   5.414  0.00  0.00     0.085 A 
HETATM   19  S   UNK N   1      18.980  14.514   4.746  0.00  0.00    -0.064 SA
HETATM   20  C   UNK N   1      19.532  14.780   3.220  0.00  0.00     0.142 A 
HETATM   21  N   UNK N   1      20.147  15.983   3.151  0.00  0.00    -0.335 N 
ATOM     22  HN  UNK N   1      20.585  16.357   2.310  1.00  0.00     0.168 HD
BRANCH  20  23
HETATM   23  N   UNK N   1      19.343  13.924   2.119  0.00  0.00    -0.380 N 
HETATM   24  H   UNK N   1      18.757  14.080   1.343  0.00  0.00     0.158 HD
HETATM   25  H   UNK N   1      19.851  13.081   2.123  0.00  0.00     0.158 HD
ENDBRANCH  20  23
ENDBRANCH  14  17
BRANCH  15  26
HETATM   26  O   UNK N   1      21.034  20.073   3.751  0.00  0.00    -0.285 OA
HETATM   27  C   UNK N   1      21.291  20.772   2.600  0.00  0.00     0.237 C 
ENDBRANCH  15  26
ENDBRANCH  11  14
ENDBRANCH   7  10
BRANCH   4  28
HETATM   28  C   UNK N   1      27.635  19.881   4.549  0.00  0.00     0.194 C 
HETATM   29  O   UNK N   1      27.788  20.623   5.500  0.00  0.00    -0.645 OA
BRANCH  28  30
HETATM   30  O   UNK N   1      27.974  20.336   3.328  0.00  0.00    -0.772 OA
HETATM   31  H   UNK N   1      28.630  19.897   2.822  0.00  0.00     0.167 HD
ENDBRANCH  28  30
ENDBRANCH   4  28
BRANCH   5  32
HETATM   32  C   UNK N   1      29.335  17.644   5.481  0.00  0.00     0.120 C 
BRANCH  32  33
HETATM   33  S   UNK N   1      30.085  16.339   6.512  0.00  0.00    -0.087 SA
BRANCH  33  34
HETATM   34  C   UNK N   1      29.862  17.316   7.991  0.00  0.00     0.175 A 
HETATM   35  N   UNK N   1      30.834  17.929   8.677  0.00  0.00    -0.262 N 
HETATM   36  N   UNK N   1      30.253  18.544   9.690  0.00  0.00    -0.223 N 
HETATM   37  C   UNK N   1      32.259  17.943   8.400  0.00  0.00     0.181 C 
HETATM   38  N   UNK N   1      28.947  18.316   9.631  0.00  0.00    -0.005 NA
ATOM     39  HN  UNK N   1      30.729  19.101  10.399  1.00  0.00     0.206 HD
HETATM   40  N   UNK N   1      28.677  17.551   8.581  0.00  0.00    -0.261 N 
ATOM     41  HN  UNK N   1      27.762  17.212   8.283  1.00  0.00     0.186 HD
ENDBRANCH  33  34
ENDBRANCH  32  33
ENDBRANCH   5  32
TORSDOF 10
ENDMDL
MODEL 5
REMARK VINA RESULT:      -7.3      3.531     10.913
REMARK  10 active torsions:
REMARK  status: ('A' for Active; 'I' for Inactive)
REMARK    1  A    between atoms: C_4  and  C_9 
REMARK    2  A    between atoms: C_5  and  C_28 
REMARK    3  A    between atoms: C_7  and  N_12 
REMARK    4  A    between atoms: C_9  and  O_11 
REMARK       I    between atoms: N_12  and  C_13 
REMARK    5  A    between atoms: C_13  and  C_14 
REMARK    6  A    between atoms: C_14  and  C_25 
REMARK    7  A    between atoms: N_16  and  O_18 
REMARK    8  A    between atoms: C_22  and  N_26 
REMARK    9  A    between atoms: C_28  and  S_29 
REMARK   10  A    between atoms: S_29  and  C_31 
ROOT
HETATM    1  S   UNK N   1      26.085  15.379   4.595  0.00  0.00    -0.136 SA
HETATM    2  C   UNK N   1      25.016  16.779   5.035  0.00  0.00     0.187 A 
HETATM    3  N   UNK N   1      25.802  17.982   4.942  0.00  0.00    -0.293 N 
HETATM    4  C   UNK N   1      27.183  18.187   5.297  0.00  0.00     0.116 C 
HETATM    5  C   UNK N   1      27.870  17.114   5.803  0.00  0.00    -0.027 C 
HETATM    6  C   UNK N   1      27.154  15.796   6.001  0.00  0.00     0.113 C 
HETATM    7  C   UNK N   1      23.731  17.699   4.667  0.00  0.00     0.211 A 
HETATM    8  C   UNK N   1      24.802  18.737   4.585  0.00  0.00     0.251 A 
HETATM    9  O   UNK N   1      24.770  19.941   4.396  0.00  0.00    -0.271 OA
ENDROOT
BRANCH   7  10
HETATM   10  N   UNK N   1      22.945  17.996   5.851  0.00  0.00    -0.340 N 
HETATM   11  C   UNK N   1      21.600  18.203   5.817  0.00  0.00     0.273 C 
HETATM   12  O   UNK N   1      21.066  18.753   6.767  0.00  0.00    -0.266 OA
HETATM   13  H   UNK N   1      23.407  18.049   6.719  0.00  0.00     0.163 HD
BRANCH  11  14
HETATM   14  C   UNK N   1      20.808  17.943   4.579  0.00  0.00     0.149 C 
HETATM   15  N   UNK N   1      20.622  18.856   3.684  0.00  0.00    -0.260 N 
ATOM     16  HN  UNK N   1      19.991  18.667   2.904  1.00  0.00     0.194 HD
BRANCH  14  17
HETATM   17  C   UNK N   1      20.220  16.615   4.367  0.00  0.00     0.075 A 
HETATM   18  C   UNK N   1      19.893  15.767   5.445  0.00  0.00     0.085 A 
HETATM   19  S   UNK N   1      19.293  14.394   4.738  0.00  0.00    -0.064 SA
HETATM   20  C   UNK N   1      19.421  14.875   3.171  0.00  0.00     0.142 A 
HETATM   21  N   UNK N   1      19.964  16.112   3.107  0.00  0.00    -0.335 N 
ATOM     22  HN  UNK N   1      20.158  16.611   2.239  1.00  0.00     0.168 HD
BRANCH  20  23
HETATM   23  N   UNK N   1      18.974  14.148   2.050  0.00  0.00    -0.380 N 
HETATM   24  H   UNK N   1      18.721  13.197   2.027  0.00  0.00     0.158 HD
HETATM   25  H   UNK N   1      18.907  14.643   1.202  0.00  0.00     0.158 HD
ENDBRANCH  20  23
ENDBRANCH  14  17
BRANCH  15  26
HETATM   26  O   UNK N   1      21.225  20.026   3.754  0.00  0.00    -0.285 OA
HETATM   27  C   UNK N   1      21.776  20.593   2.635  0.00  0.00     0.237 C 
ENDBRANCH  15  26
ENDBRANCH  11  14
ENDBRANCH   7  10
BRANCH   4  28
HETATM   28  C   UNK N   1      27.833  19.542   5.137  0.00  0.00     0.194 C 
HETATM   29  O   UNK N   1      27.754  20.374   6.021  0.00  0.00    -0.645 OA
BRANCH  28  30
HETATM   30  O   UNK N   1      28.515  19.865   4.022  0.00  0.00    -0.772 OA
HETATM   31  H   UNK N   1      29.222  19.326   3.724  0.00  0.00     0.167 HD
ENDBRANCH  28  30
ENDBRANCH   4  28
BRANCH   5  32
HETATM   32  C   UNK N   1      29.310  17.227   6.241  0.00  0.00     0.120 C 
BRANCH  32  33
HETATM   33  S   UNK N   1      30.332  15.750   5.925  0.00  0.00    -0.087 SA
BRANCH  33  34
HETATM   34  C   UNK N   1      31.836  16.706   6.058  0.00  0.00     0.175 A 
HETATM   35  N   UNK N   1      32.478  16.999   7.195  0.00  0.00    -0.262 N 
HETATM   36  N   UNK N   1      33.538  17.709   6.859  0.00  0.00    -0.223 N 
HETATM   37  C   UNK N   1      32.116  16.633   8.553  0.00  0.00     0.181 C 
HETATM   38  N   UNK N   1      33.552  17.852   5.540  0.00  0.00    -0.005 NA
ATOM     39  HN  UNK N   1      34.230  18.086   7.507  1.00  0.00     0.206 HD
HETATM   40  N   UNK N   1      32.500  17.236   5.016  0.00  0.00    -0.261 N 
ATOM     41  HN  UNK N   1      32.248  17.176   4.029  1.00  0.00     0.186 HD
ENDBRANCH  33  34
ENDBRANCH  32  33
ENDBRANCH   5  32
TORSDOF 10
ENDMDL
MODEL 6
REMARK VINA RESULT:      -7.2      5.459      9.137
REMARK  10 active torsions:
REMARK  status: ('A' for Active; 'I' for Inactive)
REMARK    1  A    between atoms: C_4  and  C_9 
REMARK    2  A    between atoms: C_5  and  C_28 
REMARK    3  A    between atoms: C_7  and  N_12 
REMARK    4  A    between atoms: C_9  and  O_11 
REMARK       I    between atoms: N_12  and  C_13 
REMARK    5  A    between atoms: C_13  and  C_14 
REMARK    6  A    between atoms: C_14  and  C_25 
REMARK    7  A    between atoms: N_16  and  O_18 
REMARK    8  A    between atoms: C_22  and  N_26 
REMARK    9  A    between atoms: C_28  and  S_29 
REMARK   10  A    between atoms: S_29  and  C_31 
ROOT
HETATM    1  S   UNK N   1      33.974  11.739   9.777  0.00  0.00    -0.136 SA
HETATM    2  C   UNK N   1      35.031  12.090  11.211  0.00  0.00     0.187 A 
HETATM    3  N   UNK N   1      35.204  13.517  11.294  0.00  0.00    -0.293 N 
HETATM    4  C   UNK N   1      35.360  14.470  10.225  0.00  0.00     0.116 C 
HETATM    5  C   UNK N   1      35.356  13.986   8.943  0.00  0.00    -0.027 C 
HETATM    6  C   UNK N   1      35.229  12.497   8.708  0.00  0.00     0.113 C 
HETATM    7  C   UNK N   1      35.217  12.065  12.822  0.00  0.00     0.211 A 
HETATM    8  C   UNK N   1      35.297  13.538  12.593  0.00  0.00     0.251 A 
HETATM    9  O   UNK N   1      35.524  14.477  13.338  0.00  0.00    -0.271 OA
ENDROOT
BRANCH   7  10
HETATM   10  N   UNK N   1      36.551  11.622  13.187  0.00  0.00    -0.340 N 
HETATM   11  C   UNK N   1      36.853  11.101  14.409  0.00  0.00     0.273 C 
HETATM   12  O   UNK N   1      38.023  11.052  14.753  0.00  0.00    -0.266 OA
HETATM   13  H   UNK N   1      37.270  11.701  12.519  0.00  0.00     0.163 HD
BRANCH  11  14
HETATM   14  C   UNK N   1      35.782  10.768  15.394  0.00  0.00     0.149 C 
HETATM   15  N   UNK N   1      35.040   9.718  15.266  0.00  0.00    -0.260 N 
ATOM     16  HN  UNK N   1      34.255   9.582  15.904  1.00  0.00     0.194 HD
BRANCH  14  17
HETATM   17  C   UNK N   1      35.560  11.655  16.542  0.00  0.00     0.075 A 
HETATM   18  C   UNK N   1      35.317  13.035  16.378  0.00  0.00     0.085 A 
HETATM   19  S   UNK N   1      35.155  13.622  17.918  0.00  0.00    -0.064 SA
HETATM   20  C   UNK N   1      35.352  12.201  18.722  0.00  0.00     0.142 A 
HETATM   21  N   UNK N   1      35.586  11.199  17.845  0.00  0.00    -0.335 N 
ATOM     22  HN  UNK N   1      35.758  10.230  18.111  1.00  0.00     0.168 HD
BRANCH  20  23
HETATM   23  N   UNK N   1      35.231  12.022  20.114  0.00  0.00    -0.380 N 
HETATM   24  H   UNK N   1      34.796  12.633  20.751  0.00  0.00     0.158 HD
HETATM   25  H   UNK N   1      35.623  11.201  20.488  0.00  0.00     0.158 HD
ENDBRANCH  20  23
ENDBRANCH  14  17
BRANCH  15  26
HETATM   26  O   UNK N   1      35.271   8.818  14.331  0.00  0.00    -0.285 OA
HETATM   27  C   UNK N   1      35.866   7.625  14.646  0.00  0.00     0.237 C 
ENDBRANCH  15  26
ENDBRANCH  11  14
ENDBRANCH   7  10
BRANCH   4  28
HETATM   28  C   UNK N   1      35.545  15.942  10.518  0.00  0.00     0.194 C 
HETATM   29  O   UNK N   1      36.657  16.401  10.698  0.00  0.00    -0.645 OA
BRANCH  28  30
HETATM   30  O   UNK N   1      34.493  16.780  10.587  0.00  0.00    -0.772 OA
HETATM   31  H   UNK N   1      34.533  17.549  11.121  0.00  0.00     0.167 HD
ENDBRANCH  28  30
ENDBRANCH   4  28
BRANCH   5  32
HETATM   32  C   UNK N   1      35.547  14.892   7.751  0.00  0.00     0.120 C 
BRANCH  32  33
HETATM   33  S   UNK N   1      34.088  15.068   6.670  0.00  0.00    -0.087 SA
BRANCH  33  34
HETATM   34  C   UNK N   1      33.657  16.626   7.430  0.00  0.00     0.175 A 
HETATM   35  N   UNK N   1      32.439  16.975   7.862  0.00  0.00    -0.262 N 
HETATM   36  N   UNK N   1      32.547  18.192   8.360  0.00  0.00    -0.223 N 
HETATM   37  C   UNK N   1      31.211  16.202   7.811  0.00  0.00     0.181 C 
HETATM   38  N   UNK N   1      33.809  18.588   8.240  0.00  0.00    -0.005 NA
ATOM     39  HN  UNK N   1      31.788  18.736   8.769  1.00  0.00     0.206 HD
HETATM   40  N   UNK N   1      34.521  17.630   7.662  0.00  0.00    -0.261 N 
ATOM     41  HN  UNK N   1      35.517  17.650   7.439  1.00  0.00     0.186 HD
ENDBRANCH  33  34
ENDBRANCH  32  33
ENDBRANCH   5  32
TORSDOF 10
ENDMDL
MODEL 7
REMARK VINA RESULT:      -7.1      5.887      8.980
REMARK  10 active torsions:
REMARK  status: ('A' for Active; 'I' for Inactive)
REMARK    1  A    between atoms: C_4  and  C_9 
REMARK    2  A    between atoms: C_5  and  C_28 
REMARK    3  A    between atoms: C_7  and  N_12 
REMARK    4  A    between atoms: C_9  and  O_11 
REMARK       I    between atoms: N_12  and  C_13 
REMARK    5  A    between atoms: C_13  and  C_14 
REMARK    6  A    between atoms: C_14  and  C_25 
REMARK    7  A    between atoms: N_16  and  O_18 
REMARK    8  A    between atoms: C_22  and  N_26 
REMARK    9  A    between atoms: C_28  and  S_29 
REMARK   10  A    between atoms: S_29  and  C_31 
ROOT
HETATM    1  S   UNK N   1      23.696  15.067   5.274  0.00  0.00    -0.136 SA
HETATM    2  C   UNK N   1      23.529  16.787   4.719  0.00  0.00     0.187 A 
HETATM    3  N   UNK N   1      22.125  17.071   4.571  0.00  0.00    -0.293 N 
HETATM    4  C   UNK N   1      21.077  16.210   4.082  0.00  0.00     0.116 C 
HETATM    5  C   UNK N   1      21.432  14.948   3.687  0.00  0.00    -0.027 C 
HETATM    6  C   UNK N   1      22.886  14.528   3.742  0.00  0.00     0.113 C 
HETATM    7  C   UNK N   1      23.720  18.364   5.048  0.00  0.00     0.211 A 
HETATM    8  C   UNK N   1      22.235  18.329   4.891  0.00  0.00     0.251 A 
HETATM    9  O   UNK N   1      21.383  19.202   4.903  0.00  0.00    -0.271 OA
ENDROOT
BRANCH   7  10
HETATM   10  N   UNK N   1      24.248  19.078   3.898  0.00  0.00    -0.340 N 
HETATM   11  C   UNK N   1      25.548  19.472   3.802  0.00  0.00     0.273 C 
HETATM   12  O   UNK N   1      25.843  20.326   2.982  0.00  0.00    -0.266 OA
HETATM   13  H   UNK N   1      23.638  19.284   3.154  0.00  0.00     0.163 HD
BRANCH  11  14
HETATM   14  C   UNK N   1      26.568  19.022   4.794  0.00  0.00     0.149 C 
HETATM   15  N   UNK N   1      26.723  19.616   5.932  0.00  0.00    -0.260 N 
ATOM     16  HN  UNK N   1      27.498  19.340   6.535  1.00  0.00     0.194 HD
BRANCH  14  17
HETATM   17  C   UNK N   1      27.425  17.874   4.474  0.00  0.00     0.075 A 
HETATM   18  C   UNK N   1      27.212  16.605   5.050  0.00  0.00     0.085 A 
HETATM   19  S   UNK N   1      28.413  15.649   4.426  0.00  0.00    -0.064 SA
HETATM   20  C   UNK N   1      29.124  16.780   3.467  0.00  0.00     0.142 A 
HETATM   21  N   UNK N   1      28.492  17.968   3.602  0.00  0.00    -0.335 N 
ATOM     22  HN  UNK N   1      28.767  18.824   3.121  1.00  0.00     0.168 HD
BRANCH  20  23
HETATM   23  N   UNK N   1      30.193  16.549   2.580  0.00  0.00    -0.380 N 
HETATM   24  H   UNK N   1      30.885  15.854   2.659  0.00  0.00     0.158 HD
HETATM   25  H   UNK N   1      30.254  17.144   1.799  0.00  0.00     0.158 HD
ENDBRANCH  20  23
ENDBRANCH  14  17
BRANCH  15  26
HETATM   26  O   UNK N   1      25.904  20.569   6.331  0.00  0.00    -0.285 OA
HETATM   27  C   UNK N   1      26.395  21.774   6.759  0.00  0.00     0.237 C 
ENDBRANCH  15  26
ENDBRANCH  11  14
ENDBRANCH   7  10
BRANCH   4  28
HETATM   28  C   UNK N   1      19.650  16.700   3.990  0.00  0.00     0.194 C 
HETATM   29  O   UNK N   1      18.857  16.466   4.882  0.00  0.00    -0.645 OA
BRANCH  28  30
HETATM   30  O   UNK N   1      19.220  17.406   2.927  0.00  0.00    -0.772 OA
HETATM   31  H   UNK N   1      19.017  16.974   2.120  0.00  0.00     0.167 HD
ENDBRANCH  28  30
ENDBRANCH   4  28
BRANCH   5  32
HETATM   32  C   UNK N   1      20.422  13.977   3.125  0.00  0.00     0.120 C 
BRANCH  32  33
HETATM   33  S   UNK N   1      20.800  13.345   1.456  0.00  0.00    -0.087 SA
BRANCH  33  34
HETATM   34  C   UNK N   1      19.790  14.609   0.699  0.00  0.00     0.175 A 
HETATM   35  N   UNK N   1      18.546  14.442   0.233  0.00  0.00    -0.262 N 
HETATM   36  N   UNK N   1      18.156  15.612  -0.235  0.00  0.00    -0.223 N 
HETATM   37  C   UNK N   1      17.746  13.230   0.221  0.00  0.00     0.181 C 
HETATM   38  N   UNK N   1      19.139  16.487  -0.060  0.00  0.00    -0.005 NA
ATOM     39  HN  UNK N   1      17.250  15.810  -0.659  1.00  0.00     0.206 HD
HETATM   40  N   UNK N   1      20.170  15.886   0.519  0.00  0.00    -0.261 N 
ATOM     41  HN  UNK N   1      21.064  16.305   0.775  1.00  0.00     0.186 HD
ENDBRANCH  33  34
ENDBRANCH  32  33
ENDBRANCH   5  32
TORSDOF 10
ENDMDL
MODEL 8
REMARK VINA RESULT:      -7.0      2.026      3.297
REMARK  10 active torsions:
REMARK  status: ('A' for Active; 'I' for Inactive)
REMARK    1  A    between atoms: C_4  and  C_9 
REMARK    2  A    between atoms: C_5  and  C_28 
REMARK    3  A    between atoms: C_7  and  N_12 
REMARK    4  A    between atoms: C_9  and  O_11 
REMARK       I    between atoms: N_12  and  C_13 
REMARK    5  A    between atoms: C_13  and  C_14 
REMARK    6  A    between atoms: C_14  and  C_25 
REMARK    7  A    between atoms: N_16  and  O_18 
REMARK    8  A    between atoms: C_22  and  N_26 
REMARK    9  A    between atoms: C_28  and  S_29 
REMARK   10  A    between atoms: S_29  and  C_31 
ROOT
HETATM    1  S   UNK N   1      29.449  15.911   5.059  0.00  0.00    -0.136 SA
HETATM    2  C   UNK N   1      30.517  16.856   6.183  0.00  0.00     0.187 A 
HETATM    3  N   UNK N   1      29.672  17.678   7.010  0.00  0.00    -0.293 N 
HETATM    4  C   UNK N   1      28.464  18.376   6.652  0.00  0.00     0.116 C 
HETATM    5  C   UNK N   1      28.037  18.272   5.354  0.00  0.00    -0.027 C 
HETATM    6  C   UNK N   1      28.855  17.477   4.360  0.00  0.00     0.113 C 
HETATM    7  C   UNK N   1      31.564  16.843   7.423  0.00  0.00     0.211 A 
HETATM    8  C   UNK N   1      30.462  17.636   8.045  0.00  0.00     0.251 A 
HETATM    9  O   UNK N   1      30.362  18.206   9.118  0.00  0.00    -0.271 OA
ENDROOT
BRANCH   7  10
HETATM   10  N   UNK N   1      32.664  17.760   7.187  0.00  0.00    -0.340 N 
HETATM   11  C   UNK N   1      33.948  17.347   6.996  0.00  0.00     0.273 C 
HETATM   12  O   UNK N   1      34.850  18.159   7.124  0.00  0.00    -0.266 OA
HETATM   13  H   UNK N   1      32.472  18.726   7.162  0.00  0.00     0.163 HD
BRANCH  11  14
HETATM   14  C   UNK N   1      34.278  15.902   6.821  0.00  0.00     0.149 C 
HETATM   15  N   UNK N   1      34.541  15.136   7.828  0.00  0.00    -0.260 N 
ATOM     16  HN  UNK N   1      34.860  14.182   7.657  1.00  0.00     0.194 HD
BRANCH  14  17
HETATM   17  C   UNK N   1      34.308  15.330   5.470  0.00  0.00     0.075 A 
HETATM   18  C   UNK N   1      33.517  15.852   4.425  0.00  0.00     0.085 A 
HETATM   19  S   UNK N   1      33.856  14.892   3.117  0.00  0.00    -0.064 SA
HETATM   20  C   UNK N   1      34.956  13.907   3.841  0.00  0.00     0.142 A 
HETATM   21  N   UNK N   1      35.098  14.246   5.143  0.00  0.00    -0.335 N 
ATOM     22  HN  UNK N   1      35.712  13.765   5.799  1.00  0.00     0.168 HD
BRANCH  20  23
HETATM   23  N   UNK N   1      35.700  12.897   3.201  0.00  0.00    -0.380 N 
HETATM   24  H   UNK N   1      36.336  13.014   2.459  0.00  0.00     0.158 HD
HETATM   25  H   UNK N   1      35.571  11.979   3.530  0.00  0.00     0.158 HD
ENDBRANCH  20  23
ENDBRANCH  14  17
BRANCH  15  26
HETATM   26  O   UNK N   1      34.407  15.556   9.070  0.00  0.00    -0.285 OA
HETATM   27  C   UNK N   1      33.540  14.931   9.927  0.00  0.00     0.237 C 
ENDBRANCH  15  26
ENDBRANCH  11  14
ENDBRANCH   7  10
BRANCH   4  28
HETATM   28  C   UNK N   1      27.718  19.208   7.670  0.00  0.00     0.194 C 
HETATM   29  O   UNK N   1      27.382  20.348   7.410  0.00  0.00    -0.645 OA
BRANCH  28  30
HETATM   30  O   UNK N   1      27.403  18.714   8.882  0.00  0.00    -0.772 OA
HETATM   31  H   UNK N   1      27.704  17.866   9.142  0.00  0.00     0.167 HD
ENDBRANCH  28  30
ENDBRANCH   4  28
BRANCH   5  32
HETATM   32  C   UNK N   1      26.804  18.992   4.863  0.00  0.00     0.120 C 
BRANCH  32  33
HETATM   33  S   UNK N   1      25.346  17.931   4.590  0.00  0.00    -0.087 SA
BRANCH  33  34
HETATM   34  C   UNK N   1      24.530  19.215   3.653  0.00  0.00     0.175 A 
HETATM   35  N   UNK N   1      23.210  19.427   3.601  0.00  0.00    -0.262 N 
HETATM   36  N   UNK N   1      23.024  20.467   2.811  0.00  0.00    -0.223 N 
HETATM   37  C   UNK N   1      22.153  18.685   4.265  0.00  0.00     0.181 C 
HETATM   38  N   UNK N   1      24.206  20.890   2.382  0.00  0.00    -0.005 NA
ATOM     39  HN  UNK N   1      22.121  20.876   2.570  1.00  0.00     0.206 HD
HETATM   40  N   UNK N   1      25.163  20.125   2.892  0.00  0.00    -0.261 N 
ATOM     41  HN  UNK N   1      26.168  20.210   2.739  1.00  0.00     0.186 HD
ENDBRANCH  33  34
ENDBRANCH  32  33
ENDBRANCH   5  32
TORSDOF 10
ENDMDL
MODEL 9
REMARK VINA RESULT:      -7.0      4.206      5.961
REMARK  10 active torsions:
REMARK  status: ('A' for Active; 'I' for Inactive)
REMARK    1  A    between atoms: C_4  and  C_9 
REMARK    2  A    between atoms: C_5  and  C_28 
REMARK    3  A    between atoms: C_7  and  N_12 
REMARK    4  A    between atoms: C_9  and  O_11 
REMARK       I    between atoms: N_12  and  C_13 
REMARK    5  A    between atoms: C_13  and  C_14 
REMARK    6  A    between atoms: C_14  and  C_25 
REMARK    7  A    between atoms: N_16  and  O_18 
REMARK    8  A    between atoms: C_22  and  N_26 
REMARK    9  A    between atoms: C_28  and  S_29 
REMARK   10  A    between atoms: S_29  and  C_31 
ROOT
HETATM    1  S   UNK N   1      33.397  13.011   6.495  0.00  0.00    -0.136 SA
HETATM    2  C   UNK N   1      34.560  13.679   7.719  0.00  0.00     0.187 A 
HETATM    3  N   UNK N   1      34.300  15.090   7.853  0.00  0.00    -0.293 N 
HETATM    4  C   UNK N   1      33.939  16.041   6.833  0.00  0.00     0.116 C 
HETATM    5  C   UNK N   1      33.827  15.576   5.549  0.00  0.00    -0.027 C 
HETATM    6  C   UNK N   1      34.119  14.120   5.254  0.00  0.00     0.113 C 
HETATM    7  C   UNK N   1      35.063  13.719   9.261  0.00  0.00     0.211 A 
HETATM    8  C   UNK N   1      34.639  15.143   9.110  0.00  0.00     0.251 A 
HETATM    9  O   UNK N   1      34.712  16.108   9.852  0.00  0.00    -0.271 OA
ENDROOT
BRANCH   7  10
HETATM   10  N   UNK N   1      36.513  13.716   9.337  0.00  0.00    -0.340 N 
HETATM   11  C   UNK N   1      37.204  13.094  10.333  0.00  0.00     0.273 C 
HETATM   12  O   UNK N   1      38.372  13.396  10.514  0.00  0.00    -0.266 OA
HETATM   13  H   UNK N   1      37.021  14.185   8.636  0.00  0.00     0.163 HD
BRANCH  11  14
HETATM   14  C   UNK N   1      36.515  12.202  11.312  0.00  0.00     0.149 C 
HETATM   15  N   UNK N   1      36.127  11.011  10.994  0.00  0.00    -0.260 N 
ATOM     16  HN  UNK N   1      35.571  10.474  11.660  1.00  0.00     0.194 HD
BRANCH  14  17
HETATM   17  C   UNK N   1      36.268  12.685  12.675  0.00  0.00     0.075 A 
HETATM   18  C   UNK N   1      35.233  12.156  13.474  0.00  0.00     0.085 A 
HETATM   19  S   UNK N   1      35.317  13.007  14.894  0.00  0.00    -0.064 SA
HETATM   20  C   UNK N   1      36.606  13.955  14.511  0.00  0.00     0.142 A 
HETATM   21  N   UNK N   1      37.022  13.688  13.253  0.00  0.00    -0.335 N 
ATOM     22  HN  UNK N   1      37.794  14.166  12.788  1.00  0.00     0.168 HD
BRANCH  20  23
HETATM   23  N   UNK N   1      37.238  14.868  15.377  0.00  0.00    -0.380 N 
HETATM   24  H   UNK N   1      36.983  15.806  15.534  0.00  0.00     0.158 HD
HETATM   25  H   UNK N   1      38.017  14.534  15.877  0.00  0.00     0.158 HD
ENDBRANCH  20  23
ENDBRANCH  14  17
BRANCH  15  26
HETATM   26  O   UNK N   1      36.430  10.473   9.829  0.00  0.00    -0.285 OA
HETATM   27  C   UNK N   1      35.443  10.010   8.999  0.00  0.00     0.237 C 
ENDBRANCH  15  26
ENDBRANCH  11  14
ENDBRANCH   7  10
BRANCH   4  28
HETATM   28  C   UNK N   1      33.718  17.497   7.173  0.00  0.00     0.194 C 
HETATM   29  O   UNK N   1      34.643  18.287   7.139  0.00  0.00    -0.645 OA
BRANCH  28  30
HETATM   30  O   UNK N   1      32.502  17.959   7.518  0.00  0.00    -0.772 OA
HETATM   31  H   UNK N   1      32.368  18.368   8.351  0.00  0.00     0.167 HD
ENDBRANCH  28  30
ENDBRANCH   4  28
BRANCH   5  32
HETATM   32  C   UNK N   1      33.489  16.493   4.398  0.00  0.00     0.120 C 
BRANCH  32  33
HETATM   33  S   UNK N   1      32.104  15.938   3.348  0.00  0.00    -0.087 SA
BRANCH  33  34
HETATM   34  C   UNK N   1      30.921  16.307   4.635  0.00  0.00     0.175 A 
HETATM   35  N   UNK N   1      30.120  15.420   5.238  0.00  0.00    -0.262 N 
HETATM   36  N   UNK N   1      29.413  16.092   6.127  0.00  0.00    -0.223 N 
HETATM   37  C   UNK N   1      30.014  13.993   4.995  0.00  0.00     0.181 C 
HETATM   38  N   UNK N   1      29.770  17.370   6.075  0.00  0.00    -0.005 NA
ATOM     39  HN  UNK N   1      28.709  15.695   6.749  1.00  0.00     0.206 HD
HETATM   40  N   UNK N   1      30.709  17.530   5.152  0.00  0.00    -0.261 N 
ATOM     41  HN  UNK N   1      31.173  18.400   4.888  1.00  0.00     0.186 HD
ENDBRANCH  33  34
ENDBRANCH  32  33
ENDBRANCH   5  32
TORSDOF 10
ENDMDL
