MODEL 1
REMARK VINA RESULT:      -7.5      0.000      0.000
REMARK  11 active torsions:
REMARK  status: ('A' for Active; 'I' for Inactive)
REMARK    1  A    between atoms: C_3  and  C_13 
REMARK    2  A    between atoms: C_4  and  C_10 
REMARK    3  A    between atoms: C_8  and  N_15 
REMARK    4  A    between atoms: C_10  and  O_11 
REMARK       I    between atoms: N_15  and  C_16 
REMARK    5  A    between atoms: C_16  and  C_17 
REMARK    6  A    between atoms: C_17  and  C_19 
REMARK    7  A    between atoms: N_20  and  O_22 
REMARK    8  A    between atoms: O_22  and  C_23 
REMARK    9  A    between atoms: C_23  and  C_24 
REMARK   10  A    between atoms: C_24  and  O_25 
REMARK   11  A    between atoms: C_29  and  N_32 
ROOT
HETATM    1  N   UNK N   1      21.320  15.465   6.901  0.00  0.00    -0.340 N 
HETATM    2  C   UNK N   1      21.224  14.257   7.527  0.00  0.00     0.273 C 
HETATM    3  O   UNK N   1      21.631  13.245   6.981  0.00  0.00    -0.266 OA
HETATM    4  H   UNK N   1      20.841  16.217   7.320  0.00  0.00     0.163 HD
ENDROOT
BRANCH   2   5
HETATM    5  C   UNK N   1      20.781  14.198   8.957  0.00  0.00     0.149 C 
HETATM    6  N   UNK N   1      19.780  14.889   9.399  0.00  0.00    -0.259 N 
ATOM      7  HN  UNK N   1      19.580  14.869  10.400  1.00  0.00     0.194 HD
BRANCH   5   8
HETATM    8  C   UNK N   1      21.601  13.437   9.939  0.00  0.00     0.075 A 
HETATM    9  C   UNK N   1      21.044  12.541  10.883  0.00  0.00     0.085 A 
HETATM   10  S   UNK N   1      22.340  11.852  11.646  0.00  0.00    -0.064 SA
HETATM   11  C   UNK N   1      23.524  12.638  10.825  0.00  0.00     0.142 A 
HETATM   12  N   UNK N   1      22.982  13.476   9.912  0.00  0.00    -0.335 N 
ATOM     13  HN  UNK N   1      23.525  14.064   9.280  1.00  0.00     0.168 HD
BRANCH  11  14
HETATM   14  N   UNK N   1      24.907  12.456  11.007  0.00  0.00    -0.380 N 
HETATM   15  H   UNK N   1      25.488  12.276  10.233  0.00  0.00     0.158 HD
HETATM   16  H   UNK N   1      25.296  12.508  11.911  0.00  0.00     0.158 HD
ENDBRANCH  11  14
ENDBRANCH   5   8
BRANCH   6  17
HETATM   17  O   UNK N   1      19.006  15.619   8.616  0.00  0.00    -0.269 OA
BRANCH  17  18
HETATM   18  C   UNK N   1      18.458  16.794   9.077  0.00  0.00     0.311 C 
BRANCH  18  19
HETATM   19  C   UNK N   1      19.465  17.893   8.990  0.00  0.00     0.166 C 
HETATM   20  O   UNK N   1      20.411  17.798   8.225  0.00  0.00    -0.648 OA
BRANCH  19  21
HETATM   21  O   UNK N   1      19.332  18.988   9.761  0.00  0.00    -0.775 OA
HETATM   22  H   UNK N   1      18.912  19.104  10.590  0.00  0.00     0.167 HD
ENDBRANCH  19  21
ENDBRANCH  18  19
ENDBRANCH  17  18
ENDBRANCH   6  17
ENDBRANCH   2   5
BRANCH   1  23
HETATM   23  C   UNK N   1      22.056  15.757   5.676  0.00  0.00     0.211 A 
HETATM   24  C   UNK N   1      21.310  16.703   4.797  0.00  0.00     0.251 A 
HETATM   25  N   UNK N   1      22.146  17.695   4.852  0.00  0.00    -0.293 N 
HETATM   26  O   UNK N   1      20.314  16.580   4.098  0.00  0.00    -0.271 OA
HETATM   27  C   UNK N   1      23.073  17.028   5.710  0.00  0.00     0.187 A 
HETATM   28  C   UNK N   1      22.306  18.867   4.054  0.00  0.00     0.119 C 
HETATM   29  S   UNK N   1      24.581  16.788   4.730  0.00  0.00    -0.136 SA
HETATM   30  C   UNK N   1      24.761  18.599   4.493  0.00  0.00     0.117 C 
HETATM   31  C   UNK N   1      23.582  19.295   3.822  0.00  0.00    -0.016 C 
BRANCH  31  32
HETATM   32  C   UNK N   1      23.867  20.428   2.909  0.00  0.00     0.000 C 
HETATM   33  C   UNK N   1      25.068  20.620   2.365  0.00  0.00     0.012 C 
ENDBRANCH  31  32
BRANCH  28  34
HETATM   34  C   UNK N   1      21.097  19.528   3.449  0.00  0.00     0.194 C 
HETATM   35  O   UNK N   1      20.579  20.479   4.012  0.00  0.00    -0.645 OA
BRANCH  34  36
HETATM   36  O   UNK N   1      20.607  19.142   2.256  0.00  0.00    -0.772 OA
HETATM   37  H   UNK N   1      20.674  19.693   1.501  0.00  0.00     0.167 HD
ENDBRANCH  34  36
ENDBRANCH  28  34
ENDBRANCH   1  23
TORSDOF 11
ENDMDL
MODEL 2
REMARK VINA RESULT:      -6.9     10.936     13.735
REMARK  11 active torsions:
REMARK  status: ('A' for Active; 'I' for Inactive)
REMARK    1  A    between atoms: C_3  and  C_13 
REMARK    2  A    between atoms: C_4  and  C_10 
REMARK    3  A    between atoms: C_8  and  N_15 
REMARK    4  A    between atoms: C_10  and  O_11 
REMARK       I    between atoms: N_15  and  C_16 
REMARK    5  A    between atoms: C_16  and  C_17 
REMARK    6  A    between atoms: C_17  and  C_19 
REMARK    7  A    between atoms: N_20  and  O_22 
REMARK    8  A    between atoms: O_22  and  C_23 
REMARK    9  A    between atoms: C_23  and  C_24 
REMARK   10  A    between atoms: C_24  and  O_25 
REMARK   11  A    between atoms: C_29  and  N_32 
ROOT
HETATM    1  N   UNK N   1      33.373  16.355   8.480  0.00  0.00    -0.340 N 
HETATM    2  C   UNK N   1      32.934  17.353   7.660  0.00  0.00     0.273 C 
HETATM    3  O   UNK N   1      33.720  18.168   7.206  0.00  0.00    -0.266 OA
HETATM    4  H   UNK N   1      32.680  15.823   8.936  0.00  0.00     0.163 HD
ENDROOT
BRANCH   2   5
HETATM    5  C   UNK N   1      31.516  17.344   7.177  0.00  0.00     0.149 C 
HETATM    6  N   UNK N   1      30.521  17.638   7.950  0.00  0.00    -0.259 N 
ATOM      7  HN  UNK N   1      29.574  17.533   7.585  1.00  0.00     0.194 HD
BRANCH   5   8
HETATM    8  C   UNK N   1      31.220  16.841   5.808  0.00  0.00     0.075 A 
HETATM    9  C   UNK N   1      30.189  15.912   5.531  0.00  0.00     0.085 A 
HETATM   10  S   UNK N   1      30.166  15.767   3.883  0.00  0.00    -0.064 SA
HETATM   11  C   UNK N   1      31.381  16.819   3.551  0.00  0.00     0.142 A 
HETATM   12  N   UNK N   1      31.871  17.344   4.697  0.00  0.00    -0.335 N 
ATOM     13  HN  UNK N   1      32.627  18.027   4.737  1.00  0.00     0.168 HD
BRANCH  11  14
HETATM   14  N   UNK N   1      31.838  17.163   2.265  0.00  0.00    -0.380 N 
HETATM   15  H   UNK N   1      31.481  17.961   1.811  0.00  0.00     0.158 HD
HETATM   16  H   UNK N   1      32.517  16.607   1.818  0.00  0.00     0.158 HD
ENDBRANCH  11  14
ENDBRANCH   5   8
BRANCH   6  17
HETATM   17  O   UNK N   1      30.674  18.067   9.190  0.00  0.00    -0.269 OA
BRANCH  17  18
HETATM   18  C   UNK N   1      29.622  18.646   9.863  0.00  0.00     0.311 C 
BRANCH  18  19
HETATM   19  C   UNK N   1      28.328  18.164   9.295  0.00  0.00     0.166 C 
HETATM   20  O   UNK N   1      27.924  17.042   9.557  0.00  0.00    -0.648 OA
BRANCH  19  21
HETATM   21  O   UNK N   1      27.607  18.965   8.489  0.00  0.00    -0.775 OA
HETATM   22  H   UNK N   1      27.878  19.551   7.810  0.00  0.00     0.167 HD
ENDBRANCH  19  21
ENDBRANCH  18  19
ENDBRANCH  17  18
ENDBRANCH   6  17
ENDBRANCH   2   5
BRANCH   1  23
HETATM   23  C   UNK N   1      34.761  15.994   8.751  0.00  0.00     0.211 A 
HETATM   24  C   UNK N   1      35.048  15.973  10.214  0.00  0.00     0.251 A 
HETATM   25  N   UNK N   1      35.301  14.704  10.328  0.00  0.00    -0.293 N 
HETATM   26  O   UNK N   1      35.177  16.856  11.050  0.00  0.00    -0.271 OA
HETATM   27  C   UNK N   1      35.089  14.412   8.946  0.00  0.00     0.187 A 
HETATM   28  C   UNK N   1      35.938  13.935  11.346  0.00  0.00     0.119 C 
HETATM   29  S   UNK N   1      36.703  13.911   8.286  0.00  0.00    -0.136 SA
HETATM   30  C   UNK N   1      36.795  12.510   9.468  0.00  0.00     0.117 C 
HETATM   31  C   UNK N   1      36.718  12.889  10.943  0.00  0.00    -0.016 C 
BRANCH  31  32
HETATM   32  C   UNK N   1      37.521  12.101  11.909  0.00  0.00     0.000 C 
HETATM   33  C   UNK N   1      37.495  10.769  11.938  0.00  0.00     0.012 C 
ENDBRANCH  31  32
BRANCH  28  34
HETATM   34  C   UNK N   1      35.794  14.341  12.788  0.00  0.00     0.194 C 
HETATM   35  O   UNK N   1      34.989  13.766  13.504  0.00  0.00    -0.645 OA
BRANCH  34  36
HETATM   36  O   UNK N   1      36.584  15.283  13.337  0.00  0.00    -0.772 OA
HETATM   37  H   UNK N   1      36.231  15.951  13.891  0.00  0.00     0.167 HD
ENDBRANCH  34  36
ENDBRANCH  28  34
ENDBRANCH   1  23
TORSDOF 11
ENDMDL
MODEL 3
REMARK VINA RESULT:      -6.8     11.026     12.953
REMARK  11 active torsions:
REMARK  status: ('A' for Active; 'I' for Inactive)
REMARK    1  A    between atoms: C_3  and  C_13 
REMARK    2  A    between atoms: C_4  and  C_10 
REMARK    3  A    between atoms: C_8  and  N_15 
REMARK    4  A    between atoms: C_10  and  O_11 
REMARK       I    between atoms: N_15  and  C_16 
REMARK    5  A    between atoms: C_16  and  C_17 
REMARK    6  A    between atoms: C_17  and  C_19 
REMARK    7  A    between atoms: N_20  and  O_22 
REMARK    8  A    between atoms: O_22  and  C_23 
REMARK    9  A    between atoms: C_23  and  C_24 
REMARK   10  A    between atoms: C_24  and  O_25 
REMARK   11  A    between atoms: C_29  and  N_32 
ROOT
HETATM    1  N   UNK N   1      34.451  16.167   8.756  0.00  0.00    -0.340 N 
HETATM    2  C   UNK N   1      35.333  16.176   9.797  0.00  0.00     0.273 C 
HETATM    3  O   UNK N   1      35.508  17.192  10.449  0.00  0.00    -0.266 OA
HETATM    4  H   UNK N   1      34.464  15.373   8.174  0.00  0.00     0.163 HD
ENDROOT
BRANCH   2   5
HETATM    5  C   UNK N   1      35.956  14.891  10.248  0.00  0.00     0.149 C 
HETATM    6  N   UNK N   1      36.482  14.049   9.418  0.00  0.00    -0.259 N 
ATOM      7  HN  UNK N   1      36.815  13.154   9.779  1.00  0.00     0.194 HD
BRANCH   5   8
HETATM    8  C   UNK N   1      35.841  14.492  11.678  0.00  0.00     0.075 A 
HETATM    9  C   UNK N   1      35.051  13.404  12.117  0.00  0.00     0.085 A 
HETATM   10  S   UNK N   1      35.346  13.278  13.740  0.00  0.00    -0.064 SA
HETATM   11  C   UNK N   1      36.409  14.522  13.868  0.00  0.00     0.142 A 
HETATM   12  N   UNK N   1      36.598  15.102  12.660  0.00  0.00    -0.335 N 
ATOM     13  HN  UNK N   1      37.222  15.891  12.495  1.00  0.00     0.168 HD
BRANCH  11  14
HETATM   14  N   UNK N   1      37.066  14.920  15.048  0.00  0.00    -0.380 N 
HETATM   15  H   UNK N   1      37.091  15.871  15.302  0.00  0.00     0.158 HD
HETATM   16  H   UNK N   1      37.501  14.247  15.620  0.00  0.00     0.158 HD
ENDBRANCH  11  14
ENDBRANCH   5   8
BRANCH   6  17
HETATM   17  O   UNK N   1      36.607  14.293   8.126  0.00  0.00    -0.269 OA
BRANCH  17  18
HETATM   18  C   UNK N   1      36.133  13.395   7.198  0.00  0.00     0.311 C 
BRANCH  18  19
HETATM   19  C   UNK N   1      35.540  14.127   6.039  0.00  0.00     0.166 C 
HETATM   20  O   UNK N   1      34.821  13.539   5.247  0.00  0.00    -0.648 OA
BRANCH  19  21
HETATM   21  O   UNK N   1      35.803  15.435   5.864  0.00  0.00    -0.775 OA
HETATM   22  H   UNK N   1      36.270  15.878   5.184  0.00  0.00     0.167 HD
ENDBRANCH  19  21
ENDBRANCH  18  19
ENDBRANCH  17  18
ENDBRANCH   6  17
ENDBRANCH   2   5
BRANCH   1  23
HETATM   23  C   UNK N   1      33.492  17.214   8.416  0.00  0.00     0.211 A 
HETATM   24  C   UNK N   1      33.331  17.354   6.940  0.00  0.00     0.251 A 
HETATM   25  N   UNK N   1      32.087  16.991   6.861  0.00  0.00    -0.293 N 
HETATM   26  O   UNK N   1      34.051  17.813   6.064  0.00  0.00    -0.271 OA
HETATM   27  C   UNK N   1      31.934  16.767   8.263  0.00  0.00     0.187 A 
HETATM   28  C   UNK N   1      31.104  17.131   5.837  0.00  0.00     0.119 C 
HETATM   29  S   UNK N   1      30.753  18.016   8.845  0.00  0.00    -0.136 SA
HETATM   30  C   UNK N   1      29.458  17.373   7.714  0.00  0.00     0.117 C 
HETATM   31  C   UNK N   1      29.820  17.373   6.232  0.00  0.00    -0.016 C 
BRANCH  31  32
HETATM   32  C   UNK N   1      28.745  17.655   5.251  0.00  0.00     0.000 C 
HETATM   33  C   UNK N   1      28.325  18.893   4.990  0.00  0.00     0.012 C 
ENDBRANCH  31  32
BRANCH  28  34
HETATM   34  C   UNK N   1      31.521  17.086   4.391  0.00  0.00     0.194 C 
HETATM   35  O   UNK N   1      31.445  16.039   3.769  0.00  0.00    -0.645 OA
BRANCH  34  36
HETATM   36  O   UNK N   1      31.914  18.195   3.737  0.00  0.00    -0.772 OA
HETATM   37  H   UNK N   1      31.555  18.420   2.902  0.00  0.00     0.167 HD
ENDBRANCH  34  36
ENDBRANCH  28  34
ENDBRANCH   1  23
TORSDOF 11
ENDMDL
MODEL 4
REMARK VINA RESULT:      -6.5      8.503     10.425
REMARK  11 active torsions:
REMARK  status: ('A' for Active; 'I' for Inactive)
REMARK    1  A    between atoms: C_3  and  C_13 
REMARK    2  A    between atoms: C_4  and  C_10 
REMARK    3  A    between atoms: C_8  and  N_15 
REMARK    4  A    between atoms: C_10  and  O_11 
REMARK       I    between atoms: N_15  and  C_16 
REMARK    5  A    between atoms: C_16  and  C_17 
REMARK    6  A    between atoms: C_17  and  C_19 
REMARK    7  A    between atoms: N_20  and  O_22 
REMARK    8  A    between atoms: O_22  and  C_23 
REMARK    9  A    between atoms: C_23  and  C_24 
REMARK   10  A    between atoms: C_24  and  O_25 
REMARK   11  A    between atoms: C_29  and  N_32 
ROOT
HETATM    1  N   UNK N   1      31.137  17.420   7.572  0.00  0.00    -0.340 N 
HETATM    2  C   UNK N   1      31.872  16.741   8.500  0.00  0.00     0.273 C 
HETATM    3  O   UNK N   1      31.329  15.966   9.270  0.00  0.00    -0.266 OA
HETATM    4  H   UNK N   1      31.599  18.140   7.084  0.00  0.00     0.163 HD
ENDROOT
BRANCH   2   5
HETATM    5  C   UNK N   1      33.367  16.817   8.457  0.00  0.00     0.149 C 
HETATM    6  N   UNK N   1      34.005  17.331   7.455  0.00  0.00    -0.259 N 
ATOM      7  HN  UNK N   1      35.024  17.277   7.449  1.00  0.00     0.194 HD
BRANCH   5   8
HETATM    8  C   UNK N   1      34.157  16.152   9.529  0.00  0.00     0.075 A 
HETATM    9  C   UNK N   1      35.205  16.794  10.231  0.00  0.00     0.085 A 
HETATM   10  S   UNK N   1      35.678  15.713  11.391  0.00  0.00    -0.064 SA
HETATM   11  C   UNK N   1      34.617  14.516  11.024  0.00  0.00     0.142 A 
HETATM   12  N   UNK N   1      33.834  14.887   9.985  0.00  0.00    -0.335 N 
ATOM     13  HN  UNK N   1      33.097  14.306   9.587  1.00  0.00     0.168 HD
BRANCH  11  14
HETATM   14  N   UNK N   1      34.501  13.289  11.703  0.00  0.00    -0.380 N 
HETATM   15  H   UNK N   1      34.774  12.452  11.261  0.00  0.00     0.158 HD
HETATM   16  H   UNK N   1      34.145  13.266  12.621  0.00  0.00     0.158 HD
ENDBRANCH  11  14
ENDBRANCH   5   8
BRANCH   6  17
HETATM   17  O   UNK N   1      33.399  17.920   6.440  0.00  0.00    -0.269 OA
BRANCH  17  18
HETATM   18  C   UNK N   1      33.536  17.426   5.164  0.00  0.00     0.311 C 
BRANCH  18  19
HETATM   19  C   UNK N   1      33.545  15.933   5.193  0.00  0.00     0.166 C 
HETATM   20  O   UNK N   1      34.589  15.324   5.031  0.00  0.00    -0.648 OA
BRANCH  19  21
HETATM   21  O   UNK N   1      32.398  15.258   5.395  0.00  0.00    -0.775 OA
HETATM   22  H   UNK N   1      32.136  14.695   6.096  0.00  0.00     0.167 HD
ENDBRANCH  19  21
ENDBRANCH  18  19
ENDBRANCH  17  18
ENDBRANCH   6  17
ENDBRANCH   2   5
BRANCH   1  23
HETATM   23  C   UNK N   1      29.737  17.189   7.228  0.00  0.00     0.211 A 
HETATM   24  C   UNK N   1      28.878  18.344   7.616  0.00  0.00     0.251 A 
HETATM   25  N   UNK N   1      28.512  18.702   6.422  0.00  0.00    -0.293 N 
HETATM   26  O   UNK N   1      28.482  18.762   8.695  0.00  0.00    -0.271 OA
HETATM   27  C   UNK N   1      29.247  17.677   5.755  0.00  0.00     0.187 A 
HETATM   28  C   UNK N   1      27.462  19.543   5.947  0.00  0.00     0.119 C 
HETATM   29  S   UNK N   1      28.012  16.587   4.994  0.00  0.00    -0.136 SA
HETATM   30  C   UNK N   1      27.348  17.975   3.994  0.00  0.00     0.117 C 
HETATM   31  C   UNK N   1      26.843  19.175   4.787  0.00  0.00    -0.016 C 
BRANCH  31  32
HETATM   32  C   UNK N   1      25.663  19.908   4.270  0.00  0.00     0.000 C 
HETATM   33  C   UNK N   1      25.539  20.244   2.986  0.00  0.00     0.012 C 
ENDBRANCH  31  32
BRANCH  28  34
HETATM   34  C   UNK N   1      27.034  20.735   6.761  0.00  0.00     0.194 C 
HETATM   35  O   UNK N   1      27.366  21.858   6.416  0.00  0.00    -0.645 OA
BRANCH  34  36
HETATM   36  O   UNK N   1      26.229  20.604   7.832  0.00  0.00    -0.772 OA
HETATM   37  H   UNK N   1      25.660  19.866   7.925  0.00  0.00     0.167 HD
ENDBRANCH  34  36
ENDBRANCH  28  34
ENDBRANCH   1  23
TORSDOF 11
ENDMDL
MODEL 5
REMARK VINA RESULT:      -6.4     12.177     15.318
REMARK  11 active torsions:
REMARK  status: ('A' for Active; 'I' for Inactive)
REMARK    1  A    between atoms: C_3  and  C_13 
REMARK    2  A    between atoms: C_4  and  C_10 
REMARK    3  A    between atoms: C_8  and  N_15 
REMARK    4  A    between atoms: C_10  and  O_11 
REMARK       I    between atoms: N_15  and  C_16 
REMARK    5  A    between atoms: C_16  and  C_17 
REMARK    6  A    between atoms: C_17  and  C_19 
REMARK    7  A    between atoms: N_20  and  O_22 
REMARK    8  A    between atoms: O_22  and  C_23 
REMARK    9  A    between atoms: C_23  and  C_24 
REMARK   10  A    between atoms: C_24  and  O_25 
REMARK   11  A    between atoms: C_29  and  N_32 
ROOT
HETATM    1  N   UNK N   1      35.182  14.728   7.521  0.00  0.00    -0.340 N 
HETATM    2  C   UNK N   1      35.402  15.250   6.279  0.00  0.00     0.273 C 
HETATM    3  O   UNK N   1      36.432  14.997   5.677  0.00  0.00    -0.266 OA
HETATM    4  H   UNK N   1      34.412  15.086   8.019  0.00  0.00     0.163 HD
ENDROOT
BRANCH   2   5
HETATM    5  C   UNK N   1      34.301  15.990   5.584  0.00  0.00     0.149 C 
HETATM    6  N   UNK N   1      33.954  17.191   5.921  0.00  0.00    -0.259 N 
ATOM      7  HN  UNK N   1      33.143  17.609   5.465  1.00  0.00     0.194 HD
BRANCH   5   8
HETATM    8  C   UNK N   1      33.477  15.279   4.568  0.00  0.00     0.075 A 
HETATM    9  C   UNK N   1      32.064  15.347   4.532  0.00  0.00     0.085 A 
HETATM   10  S   UNK N   1      31.624  14.516   3.170  0.00  0.00    -0.064 SA
HETATM   11  C   UNK N   1      33.130  14.104   2.665  0.00  0.00     0.142 A 
HETATM   12  N   UNK N   1      34.059  14.591   3.520  0.00  0.00    -0.335 N 
ATOM     13  HN  UNK N   1      35.064  14.465   3.405  1.00  0.00     0.168 HD
BRANCH  11  14
HETATM   14  N   UNK N   1      33.433  13.381   1.497  0.00  0.00    -0.380 N 
HETATM   15  H   UNK N   1      32.828  13.420   0.720  0.00  0.00     0.158 HD
HETATM   16  H   UNK N   1      34.251  12.834   1.454  0.00  0.00     0.158 HD
ENDBRANCH  11  14
ENDBRANCH   5   8
BRANCH   6  17
HETATM   17  O   UNK N   1      34.601  17.898   6.830  0.00  0.00    -0.269 OA
BRANCH  17  18
HETATM   18  C   UNK N   1      33.969  18.290   7.988  0.00  0.00     0.311 C 
BRANCH  18  19
HETATM   19  C   UNK N   1      34.249  17.307   9.077  0.00  0.00     0.166 C 
HETATM   20  O   UNK N   1      33.532  16.330   9.218  0.00  0.00    -0.648 OA
BRANCH  19  21
HETATM   21  O   UNK N   1      35.289  17.502   9.908  0.00  0.00    -0.775 OA
HETATM   22  H   UNK N   1      35.399  18.101  10.620  0.00  0.00     0.167 HD
ENDBRANCH  19  21
ENDBRANCH  18  19
ENDBRANCH  17  18
ENDBRANCH   6  17
ENDBRANCH   2   5
BRANCH   1  23
HETATM   23  C   UNK N   1      35.972  13.697   8.186  0.00  0.00     0.211 A 
HETATM   24  C   UNK N   1      36.237  14.041   9.612  0.00  0.00     0.251 A 
HETATM   25  N   UNK N   1      35.570  13.068  10.157  0.00  0.00    -0.293 N 
HETATM   26  O   UNK N   1      36.967  14.861  10.149  0.00  0.00    -0.271 OA
HETATM   27  C   UNK N   1      35.152  12.495   8.917  0.00  0.00     0.187 A 
HETATM   28  C   UNK N   1      35.566  12.521  11.474  0.00  0.00     0.119 C 
HETATM   29  S   UNK N   1      35.970  10.879   8.811  0.00  0.00    -0.136 SA
HETATM   30  C   UNK N   1      35.145  10.318  10.352  0.00  0.00     0.117 C 
HETATM   31  C   UNK N   1      35.413  11.169  11.588  0.00  0.00    -0.016 C 
BRANCH  31  32
HETATM   32  C   UNK N   1      35.516  10.483  12.899  0.00  0.00     0.000 C 
HETATM   33  C   UNK N   1      34.444  10.049  13.562  0.00  0.00     0.012 C 
ENDBRANCH  31  32
BRANCH  28  34
HETATM   34  C   UNK N   1      35.802  13.421  12.657  0.00  0.00     0.194 C 
HETATM   35  O   UNK N   1      34.861  13.771  13.351  0.00  0.00    -0.645 OA
BRANCH  34  36
HETATM   36  O   UNK N   1      37.042  13.800  13.018  0.00  0.00    -0.772 OA
HETATM   37  H   UNK N   1      37.748  13.803  12.403  0.00  0.00     0.167 HD
ENDBRANCH  34  36
ENDBRANCH  28  34
ENDBRANCH   1  23
TORSDOF 11
ENDMDL
MODEL 6
REMARK VINA RESULT:      -6.3      4.624      7.635
REMARK  11 active torsions:
REMARK  status: ('A' for Active; 'I' for Inactive)
REMARK    1  A    between atoms: C_3  and  C_13 
REMARK    2  A    between atoms: C_4  and  C_10 
REMARK    3  A    between atoms: C_8  and  N_15 
REMARK    4  A    between atoms: C_10  and  O_11 
REMARK       I    between atoms: N_15  and  C_16 
REMARK    5  A    between atoms: C_16  and  C_17 
REMARK    6  A    between atoms: C_17  and  C_19 
REMARK    7  A    between atoms: N_20  and  O_22 
REMARK    8  A    between atoms: O_22  and  C_23 
REMARK    9  A    between atoms: C_23  and  C_24 
REMARK   10  A    between atoms: C_24  and  O_25 
REMARK   11  A    between atoms: C_29  and  N_32 
ROOT
HETATM    1  N   UNK N   1      25.458  19.228   5.324  0.00  0.00    -0.340 N 
HETATM    2  C   UNK N   1      24.729  18.981   4.197  0.00  0.00     0.273 C 
HETATM    3  O   UNK N   1      25.266  18.983   3.102  0.00  0.00    -0.266 OA
HETATM    4  H   UNK N   1      24.950  19.364   6.156  0.00  0.00     0.163 HD
ENDROOT
BRANCH   2   5
HETATM    5  C   UNK N   1      23.305  18.534   4.321  0.00  0.00     0.149 C 
HETATM    6  N   UNK N   1      22.322  19.208   3.815  0.00  0.00    -0.259 N 
ATOM      7  HN  UNK N   1      21.370  18.895   4.006  1.00  0.00     0.194 HD
BRANCH   5   8
HETATM    8  C   UNK N   1      22.986  17.359   5.177  0.00  0.00     0.075 A 
HETATM    9  C   UNK N   1      23.761  16.175   5.185  0.00  0.00     0.085 A 
HETATM   10  S   UNK N   1      23.099  15.230   6.371  0.00  0.00    -0.064 SA
HETATM   11  C   UNK N   1      21.913  16.262   6.841  0.00  0.00     0.142 A 
HETATM   12  N   UNK N   1      21.965  17.398   6.108  0.00  0.00    -0.335 N 
ATOM     13  HN  UNK N   1      21.329  18.186   6.227  1.00  0.00     0.168 HD
BRANCH  11  14
HETATM   14  N   UNK N   1      20.988  16.031   7.876  0.00  0.00    -0.380 N 
HETATM   15  H   UNK N   1      20.788  16.742   8.527  0.00  0.00     0.158 HD
HETATM   16  H   UNK N   1      20.540  15.157   7.951  0.00  0.00     0.158 HD
ENDBRANCH  11  14
ENDBRANCH   5   8
BRANCH   6  17
HETATM   17  O   UNK N   1      22.495  20.281   3.065  0.00  0.00    -0.269 OA
BRANCH  17  18
HETATM   18  C   UNK N   1      21.415  20.921   2.503  0.00  0.00     0.311 C 
BRANCH  18  19
HETATM   19  C   UNK N   1      20.996  20.215   1.256  0.00  0.00     0.166 C 
HETATM   20  O   UNK N   1      21.211  20.720   0.166  0.00  0.00    -0.648 OA
BRANCH  19  21
HETATM   21  O   UNK N   1      20.378  19.023   1.333  0.00  0.00    -0.775 OA
HETATM   22  H   UNK N   1      20.335  18.316   0.720  0.00  0.00     0.167 HD
ENDBRANCH  19  21
ENDBRANCH  18  19
ENDBRANCH  17  18
ENDBRANCH   6  17
ENDBRANCH   2   5
BRANCH   1  23
HETATM   23  C   UNK N   1      26.912  19.311   5.422  0.00  0.00     0.211 A 
HETATM   24  C   UNK N   1      27.366  19.350   6.841  0.00  0.00     0.251 A 
HETATM   25  N   UNK N   1      28.007  18.221   6.855  0.00  0.00    -0.293 N 
HETATM   26  O   UNK N   1      27.318  20.212   7.707  0.00  0.00    -0.271 OA
HETATM   27  C   UNK N   1      27.730  17.905   5.490  0.00  0.00     0.187 A 
HETATM   28  C   UNK N   1      28.967  17.667   7.752  0.00  0.00     0.119 C 
HETATM   29  S   UNK N   1      29.328  17.944   4.631  0.00  0.00    -0.136 SA
HETATM   30  C   UNK N   1      29.986  16.617   5.715  0.00  0.00     0.117 C 
HETATM   31  C   UNK N   1      29.975  16.924   7.209  0.00  0.00    -0.016 C 
BRANCH  31  32
HETATM   32  C   UNK N   1      31.091  16.405   8.036  0.00  0.00     0.000 C 
HETATM   33  C   UNK N   1      32.266  17.027   8.118  0.00  0.00     0.012 C 
ENDBRANCH  31  32
BRANCH  28  34
HETATM   34  C   UNK N   1      28.881  17.979   9.222  0.00  0.00     0.194 C 
HETATM   35  O   UNK N   1      28.200  17.277   9.953  0.00  0.00    -0.645 OA
BRANCH  34  36
HETATM   36  O   UNK N   1      29.595  18.979   9.774  0.00  0.00    -0.772 OA
HETATM   37  H   UNK N   1      29.177  19.672  10.244  0.00  0.00     0.167 HD
ENDBRANCH  34  36
ENDBRANCH  28  34
ENDBRANCH   1  23
TORSDOF 11
ENDMDL
MODEL 7
REMARK VINA RESULT:      -6.2      2.486      7.468
REMARK  11 active torsions:
REMARK  status: ('A' for Active; 'I' for Inactive)
REMARK    1  A    between atoms: C_3  and  C_13 
REMARK    2  A    between atoms: C_4  and  C_10 
REMARK    3  A    between atoms: C_8  and  N_15 
REMARK    4  A    between atoms: C_10  and  O_11 
REMARK       I    between atoms: N_15  and  C_16 
REMARK    5  A    between atoms: C_16  and  C_17 
REMARK    6  A    between atoms: C_17  and  C_19 
REMARK    7  A    between atoms: N_20  and  O_22 
REMARK    8  A    between atoms: O_22  and  C_23 
REMARK    9  A    between atoms: C_23  and  C_24 
REMARK   10  A    between atoms: C_24  and  O_25 
REMARK   11  A    between atoms: C_29  and  N_32 
ROOT
HETATM    1  N   UNK N   1      20.970  16.441   5.246  0.00  0.00    -0.340 N 
HETATM    2  C   UNK N   1      21.580  17.628   5.528  0.00  0.00     0.273 C 
HETATM    3  O   UNK N   1      21.598  18.057   6.669  0.00  0.00    -0.266 OA
HETATM    4  H   UNK N   1      20.852  16.220   4.293  0.00  0.00     0.163 HD
ENDROOT
BRANCH   2   5
HETATM    5  C   UNK N   1      22.379  18.319   4.465  0.00  0.00     0.149 C 
HETATM    6  N   UNK N   1      21.828  18.859   3.427  0.00  0.00    -0.259 N 
ATOM      7  HN  UNK N   1      22.432  19.240   2.698  1.00  0.00     0.194 HD
BRANCH   5   8
HETATM    8  C   UNK N   1      23.865  18.259   4.523  0.00  0.00     0.075 A 
HETATM    9  C   UNK N   1      24.704  19.074   3.726  0.00  0.00     0.085 A 
HETATM   10  S   UNK N   1      26.243  18.744   4.236  0.00  0.00    -0.064 SA
HETATM   11  C   UNK N   1      25.862  17.645   5.393  0.00  0.00     0.142 A 
HETATM   12  N   UNK N   1      24.521  17.474   5.452  0.00  0.00    -0.335 N 
ATOM     13  HN  UNK N   1      24.052  16.844   6.102  1.00  0.00     0.168 HD
BRANCH  11  14
HETATM   14  N   UNK N   1      26.780  16.990   6.235  0.00  0.00    -0.380 N 
HETATM   15  H   UNK N   1      26.472  16.284   6.849  0.00  0.00     0.158 HD
HETATM   16  H   UNK N   1      27.733  17.237   6.211  0.00  0.00     0.158 HD
ENDBRANCH  11  14
ENDBRANCH   5   8
BRANCH   6  17
HETATM   17  O   UNK N   1      20.519  18.938   3.265  0.00  0.00    -0.269 OA
BRANCH  17  18
HETATM   18  C   UNK N   1      19.981  19.809   2.346  0.00  0.00     0.311 C 
BRANCH  18  19
HETATM   19  C   UNK N   1      21.046  20.713   1.817  0.00  0.00     0.166 C 
HETATM   20  O   UNK N   1      21.406  20.620   0.655  0.00  0.00    -0.648 OA
BRANCH  19  21
HETATM   21  O   UNK N   1      21.613  21.628   2.625  0.00  0.00    -0.775 OA
HETATM   22  H   UNK N   1      21.930  21.555   3.503  0.00  0.00     0.167 HD
ENDBRANCH  19  21
ENDBRANCH  18  19
ENDBRANCH  17  18
ENDBRANCH   6  17
ENDBRANCH   2   5
BRANCH   1  23
HETATM   23  C   UNK N   1      20.473  15.465   6.211  0.00  0.00     0.211 A 
HETATM   24  C   UNK N   1      21.001  14.098   5.933  0.00  0.00     0.251 A 
HETATM   25  N   UNK N   1      21.701  13.954   7.017  0.00  0.00    -0.293 N 
HETATM   26  O   UNK N   1      20.759  13.273   5.064  0.00  0.00    -0.271 OA
HETATM   27  C   UNK N   1      21.363  15.233   7.554  0.00  0.00     0.187 A 
HETATM   28  C   UNK N   1      22.276  12.812   7.649  0.00  0.00     0.119 C 
HETATM   29  S   UNK N   1      20.375  14.909   9.042  0.00  0.00    -0.136 SA
HETATM   30  C   UNK N   1      21.763  13.983   9.806  0.00  0.00     0.117 C 
HETATM   31  C   UNK N   1      22.268  12.782   9.014  0.00  0.00    -0.016 C 
BRANCH  31  32
HETATM   32  C   UNK N   1      22.729  11.592   9.768  0.00  0.00     0.000 C 
HETATM   33  C   UNK N   1      23.248  11.680  10.992  0.00  0.00     0.012 C 
ENDBRANCH  31  32
BRANCH  28  34
HETATM   34  C   UNK N   1      22.790  11.674   6.808  0.00  0.00     0.194 C 
HETATM   35  O   UNK N   1      23.989  11.554   6.615  0.00  0.00    -0.645 OA
BRANCH  34  36
HETATM   36  O   UNK N   1      21.962  10.733   6.315  0.00  0.00    -0.772 OA
HETATM   37  H   UNK N   1      22.295   9.957   5.911  0.00  0.00     0.167 HD
ENDBRANCH  34  36
ENDBRANCH  28  34
ENDBRANCH   1  23
TORSDOF 11
ENDMDL
MODEL 8
REMARK VINA RESULT:      -6.2     12.050     15.344
REMARK  11 active torsions:
REMARK  status: ('A' for Active; 'I' for Inactive)
REMARK    1  A    between atoms: C_3  and  C_13 
REMARK    2  A    between atoms: C_4  and  C_10 
REMARK    3  A    between atoms: C_8  and  N_15 
REMARK    4  A    between atoms: C_10  and  O_11 
REMARK       I    between atoms: N_15  and  C_16 
REMARK    5  A    between atoms: C_16  and  C_17 
REMARK    6  A    between atoms: C_17  and  C_19 
REMARK    7  A    between atoms: N_20  and  O_22 
REMARK    8  A    between atoms: O_22  and  C_23 
REMARK    9  A    between atoms: C_23  and  C_24 
REMARK   10  A    between atoms: C_24  and  O_25 
REMARK   11  A    between atoms: C_29  and  N_32 
ROOT
HETATM    1  N   UNK N   1      34.897  15.239   8.975  0.00  0.00    -0.340 N 
HETATM    2  C   UNK N   1      34.418  16.489   8.707  0.00  0.00     0.273 C 
HETATM    3  O   UNK N   1      34.829  17.454   9.329  0.00  0.00    -0.266 OA
HETATM    4  H   UNK N   1      34.423  14.486   8.553  0.00  0.00     0.163 HD
ENDROOT
BRANCH   2   5
HETATM    5  C   UNK N   1      33.517  16.697   7.529  0.00  0.00     0.149 C 
HETATM    6  N   UNK N   1      33.932  16.572   6.309  0.00  0.00    -0.259 N 
ATOM      7  HN  UNK N   1      33.292  16.809   5.551  1.00  0.00     0.194 HD
BRANCH   5   8
HETATM    8  C   UNK N   1      32.137  17.207   7.754  0.00  0.00     0.075 A 
HETATM    9  C   UNK N   1      31.086  17.034   6.822  0.00  0.00     0.085 A 
HETATM   10  S   UNK N   1      29.740  17.644   7.566  0.00  0.00    -0.064 SA
HETATM   11  C   UNK N   1      30.449  18.091   8.977  0.00  0.00     0.142 A 
HETATM   12  N   UNK N   1      31.768  17.790   8.952  0.00  0.00    -0.335 N 
ATOM     13  HN  UNK N   1      32.411  17.970   9.722  1.00  0.00     0.168 HD
BRANCH  11  14
HETATM   14  N   UNK N   1      29.792  18.672  10.076  0.00  0.00    -0.380 N 
HETATM   15  H   UNK N   1      29.865  18.262  10.969  0.00  0.00     0.158 HD
HETATM   16  H   UNK N   1      29.257  19.491   9.954  0.00  0.00     0.158 HD
ENDBRANCH  11  14
ENDBRANCH   5   8
BRANCH   6  17
HETATM   17  O   UNK N   1      35.147  16.154   6.001  0.00  0.00    -0.269 OA
BRANCH  17  18
HETATM   18  C   UNK N   1      35.326  14.963   5.336  0.00  0.00     0.311 C 
BRANCH  18  19
HETATM   19  C   UNK N   1      34.159  14.064   5.578  0.00  0.00     0.166 C 
HETATM   20  O   UNK N   1      33.276  13.969   4.741  0.00  0.00    -0.648 OA
BRANCH  19  21
HETATM   21  O   UNK N   1      34.079  13.360   6.722  0.00  0.00    -0.775 OA
HETATM   22  H   UNK N   1      34.462  12.540   6.962  0.00  0.00     0.167 HD
ENDBRANCH  19  21
ENDBRANCH  18  19
ENDBRANCH  17  18
ENDBRANCH   6  17
ENDBRANCH   2   5
BRANCH   1  23
HETATM   23  C   UNK N   1      36.037  14.905   9.822  0.00  0.00     0.211 A 
HETATM   24  C   UNK N   1      35.633  14.734  11.247  0.00  0.00     0.251 A 
HETATM   25  N   UNK N   1      35.914  13.471  11.361  0.00  0.00    -0.293 N 
HETATM   26  O   UNK N   1      35.294  15.523  12.117  0.00  0.00    -0.271 OA
HETATM   27  C   UNK N   1      36.375  13.325  10.018  0.00  0.00     0.187 A 
HETATM   28  C   UNK N   1      36.085  12.619  12.492  0.00  0.00     0.119 C 
HETATM   29  S   UNK N   1      38.149  12.963  10.133  0.00  0.00    -0.136 SA
HETATM   30  C   UNK N   1      37.815  11.445  11.109  0.00  0.00     0.117 C 
HETATM   31  C   UNK N   1      37.047  11.655  12.409  0.00  0.00    -0.016 C 
BRANCH  31  32
HETATM   32  C   UNK N   1      37.390  10.797  13.569  0.00  0.00     0.000 C 
HETATM   33  C   UNK N   1      38.350  11.120  14.435  0.00  0.00     0.012 C 
ENDBRANCH  31  32
BRANCH  28  34
HETATM   34  C   UNK N   1      35.270  12.857  13.736  0.00  0.00     0.194 C 
HETATM   35  O   UNK N   1      34.255  12.208  13.931  0.00  0.00    -0.645 OA
BRANCH  34  36
HETATM   36  O   UNK N   1      35.669  13.727  14.684  0.00  0.00    -0.772 OA
HETATM   37  H   UNK N   1      36.302  13.485  15.329  0.00  0.00     0.167 HD
ENDBRANCH  34  36
ENDBRANCH  28  34
ENDBRANCH   1  23
TORSDOF 11
ENDMDL
MODEL 9
REMARK VINA RESULT:      -6.1     11.329     14.265
REMARK  11 active torsions:
REMARK  status: ('A' for Active; 'I' for Inactive)
REMARK    1  A    between atoms: C_3  and  C_13 
REMARK    2  A    between atoms: C_4  and  C_10 
REMARK    3  A    between atoms: C_8  and  N_15 
REMARK    4  A    between atoms: C_10  and  O_11 
REMARK       I    between atoms: N_15  and  C_16 
REMARK    5  A    between atoms: C_16  and  C_17 
REMARK    6  A    between atoms: C_17  and  C_19 
REMARK    7  A    between atoms: N_20  and  O_22 
REMARK    8  A    between atoms: O_22  and  C_23 
REMARK    9  A    between atoms: C_23  and  C_24 
REMARK   10  A    between atoms: C_24  and  O_25 
REMARK   11  A    between atoms: C_29  and  N_32 
ROOT
HETATM    1  N   UNK N   1      33.929  16.124   8.131  0.00  0.00    -0.340 N 
HETATM    2  C   UNK N   1      33.590  17.225   7.399  0.00  0.00     0.273 C 
HETATM    3  O   UNK N   1      34.415  18.095   7.174  0.00  0.00    -0.266 OA
HETATM    4  H   UNK N   1      33.191  15.535   8.409  0.00  0.00     0.163 HD
ENDROOT
BRANCH   2   5
HETATM    5  C   UNK N   1      32.253  17.281   6.725  0.00  0.00     0.149 C 
HETATM    6  N   UNK N   1      32.128  17.298   5.437  0.00  0.00    -0.259 N 
ATOM      7  HN  UNK N   1      31.197  17.421   5.041  1.00  0.00     0.194 HD
BRANCH   5   8
HETATM    8  C   UNK N   1      31.031  17.470   7.554  0.00  0.00     0.075 A 
HETATM    9  C   UNK N   1      31.028  18.183   8.777  0.00  0.00     0.085 A 
HETATM   10  S   UNK N   1      29.442  18.233   9.246  0.00  0.00    -0.064 SA
HETATM   11  C   UNK N   1      28.808  17.409   7.976  0.00  0.00     0.142 A 
HETATM   12  N   UNK N   1      29.789  17.052   7.115  0.00  0.00    -0.335 N 
ATOM     13  HN  UNK N   1      29.631  16.537   6.249  1.00  0.00     0.168 HD
BRANCH  11  14
HETATM   14  N   UNK N   1      27.443  17.134   7.777  0.00  0.00    -0.380 N 
HETATM   15  H   UNK N   1      26.899  16.772   8.514  0.00  0.00     0.158 HD
HETATM   16  H   UNK N   1      27.029  17.305   6.900  0.00  0.00     0.158 HD
ENDBRANCH  11  14
ENDBRANCH   5   8
BRANCH   6  17
HETATM   17  O   UNK N   1      33.152  17.166   4.612  0.00  0.00    -0.269 OA
BRANCH  17  18
HETATM   18  C   UNK N   1      32.996  16.524   3.405  0.00  0.00     0.311 C 
BRANCH  18  19
HETATM   19  C   UNK N   1      31.562  16.159   3.204  0.00  0.00     0.166 C 
HETATM   20  O   UNK N   1      31.156  15.061   3.546  0.00  0.00    -0.648 OA
BRANCH  19  21
HETATM   21  O   UNK N   1      30.717  17.041   2.639  0.00  0.00    -0.775 OA
HETATM   22  H   UNK N   1      30.538  17.936   2.850  0.00  0.00     0.167 HD
ENDBRANCH  19  21
ENDBRANCH  18  19
ENDBRANCH  17  18
ENDBRANCH   6  17
ENDBRANCH   2   5
BRANCH   1  23
HETATM   23  C   UNK N   1      35.273  15.731   8.543  0.00  0.00     0.211 A 
HETATM   24  C   UNK N   1      35.422  15.753  10.026  0.00  0.00     0.251 A 
HETATM   25  N   UNK N   1      35.620  14.482  10.205  0.00  0.00    -0.293 N 
HETATM   26  O   UNK N   1      35.502  16.661  10.841  0.00  0.00    -0.271 OA
HETATM   27  C   UNK N   1      35.528  14.148   8.820  0.00  0.00     0.187 A 
HETATM   28  C   UNK N   1      36.133  13.731  11.303  0.00  0.00     0.119 C 
HETATM   29  S   UNK N   1      37.178  13.573   8.331  0.00  0.00    -0.136 SA
HETATM   30  C   UNK N   1      37.111  12.214   9.562  0.00  0.00     0.117 C 
HETATM   31  C   UNK N   1      36.910  12.648  11.010  0.00  0.00    -0.016 C 
BRANCH  31  32
HETATM   32  C   UNK N   1      37.592  11.870  12.072  0.00  0.00     0.000 C 
HETATM   33  C   UNK N   1      37.600  10.538  12.088  0.00  0.00     0.012 C 
ENDBRANCH  31  32
BRANCH  28  34
HETATM   34  C   UNK N   1      35.869  14.192  12.711  0.00  0.00     0.194 C 
HETATM   35  O   UNK N   1      34.920  13.739  13.331  0.00  0.00    -0.645 OA
BRANCH  34  36
HETATM   36  O   UNK N   1      36.698  15.048  13.339  0.00  0.00    -0.772 OA
HETATM   37  H   UNK N   1      37.416  15.447  12.890  0.00  0.00     0.167 HD
ENDBRANCH  34  36
ENDBRANCH  28  34
ENDBRANCH   1  23
TORSDOF 11
ENDMDL
