MODEL 1
REMARK VINA RESULT:      -7.2      0.000      0.000
REMARK  8 active torsions:
REMARK  status: ('A' for Active; 'I' for Inactive)
REMARK    1  A    between atoms: C_6  and  C_8 
REMARK    2  A    between atoms: C_14  and  O_16 
REMARK    3  A    between atoms: C_24  and  C_18 
REMARK    4  A    between atoms: C_18  and  C_19 
REMARK    5  A    between atoms: C_19  and  C_20 
REMARK    6  A    between atoms: C_20  and  C_23 
REMARK    7  A    between atoms: C_23  and  C_28 
REMARK    8  A    between atoms: C_28  and  O_29 
ROOT
HETATM    1  C   UNK N   1      26.843  13.985   4.229  0.00  0.00     0.010 C 
HETATM    2  C   UNK N   1      25.200  16.432   4.296  0.00  0.00    -0.075 C 
HETATM    3  C   UNK N   1      27.423  17.699   3.896  0.00  0.00     0.010 C 
HETATM    4  C   UNK N   1      28.843  17.190   3.582  0.00  0.00     0.006 C 
HETATM    5  C   UNK N   1      25.291  13.931   4.278  0.00  0.00     0.005 C 
HETATM    6  C   UNK N   1      24.440  17.452   4.713  0.00  0.00     0.004 C 
HETATM    7  C   UNK N   1      24.589  15.180   3.705  0.00  0.00     0.034 C 
HETATM    8  C   UNK N   1      28.868  15.678   3.892  0.00  0.00    -0.002 C 
HETATM    9  C   UNK N   1      26.701  16.483   4.454  0.00  0.00     0.023 C 
HETATM   10  C   UNK N   1      27.376  15.330   3.712  0.00  0.00    -0.033 C 
HETATM   11  C   UNK N   1      27.079  15.366   2.194  0.00  0.00     0.016 C 
ENDROOT
BRANCH   6  12
HETATM   12  C   UNK N   1      22.973  17.443   4.570  0.00  0.00     0.008 C 
HETATM   13  C   UNK N   1      22.243  18.409   3.977  0.00  0.00    -0.050 C 
HETATM   14  C   UNK N   1      22.807  19.654   3.346  0.00  0.00    -0.061 C 
HETATM   15  C   UNK N   1      20.769  18.172   3.882  0.00  0.00     0.070 C 
HETATM   16  C   UNK N   1      21.930  20.538   2.490  0.00  0.00     0.041 C 
HETATM   17  C   UNK N   1      24.099  19.974   3.425  0.00  0.00     0.019 C 
HETATM   18  C   UNK N   1      20.453  20.131   2.435  0.00  0.00     0.036 C 
HETATM   19  C   UNK N   1      20.265  18.622   2.522  0.00  0.00     0.122 C 
BRANCH  19  20
HETATM   20  O   UNK N   1      18.911  18.315   2.405  0.00  0.00    -0.395 OA
HETATM   21  H   UNK N   1      18.302  18.395   3.156  0.00  0.00     0.210 HD
ENDBRANCH  19  20
ENDBRANCH   6  12
BRANCH   8  22
HETATM   22  C   UNK N   1      29.459  15.455   5.315  0.00  0.00    -0.014 C 
HETATM   23  C   UNK N   1      30.320  14.206   5.371  0.00  0.00     0.010 C 
BRANCH  22  24
HETATM   24  C   UNK N   1      30.378  16.605   5.751  0.00  0.00     0.005 C 
BRANCH  24  25
HETATM   25  C   UNK N   1      30.220  17.004   7.208  0.00  0.00     0.003 C 
BRANCH  25  26
HETATM   26  C   UNK N   1      28.743  17.139   7.563  0.00  0.00     0.037 C 
BRANCH  26  27
HETATM   27  C   UNK N   1      28.443  18.352   8.440  0.00  0.00     0.051 C 
HETATM   28  C   UNK N   1      27.971  19.511   7.585  0.00  0.00     0.045 C 
HETATM   29  C   UNK N   1      29.667  18.773   9.236  0.00  0.00     0.045 C 
BRANCH  27  30
HETATM   30  O   UNK N   1      27.429  18.012   9.335  0.00  0.00    -0.391 OA
HETATM   31  H   UNK N   1      26.868  18.174  10.111  0.00  0.00     0.210 HD
ENDBRANCH  27  30
ENDBRANCH  26  27
ENDBRANCH  25  26
ENDBRANCH  24  25
ENDBRANCH  22  24
ENDBRANCH   8  22
TORSDOF 8
ENDMDL
MODEL 2
REMARK VINA RESULT:      -7.2      4.863      7.457
REMARK  8 active torsions:
REMARK  status: ('A' for Active; 'I' for Inactive)
REMARK    1  A    between atoms: C_6  and  C_8 
REMARK    2  A    between atoms: C_14  and  O_16 
REMARK    3  A    between atoms: C_24  and  C_18 
REMARK    4  A    between atoms: C_18  and  C_19 
REMARK    5  A    between atoms: C_19  and  C_20 
REMARK    6  A    between atoms: C_20  and  C_23 
REMARK    7  A    between atoms: C_23  and  C_28 
REMARK    8  A    between atoms: C_28  and  O_29 
ROOT
HETATM    1  C   UNK N   1      34.082  16.149   5.450  0.00  0.00     0.010 C 
HETATM    2  C   UNK N   1      31.216  16.545   6.016  0.00  0.00    -0.075 C 
HETATM    3  C   UNK N   1      31.848  16.117   8.491  0.00  0.00     0.010 C 
HETATM    4  C   UNK N   1      33.218  15.952   9.178  0.00  0.00     0.006 C 
HETATM    5  C   UNK N   1      33.088  16.631   4.357  0.00  0.00     0.005 C 
HETATM    6  C   UNK N   1      29.892  16.369   6.096  0.00  0.00     0.004 C 
HETATM    7  C   UNK N   1      31.840  17.358   4.903  0.00  0.00     0.034 C 
HETATM    8  C   UNK N   1      34.263  15.713   8.068  0.00  0.00    -0.002 C 
HETATM    9  C   UNK N   1      32.136  15.886   7.016  0.00  0.00     0.023 C 
HETATM   10  C   UNK N   1      33.568  16.401   6.875  0.00  0.00    -0.033 C 
HETATM   11  C   UNK N   1      33.659  17.928   7.113  0.00  0.00     0.016 C 
ENDROOT
BRANCH   6  12
HETATM   12  C   UNK N   1      28.960  17.000   5.144  0.00  0.00     0.008 C 
HETATM   13  C   UNK N   1      28.193  18.077   5.404  0.00  0.00    -0.050 C 
HETATM   14  C   UNK N   1      28.170  18.827   6.710  0.00  0.00    -0.061 C 
HETATM   15  C   UNK N   1      27.363  18.598   4.275  0.00  0.00     0.070 C 
HETATM   16  C   UNK N   1      27.471  20.163   6.808  0.00  0.00     0.041 C 
HETATM   17  C   UNK N   1      28.837  18.410   7.787  0.00  0.00     0.019 C 
HETATM   18  C   UNK N   1      26.716  20.597   5.546  0.00  0.00     0.036 C 
HETATM   19  C   UNK N   1      27.396  20.115   4.272  0.00  0.00     0.122 C 
BRANCH  19  20
HETATM   20  O   UNK N   1      26.698  20.593   3.164  0.00  0.00    -0.395 OA
HETATM   21  H   UNK N   1      25.773  20.879   3.228  0.00  0.00     0.210 HD
ENDBRANCH  19  20
ENDBRANCH   6  12
BRANCH   8  22
HETATM   22  C   UNK N   1      34.520  14.184   7.925  0.00  0.00    -0.014 C 
HETATM   23  C   UNK N   1      35.989  13.887   7.681  0.00  0.00     0.010 C 
BRANCH  22  24
HETATM   24  C   UNK N   1      34.152  13.409   9.198  0.00  0.00     0.005 C 
BRANCH  24  25
HETATM   25  C   UNK N   1      35.352  12.962  10.016  0.00  0.00     0.003 C 
BRANCH  25  26
HETATM   26  C   UNK N   1      35.129  13.267  11.494  0.00  0.00     0.037 C 
BRANCH  26  27
HETATM   27  C   UNK N   1      36.183  14.203  12.080  0.00  0.00     0.051 C 
HETATM   28  C   UNK N   1      36.072  14.232  13.592  0.00  0.00     0.045 C 
HETATM   29  C   UNK N   1      36.035  15.613  11.533  0.00  0.00     0.045 C 
BRANCH  27  30
HETATM   30  O   UNK N   1      37.446  13.723  11.732  0.00  0.00    -0.391 OA
HETATM   31  H   UNK N   1      38.099  13.386  11.098  0.00  0.00     0.210 HD
ENDBRANCH  27  30
ENDBRANCH  26  27
ENDBRANCH  25  26
ENDBRANCH  24  25
ENDBRANCH  22  24
ENDBRANCH   8  22
TORSDOF 8
ENDMDL
MODEL 3
REMARK VINA RESULT:      -7.2     11.369     13.262
REMARK  8 active torsions:
REMARK  status: ('A' for Active; 'I' for Inactive)
REMARK    1  A    between atoms: C_6  and  C_8 
REMARK    2  A    between atoms: C_14  and  O_16 
REMARK    3  A    between atoms: C_24  and  C_18 
REMARK    4  A    between atoms: C_18  and  C_19 
REMARK    5  A    between atoms: C_19  and  C_20 
REMARK    6  A    between atoms: C_20  and  C_23 
REMARK    7  A    between atoms: C_23  and  C_28 
REMARK    8  A    between atoms: C_28  and  O_29 
ROOT
HETATM    1  C   UNK N   1      26.923  22.156  -7.131  0.00  0.00     0.010 C 
HETATM    2  C   UNK N   1      27.819  24.558  -5.675  0.00  0.00    -0.075 C 
HETATM    3  C   UNK N   1      30.188  23.948  -6.525  0.00  0.00     0.010 C 
HETATM    4  C   UNK N   1      30.668  22.871  -7.518  0.00  0.00     0.006 C 
HETATM    5  C   UNK N   1      25.916  23.149  -6.485  0.00  0.00     0.005 C 
HETATM    6  C   UNK N   1      28.152  25.414  -4.702  0.00  0.00     0.004 C 
HETATM    7  C   UNK N   1      26.452  24.587  -6.322  0.00  0.00     0.034 C 
HETATM    8  C   UNK N   1      29.503  21.879  -7.719  0.00  0.00    -0.002 C 
HETATM    9  C   UNK N   1      28.793  23.495  -6.123  0.00  0.00     0.023 C 
HETATM   10  C   UNK N   1      28.301  22.786  -7.384  0.00  0.00    -0.033 C 
HETATM   11  C   UNK N   1      28.126  23.768  -8.567  0.00  0.00     0.016 C 
ENDROOT
BRANCH   6  12
HETATM   12  C   UNK N   1      27.231  26.471  -4.242  0.00  0.00     0.008 C 
HETATM   13  C   UNK N   1      27.605  27.654  -3.716  0.00  0.00    -0.050 C 
HETATM   14  C   UNK N   1      29.030  28.103  -3.525  0.00  0.00    -0.061 C 
HETATM   15  C   UNK N   1      26.509  28.611  -3.373  0.00  0.00     0.070 C 
HETATM   16  C   UNK N   1      29.333  29.540  -3.168  0.00  0.00     0.041 C 
HETATM   17  C   UNK N   1      30.070  27.301  -3.755  0.00  0.00     0.019 C 
HETATM   18  C   UNK N   1      28.105  30.419  -2.909  0.00  0.00     0.036 C 
HETATM   19  C   UNK N   1      26.915  30.019  -3.771  0.00  0.00     0.122 C 
BRANCH  19  20
HETATM   20  O   UNK N   1      25.855  30.892  -3.533  0.00  0.00    -0.395 OA
HETATM   21  H   UNK N   1      24.938  30.650  -3.738  0.00  0.00     0.210 HD
ENDBRANCH  19  20
ENDBRANCH   6  12
BRANCH   8  22
HETATM   22  C   UNK N   1      29.713  20.646  -6.791  0.00  0.00    -0.014 C 
HETATM   23  C   UNK N   1      29.285  19.358  -7.471  0.00  0.00     0.010 C 
BRANCH  22  24
HETATM   24  C   UNK N   1      31.188  20.441  -6.419  0.00  0.00     0.005 C 
BRANCH  24  25
HETATM   25  C   UNK N   1      31.422  20.188  -4.940  0.00  0.00     0.003 C 
BRANCH  25  26
HETATM   26  C   UNK N   1      30.550  21.114  -4.099  0.00  0.00     0.037 C 
BRANCH  26  27
HETATM   27  C   UNK N   1      31.356  22.091  -3.247  0.00  0.00     0.051 C 
HETATM   28  C   UNK N   1      30.431  23.090  -2.581  0.00  0.00     0.045 C 
HETATM   29  C   UNK N   1      32.387  22.832  -4.083  0.00  0.00     0.045 C 
BRANCH  27  30
HETATM   30  O   UNK N   1      32.025  21.369  -2.258  0.00  0.00    -0.391 OA
HETATM   31  H   UNK N   1      32.311  21.215  -1.343  0.00  0.00     0.210 HD
ENDBRANCH  27  30
ENDBRANCH  26  27
ENDBRANCH  25  26
ENDBRANCH  24  25
ENDBRANCH  22  24
ENDBRANCH   8  22
TORSDOF 8
ENDMDL
MODEL 4
REMARK VINA RESULT:      -7.0      6.970     10.545
REMARK  8 active torsions:
REMARK  status: ('A' for Active; 'I' for Inactive)
REMARK    1  A    between atoms: C_6  and  C_8 
REMARK    2  A    between atoms: C_14  and  O_16 
REMARK    3  A    between atoms: C_24  and  C_18 
REMARK    4  A    between atoms: C_18  and  C_19 
REMARK    5  A    between atoms: C_19  and  C_20 
REMARK    6  A    between atoms: C_20  and  C_23 
REMARK    7  A    between atoms: C_23  and  C_28 
REMARK    8  A    between atoms: C_28  and  O_29 
ROOT
HETATM    1  C   UNK N   1      34.468  12.530   9.670  0.00  0.00     0.010 C 
HETATM    2  C   UNK N   1      33.175  15.056   8.870  0.00  0.00    -0.075 C 
HETATM    3  C   UNK N   1      35.032  16.215  10.255  0.00  0.00     0.010 C 
HETATM    4  C   UNK N   1      36.289  15.651  10.946  0.00  0.00     0.006 C 
HETATM    5  C   UNK N   1      33.311  12.569   8.633  0.00  0.00     0.005 C 
HETATM    6  C   UNK N   1      32.315  16.076   8.765  0.00  0.00     0.004 C 
HETATM    7  C   UNK N   1      33.169  13.910   7.883  0.00  0.00     0.034 C 
HETATM    8  C   UNK N   1      36.128  14.118  11.012  0.00  0.00    -0.002 C 
HETATM    9  C   UNK N   1      34.153  14.997  10.020  0.00  0.00     0.023 C 
HETATM   10  C   UNK N   1      35.179  13.883   9.819  0.00  0.00    -0.033 C 
HETATM   11  C   UNK N   1      36.009  14.088   8.529  0.00  0.00     0.016 C 
ENDROOT
BRANCH   6  12
HETATM   12  C   UNK N   1      31.350  16.174   7.654  0.00  0.00     0.008 C 
HETATM   13  C   UNK N   1      31.600  16.733   6.454  0.00  0.00    -0.050 C 
HETATM   14  C   UNK N   1      32.915  17.340   6.040  0.00  0.00    -0.061 C 
HETATM   15  C   UNK N   1      30.500  16.670   5.443  0.00  0.00     0.070 C 
HETATM   16  C   UNK N   1      33.163  17.705   4.595  0.00  0.00     0.041 C 
HETATM   17  C   UNK N   1      33.934  17.485   6.888  0.00  0.00     0.019 C 
HETATM   18  C   UNK N   1      31.960  17.524   3.662  0.00  0.00     0.036 C 
HETATM   19  C   UNK N   1      31.079  16.353   4.076  0.00  0.00     0.122 C 
BRANCH  19  20
HETATM   20  O   UNK N   1      30.042  16.205   3.156  0.00  0.00    -0.395 OA
HETATM   21  H   UNK N   1      30.149  15.681   2.346  0.00  0.00     0.210 HD
ENDBRANCH  19  20
ENDBRANCH   6  12
BRANCH   8  22
HETATM   22  C   UNK N   1      35.581  13.718  12.414  0.00  0.00    -0.014 C 
HETATM   23  C   UNK N   1      35.798  12.243  12.697  0.00  0.00     0.010 C 
BRANCH  22  24
HETATM   24  C   UNK N   1      36.294  14.462  13.552  0.00  0.00     0.005 C 
BRANCH  24  25
HETATM   25  C   UNK N   1      36.822  13.552  14.648  0.00  0.00     0.003 C 
BRANCH  25  26
HETATM   26  C   UNK N   1      36.287  13.994  16.006  0.00  0.00     0.037 C 
BRANCH  26  27
HETATM   27  C   UNK N   1      35.291  13.008  16.610  0.00  0.00     0.051 C 
HETATM   28  C   UNK N   1      35.092  13.303  18.085  0.00  0.00     0.045 C 
HETATM   29  C   UNK N   1      35.762  11.573  16.439  0.00  0.00     0.045 C 
BRANCH  27  30
HETATM   30  O   UNK N   1      34.069  13.154  15.955  0.00  0.00    -0.391 OA
HETATM   31  H   UNK N   1      33.490  13.543  15.280  0.00  0.00     0.210 HD
ENDBRANCH  27  30
ENDBRANCH  26  27
ENDBRANCH  25  26
ENDBRANCH  24  25
ENDBRANCH  22  24
ENDBRANCH   8  22
TORSDOF 8
ENDMDL
MODEL 5
REMARK VINA RESULT:      -6.9     11.700     15.728
REMARK  8 active torsions:
REMARK  status: ('A' for Active; 'I' for Inactive)
REMARK    1  A    between atoms: C_6  and  C_8 
REMARK    2  A    between atoms: C_14  and  O_16 
REMARK    3  A    between atoms: C_24  and  C_18 
REMARK    4  A    between atoms: C_18  and  C_19 
REMARK    5  A    between atoms: C_19  and  C_20 
REMARK    6  A    between atoms: C_20  and  C_23 
REMARK    7  A    between atoms: C_23  and  C_28 
REMARK    8  A    between atoms: C_28  and  O_29 
ROOT
HETATM    1  C   UNK N   1      37.037   8.915  11.733  0.00  0.00     0.010 C 
HETATM    2  C   UNK N   1      35.353   9.657  14.036  0.00  0.00    -0.075 C 
HETATM    3  C   UNK N   1      33.461   9.981  12.297  0.00  0.00     0.010 C 
HETATM    4  C   UNK N   1      33.400   9.667  10.789  0.00  0.00     0.006 C 
HETATM    5  C   UNK N   1      37.537   8.768  13.198  0.00  0.00     0.005 C 
HETATM    6  C   UNK N   1      34.815  10.320  15.067  0.00  0.00     0.004 C 
HETATM    7  C   UNK N   1      36.413   8.598  14.242  0.00  0.00     0.034 C 
HETATM    8  C   UNK N   1      34.847   9.425  10.311  0.00  0.00    -0.002 C 
HETATM    9  C   UNK N   1      34.947   9.989  12.620  0.00  0.00     0.023 C 
HETATM   10  C   UNK N   1      35.506   8.968  11.629  0.00  0.00    -0.033 C 
HETATM   11  C   UNK N   1      34.994   7.538  11.923  0.00  0.00     0.016 C 
ENDROOT
BRANCH   6  12
HETATM   12  C   UNK N   1      35.179  10.021  16.464  0.00  0.00     0.008 C 
HETATM   13  C   UNK N   1      35.349  10.937  17.438  0.00  0.00    -0.050 C 
HETATM   14  C   UNK N   1      35.180  12.423  17.264  0.00  0.00    -0.061 C 
HETATM   15  C   UNK N   1      35.655  10.414  18.805  0.00  0.00     0.070 C 
HETATM   16  C   UNK N   1      35.143  13.330  18.472  0.00  0.00     0.041 C 
HETATM   17  C   UNK N   1      34.957  12.984  16.075  0.00  0.00     0.019 C 
HETATM   18  C   UNK N   1      35.409  12.639  19.814  0.00  0.00     0.036 C 
HETATM   19  C   UNK N   1      34.884  11.210  19.842  0.00  0.00     0.122 C 
BRANCH  19  20
HETATM   20  O   UNK N   1      35.101  10.660  21.105  0.00  0.00    -0.395 OA
HETATM   21  H   UNK N   1      34.794  11.101  21.913  0.00  0.00     0.210 HD
ENDBRANCH  19  20
ENDBRANCH   6  12
BRANCH   8  22
HETATM   22  C   UNK N   1      35.407  10.734   9.680  0.00  0.00    -0.014 C 
HETATM   23  C   UNK N   1      36.192  10.450   8.412  0.00  0.00     0.010 C 
BRANCH  22  24
HETATM   24  C   UNK N   1      34.291  11.702   9.263  0.00  0.00     0.005 C 
BRANCH  24  25
HETATM   25  C   UNK N   1      34.367  13.060   9.941  0.00  0.00     0.003 C 
BRANCH  25  26
HETATM   26  C   UNK N   1      35.743  13.264  10.566  0.00  0.00     0.037 C 
BRANCH  26  27
HETATM   27  C   UNK N   1      35.680  13.724  12.020  0.00  0.00     0.051 C 
HETATM   28  C   UNK N   1      35.898  15.223  12.104  0.00  0.00     0.045 C 
HETATM   29  C   UNK N   1      36.721  13.012  12.869  0.00  0.00     0.045 C 
BRANCH  27  30
HETATM   30  O   UNK N   1      34.416  13.426  12.526  0.00  0.00    -0.391 OA
HETATM   31  H   UNK N   1      33.774  12.844  12.965  0.00  0.00     0.210 HD
ENDBRANCH  27  30
ENDBRANCH  26  27
ENDBRANCH  25  26
ENDBRANCH  24  25
ENDBRANCH  22  24
ENDBRANCH   8  22
TORSDOF 8
ENDMDL
MODEL 6
REMARK VINA RESULT:      -6.8     11.695     15.337
REMARK  8 active torsions:
REMARK  status: ('A' for Active; 'I' for Inactive)
REMARK    1  A    between atoms: C_6  and  C_8 
REMARK    2  A    between atoms: C_14  and  O_16 
REMARK    3  A    between atoms: C_24  and  C_18 
REMARK    4  A    between atoms: C_18  and  C_19 
REMARK    5  A    between atoms: C_19  and  C_20 
REMARK    6  A    between atoms: C_20  and  C_23 
REMARK    7  A    between atoms: C_23  and  C_28 
REMARK    8  A    between atoms: C_28  and  O_29 
ROOT
HETATM    1  C   UNK N   1      29.669  28.105  -3.515  0.00  0.00     0.010 C 
HETATM    2  C   UNK N   1      30.734  26.051  -5.342  0.00  0.00    -0.075 C 
HETATM    3  C   UNK N   1      28.946  26.894  -7.016  0.00  0.00     0.010 C 
HETATM    4  C   UNK N   1      27.983  28.096  -6.957  0.00  0.00     0.006 C 
HETATM    5  C   UNK N   1      30.948  27.289  -3.178  0.00  0.00     0.005 C 
HETATM    6  C   UNK N   1      31.031  24.878  -5.916  0.00  0.00     0.004 C 
HETATM    7  C   UNK N   1      31.702  26.744  -4.410  0.00  0.00     0.034 C 
HETATM    8  C   UNK N   1      27.966  28.600  -5.498  0.00  0.00    -0.002 C 
HETATM    9  C   UNK N   1      29.388  26.694  -5.575  0.00  0.00     0.023 C 
HETATM   10  C   UNK N   1      29.350  28.117  -5.018  0.00  0.00    -0.033 C 
HETATM   11  C   UNK N   1      30.408  29.027  -5.686  0.00  0.00     0.016 C 
ENDROOT
BRANCH   6  12
HETATM   12  C   UNK N   1      32.337  24.221  -5.720  0.00  0.00     0.008 C 
HETATM   13  C   UNK N   1      32.613  23.305  -4.771  0.00  0.00    -0.050 C 
HETATM   14  C   UNK N   1      31.626  22.786  -3.759  0.00  0.00    -0.061 C 
HETATM   15  C   UNK N   1      33.987  22.715  -4.787  0.00  0.00     0.070 C 
HETATM   16  C   UNK N   1      31.968  21.581  -2.913  0.00  0.00     0.041 C 
HETATM   17  C   UNK N   1      30.397  23.286  -3.636  0.00  0.00     0.019 C 
HETATM   18  C   UNK N   1      33.393  21.046  -3.087  0.00  0.00     0.036 C 
HETATM   19  C   UNK N   1      33.908  21.225  -4.509  0.00  0.00     0.122 C 
BRANCH  19  20
HETATM   20  O   UNK N   1      35.180  20.665  -4.616  0.00  0.00    -0.395 OA
HETATM   21  H   UNK N   1      35.497  20.276  -5.447  0.00  0.00     0.210 HD
ENDBRANCH  19  20
ENDBRANCH   6  12
BRANCH   8  22
HETATM   22  C   UNK N   1      26.733  27.998  -4.761  0.00  0.00    -0.014 C 
HETATM   23  C   UNK N   1      26.095  29.009  -3.826  0.00  0.00     0.010 C 
BRANCH  22  24
HETATM   24  C   UNK N   1      25.620  27.580  -5.733  0.00  0.00     0.005 C 
BRANCH  24  25
HETATM   25  C   UNK N   1      25.089  26.177  -5.496  0.00  0.00     0.003 C 
BRANCH  25  26
HETATM   26  C   UNK N   1      25.691  25.205  -6.505  0.00  0.00     0.037 C 
BRANCH  26  27
HETATM   27  C   UNK N   1      26.229  23.928  -5.864  0.00  0.00     0.051 C 
HETATM   28  C   UNK N   1      26.420  24.131  -4.373  0.00  0.00     0.045 C 
HETATM   29  C   UNK N   1      27.547  23.508  -6.492  0.00  0.00     0.045 C 
BRANCH  27  30
HETATM   30  O   UNK N   1      25.299  22.907  -6.062  0.00  0.00    -0.391 OA
HETATM   31  H   UNK N   1      24.950  22.014  -5.914  0.00  0.00     0.210 HD
ENDBRANCH  27  30
ENDBRANCH  26  27
ENDBRANCH  25  26
ENDBRANCH  24  25
ENDBRANCH  22  24
ENDBRANCH   8  22
TORSDOF 8
ENDMDL
MODEL 7
REMARK VINA RESULT:      -6.8      2.558      8.548
REMARK  8 active torsions:
REMARK  status: ('A' for Active; 'I' for Inactive)
REMARK    1  A    between atoms: C_6  and  C_8 
REMARK    2  A    between atoms: C_14  and  O_16 
REMARK    3  A    between atoms: C_24  and  C_18 
REMARK    4  A    between atoms: C_18  and  C_19 
REMARK    5  A    between atoms: C_19  and  C_20 
REMARK    6  A    between atoms: C_20  and  C_23 
REMARK    7  A    between atoms: C_23  and  C_28 
REMARK    8  A    between atoms: C_28  and  O_29 
ROOT
HETATM    1  C   UNK N   1      25.959  20.336   5.728  0.00  0.00     0.010 C 
HETATM    2  C   UNK N   1      27.932  18.230   6.332  0.00  0.00    -0.075 C 
HETATM    3  C   UNK N   1      26.863  16.937   4.359  0.00  0.00     0.010 C 
HETATM    4  C   UNK N   1      25.803  17.357   3.321  0.00  0.00     0.006 C 
HETATM    5  C   UNK N   1      27.096  20.549   6.766  0.00  0.00     0.005 C 
HETATM    6  C   UNK N   1      28.590  17.224   6.919  0.00  0.00     0.004 C 
HETATM    7  C   UNK N   1      28.345  19.671   6.536  0.00  0.00     0.034 C 
HETATM    8  C   UNK N   1      25.137  18.649   3.842  0.00  0.00    -0.002 C 
HETATM    9  C   UNK N   1      26.716  17.954   5.480  0.00  0.00     0.023 C 
HETATM   10  C   UNK N   1      26.267  19.208   4.731  0.00  0.00    -0.033 C 
HETATM   11  C   UNK N   1      27.369  19.744   3.786  0.00  0.00     0.016 C 
ENDROOT
BRANCH   6  12
HETATM   12  C   UNK N   1      29.785  17.451   7.752  0.00  0.00     0.008 C 
HETATM   13  C   UNK N   1      31.055  17.200   7.376  0.00  0.00    -0.050 C 
HETATM   14  C   UNK N   1      31.467  16.657   6.034  0.00  0.00    -0.061 C 
HETATM   15  C   UNK N   1      32.127  17.564   8.353  0.00  0.00     0.070 C 
HETATM   16  C   UNK N   1      32.923  16.656   5.629  0.00  0.00     0.041 C 
HETATM   17  C   UNK N   1      30.581  16.258   5.121  0.00  0.00     0.019 C 
HETATM   18  C   UNK N   1      33.901  17.119   6.714  0.00  0.00     0.036 C 
HETATM   19  C   UNK N   1      33.300  18.187   7.617  0.00  0.00     0.122 C 
BRANCH  19  20
HETATM   20  O   UNK N   1      34.256  18.608   8.539  0.00  0.00    -0.395 OA
HETATM   21  H   UNK N   1      34.995  18.038   8.805  0.00  0.00     0.210 HD
ENDBRANCH  19  20
ENDBRANCH   6  12
BRANCH   8  22
HETATM   22  C   UNK N   1      23.808  18.287   4.566  0.00  0.00    -0.014 C 
HETATM   23  C   UNK N   1      22.623  19.007   3.948  0.00  0.00     0.010 C 
BRANCH  22  24
HETATM   24  C   UNK N   1      23.477  16.791   4.462  0.00  0.00     0.005 C 
BRANCH  24  25
HETATM   25  C   UNK N   1      23.122  16.143   5.790  0.00  0.00     0.003 C 
BRANCH  25  26
HETATM   26  C   UNK N   1      21.922  15.218   5.624  0.00  0.00     0.037 C 
BRANCH  26  27
HETATM   27  C   UNK N   1      20.609  15.847   6.082  0.00  0.00     0.051 C 
HETATM   28  C   UNK N   1      19.847  16.393   4.890  0.00  0.00     0.045 C 
HETATM   29  C   UNK N   1      20.852  16.964   7.084  0.00  0.00     0.045 C 
BRANCH  27  30
HETATM   30  O   UNK N   1      19.835  14.863   6.697  0.00  0.00    -0.391 OA
HETATM   31  H   UNK N   1      19.226  14.542   7.381  0.00  0.00     0.210 HD
ENDBRANCH  27  30
ENDBRANCH  26  27
ENDBRANCH  25  26
ENDBRANCH  24  25
ENDBRANCH  22  24
ENDBRANCH   8  22
TORSDOF 8
ENDMDL
MODEL 8
REMARK VINA RESULT:      -6.7     11.624     15.008
REMARK  8 active torsions:
REMARK  status: ('A' for Active; 'I' for Inactive)
REMARK    1  A    between atoms: C_6  and  C_8 
REMARK    2  A    between atoms: C_14  and  O_16 
REMARK    3  A    between atoms: C_24  and  C_18 
REMARK    4  A    between atoms: C_18  and  C_19 
REMARK    5  A    between atoms: C_19  and  C_20 
REMARK    6  A    between atoms: C_20  and  C_23 
REMARK    7  A    between atoms: C_23  and  C_28 
REMARK    8  A    between atoms: C_28  and  O_29 
ROOT
HETATM    1  C   UNK N   1      27.579  25.294  -7.363  0.00  0.00     0.010 C 
HETATM    2  C   UNK N   1      29.731  24.473  -5.522  0.00  0.00    -0.075 C 
HETATM    3  C   UNK N   1      27.888  24.430  -3.702  0.00  0.00     0.010 C 
HETATM    4  C   UNK N   1      26.358  24.595  -3.798  0.00  0.00     0.006 C 
HETATM    5  C   UNK N   1      29.007  24.949  -7.870  0.00  0.00     0.005 C 
HETATM    6  C   UNK N   1      30.813  24.481  -4.734  0.00  0.00     0.004 C 
HETATM    7  C   UNK N   1      29.797  23.990  -6.954  0.00  0.00     0.034 C 
HETATM    8  C   UNK N   1      26.045  25.179  -5.192  0.00  0.00    -0.002 C 
HETATM    9  C   UNK N   1      28.411  25.001  -5.011  0.00  0.00     0.023 C 
HETATM   10  C   UNK N   1      27.275  24.689  -5.985  0.00  0.00    -0.033 C 
HETATM   11  C   UNK N   1      27.101  23.166  -6.200  0.00  0.00     0.016 C 
ENDROOT
BRANCH   6  12
HETATM   12  C   UNK N   1      32.117  23.968  -5.193  0.00  0.00     0.008 C 
HETATM   13  C   UNK N   1      32.803  22.960  -4.619  0.00  0.00    -0.050 C 
HETATM   14  C   UNK N   1      32.343  22.177  -3.418  0.00  0.00    -0.061 C 
HETATM   15  C   UNK N   1      34.079  22.554  -5.283  0.00  0.00     0.070 C 
HETATM   16  C   UNK N   1      33.061  20.909  -3.016  0.00  0.00     0.041 C 
HETATM   17  C   UNK N   1      31.246  22.498  -2.731  0.00  0.00     0.019 C 
HETATM   18  C   UNK N   1      34.318  20.587  -3.832  0.00  0.00     0.036 C 
HETATM   19  C   UNK N   1      34.198  21.041  -5.281  0.00  0.00     0.122 C 
BRANCH  19  20
HETATM   20  O   UNK N   1      35.343  20.664  -5.982  0.00  0.00    -0.395 OA
HETATM   21  H   UNK N   1      35.998  20.058  -5.600  0.00  0.00     0.210 HD
ENDBRANCH  19  20
ENDBRANCH   6  12
BRANCH   8  22
HETATM   22  C   UNK N   1      25.873  26.722  -5.076  0.00  0.00    -0.014 C 
HETATM   23  C   UNK N   1      24.590  27.191  -5.739  0.00  0.00     0.010 C 
BRANCH  22  24
HETATM   24  C   UNK N   1      25.774  27.189  -3.617  0.00  0.00     0.005 C 
BRANCH  24  25
HETATM   25  C   UNK N   1      26.626  28.406  -3.299  0.00  0.00     0.003 C 
BRANCH  25  26
HETATM   26  C   UNK N   1      27.939  28.350  -4.073  0.00  0.00     0.037 C 
BRANCH  26  27
HETATM   27  C   UNK N   1      28.181  29.585  -4.938  0.00  0.00     0.051 C 
HETATM   28  C   UNK N   1      27.161  30.659  -4.612  0.00  0.00     0.045 C 
HETATM   29  C   UNK N   1      28.105  29.245  -6.417  0.00  0.00     0.045 C 
BRANCH  27  30
HETATM   30  O   UNK N   1      29.456  30.077  -4.661  0.00  0.00    -0.391 OA
HETATM   31  H   UNK N   1      30.167  30.732  -4.743  0.00  0.00     0.210 HD
ENDBRANCH  27  30
ENDBRANCH  26  27
ENDBRANCH  25  26
ENDBRANCH  24  25
ENDBRANCH  22  24
ENDBRANCH   8  22
TORSDOF 8
ENDMDL
MODEL 9
REMARK VINA RESULT:      -6.7      1.976      2.522
REMARK  8 active torsions:
REMARK  status: ('A' for Active; 'I' for Inactive)
REMARK    1  A    between atoms: C_6  and  C_8 
REMARK    2  A    between atoms: C_14  and  O_16 
REMARK    3  A    between atoms: C_24  and  C_18 
REMARK    4  A    between atoms: C_18  and  C_19 
REMARK    5  A    between atoms: C_19  and  C_20 
REMARK    6  A    between atoms: C_20  and  C_23 
REMARK    7  A    between atoms: C_23  and  C_28 
REMARK    8  A    between atoms: C_28  and  O_29 
ROOT
HETATM    1  C   UNK N   1      26.624  13.691   3.798  0.00  0.00     0.010 C 
HETATM    2  C   UNK N   1      25.024  16.149   4.095  0.00  0.00    -0.075 C 
HETATM    3  C   UNK N   1      27.282  17.405   3.916  0.00  0.00     0.010 C 
HETATM    4  C   UNK N   1      28.703  16.904   3.591  0.00  0.00     0.006 C 
HETATM    5  C   UNK N   1      25.070  13.666   3.790  0.00  0.00     0.005 C 
HETATM    6  C   UNK N   1      24.269  17.131   4.603  0.00  0.00     0.004 C 
HETATM    7  C   UNK N   1      24.411  14.988   3.344  0.00  0.00     0.034 C 
HETATM    8  C   UNK N   1      28.690  15.366   3.724  0.00  0.00    -0.002 C 
HETATM    9  C   UNK N   1      26.519  16.148   4.306  0.00  0.00     0.023 C 
HETATM   10  C   UNK N   1      27.199  15.074   3.457  0.00  0.00    -0.033 C 
HETATM   11  C   UNK N   1      26.954  15.292   1.945  0.00  0.00     0.016 C 
ENDROOT
BRANCH   6  12
HETATM   12  C   UNK N   1      22.808  17.171   4.413  0.00  0.00     0.008 C 
HETATM   13  C   UNK N   1      22.119  18.204   3.889  0.00  0.00    -0.050 C 
HETATM   14  C   UNK N   1      22.731  19.488   3.393  0.00  0.00    -0.061 C 
HETATM   15  C   UNK N   1      20.645  18.014   3.725  0.00  0.00     0.070 C 
HETATM   16  C   UNK N   1      21.902  20.467   2.594  0.00  0.00     0.041 C 
HETATM   17  C   UNK N   1      24.026  19.767   3.543  0.00  0.00     0.019 C 
HETATM   18  C   UNK N   1      20.420  20.103   2.455  0.00  0.00     0.036 C 
HETATM   19  C   UNK N   1      20.197  18.598   2.398  0.00  0.00     0.122 C 
BRANCH  19  20
HETATM   20  O   UNK N   1      18.841  18.336   2.209  0.00  0.00    -0.395 OA
HETATM   21  H   UNK N   1      18.535  17.543   1.741  0.00  0.00     0.210 HD
ENDBRANCH  19  20
ENDBRANCH   6  12
BRANCH   8  22
HETATM   22  C   UNK N   1      29.227  14.968   5.130  0.00  0.00    -0.014 C 
HETATM   23  C   UNK N   1      30.356  13.958   5.028  0.00  0.00     0.010 C 
BRANCH  22  24
HETATM   24  C   UNK N   1      29.816  16.165   5.889  0.00  0.00     0.005 C 
BRANCH  24  25
HETATM   25  C   UNK N   1      31.155  15.879   6.548  0.00  0.00     0.003 C 
BRANCH  25  26
HETATM   26  C   UNK N   1      32.012  17.140   6.575  0.00  0.00     0.037 C 
BRANCH  26  27
HETATM   27  C   UNK N   1      33.197  17.084   5.613  0.00  0.00     0.051 C 
HETATM   28  C   UNK N   1      32.790  17.614   4.252  0.00  0.00     0.045 C 
HETATM   29  C   UNK N   1      33.723  15.666   5.469  0.00  0.00     0.045 C 
BRANCH  27  30
HETATM   30  O   UNK N   1      34.218  17.886   6.121  0.00  0.00    -0.391 OA
HETATM   31  H   UNK N   1      35.140  18.059   6.369  0.00  0.00     0.210 HD
ENDBRANCH  27  30
ENDBRANCH  26  27
ENDBRANCH  25  26
ENDBRANCH  24  25
ENDBRANCH  22  24
ENDBRANCH   8  22
TORSDOF 8
ENDMDL
