MODEL 1
REMARK VINA RESULT:     -10.4      0.000      0.000
REMARK  5 active torsions:
REMARK  status: ('A' for Active; 'I' for Inactive)
REMARK    1  A    between atoms: C_16  and  C_13 
REMARK    2  A    between atoms: C_17  and  C_15 
REMARK    3  A    between atoms: C_18  and  C_15 
REMARK    4  A    between atoms: C_18  and  C_16 
REMARK    5  A    between atoms: N_19  and  C_17 
ROOT
HETATM    1  C   UNK N   1      22.574  11.945   8.162  0.00  0.00     0.143 A 
HETATM    2  C   UNK N   1      23.443  12.085  13.820  0.00  0.00     0.210 A 
HETATM    3  C   UNK N   1      22.824  12.031  11.597  0.00  0.00     0.001 A 
HETATM    4  C   UNK N   1      23.633  12.033  11.757  0.00  0.00     0.001 A 
HETATM    5  C   UNK N   1      22.479  12.010  10.730  0.00  0.00     0.008 A 
HETATM    6  C   UNK N   1      22.310  12.032  11.620  0.00  0.00     0.010 A 
HETATM    7  C   UNK N   1      22.688  12.050  12.353  0.00  0.00     0.037 A 
HETATM    8  C   UNK N   1      24.177  12.016  11.137  0.00  0.00     0.015 A 
HETATM    9  C   UNK N   1      24.231  11.977   9.589  0.00  0.00     0.034 A 
HETATM   10  C   UNK N   1      23.677  11.963   8.978  0.00  0.00     0.118 A 
HETATM   11  C   UNK N   1      22.202  12.000  10.316  0.00  0.00     0.064 A 
HETATM   12  C   UNK N   1      23.958  12.031  11.699  0.00  0.00     0.045 A 
HETATM   13  C   UNK N   1      22.756  12.014  10.926  0.00  0.00    -0.049 A 
HETATM   14  C   UNK N   1      23.512  12.049  12.393  0.00  0.00     0.068 A 
HETATM   15  C   UNK N   1      23.102  11.995  10.196  0.00  0.00     0.021 A 
HETATM   16  C   UNK N   1      23.580  12.013  10.967  0.00  0.00    -0.040 A 
HETATM   17  C   UNK N   1      22.242  11.979   9.492  0.00  0.00     0.088 A 
HETATM   18  C   UNK N   1      23.911  11.997  10.356  0.00  0.00    -0.006 A 
HETATM   19  N   UNK N   1      22.853  11.964   8.938  0.00  0.00    -0.412 N 
HETATM   20  O   UNK N   1      23.889  12.067  13.127  0.00  0.00    -0.356 OA
ENDROOT
TORSDOF 5
ENDMDL
MODEL 2
REMARK VINA RESULT:     -10.4      1.352      2.078
REMARK  5 active torsions:
REMARK  status: ('A' for Active; 'I' for Inactive)
REMARK    1  A    between atoms: C_16  and  C_13 
REMARK    2  A    between atoms: C_17  and  C_15 
REMARK    3  A    between atoms: C_18  and  C_15 
REMARK    4  A    between atoms: C_18  and  C_16 
REMARK    5  A    between atoms: N_19  and  C_17 
ROOT
HETATM    1  C   UNK N   1      25.096  13.180   9.421  0.00  0.00     0.143 A 
HETATM    2  C   UNK N   1      19.918  12.130  11.629  0.00  0.00     0.210 A 
HETATM    3  C   UNK N   1      21.875  12.698  10.544  0.00  0.00     0.001 A 
HETATM    4  C   UNK N   1      21.947  12.230  11.220  0.00  0.00     0.001 A 
HETATM    5  C   UNK N   1      22.610  12.977  10.041  0.00  0.00     0.008 A 
HETATM    6  C   UNK N   1      21.709  12.983  10.150  0.00  0.00     0.010 A 
HETATM    7  C   UNK N   1      21.113  12.699  10.643  0.00  0.00     0.037 A 
HETATM    8  C   UNK N   1      22.692  11.987  11.477  0.00  0.00     0.015 A 
HETATM    9  C   UNK N   1      24.191  12.111  11.101  0.00  0.00     0.034 A 
HETATM   10  C   UNK N   1      24.621  12.482  10.503  0.00  0.00     0.118 A 
HETATM   11  C   UNK N   1      22.929  13.173   9.713  0.00  0.00     0.064 A 
HETATM   12  C   UNK N   1      22.093  12.054  11.458  0.00  0.00     0.045 A 
HETATM   13  C   UNK N   1      22.498  12.803  10.311  0.00  0.00    -0.049 A 
HETATM   14  C   UNK N   1      21.304  12.234  11.297  0.00  0.00     0.068 A 
HETATM   15  C   UNK N   1      23.295  12.682  10.383  0.00  0.00     0.021 A 
HETATM   16  C   UNK N   1      22.689  12.338  10.965  0.00  0.00    -0.040 A 
HETATM   17  C   UNK N   1      23.729  13.233   9.521  0.00  0.00     0.088 A 
HETATM   18  C   UNK N   1      23.366  12.214  11.058  0.00  0.00    -0.006 A 
HETATM   19  N   UNK N   1      24.430  12.947   9.848  0.00  0.00    -0.412 N 
HETATM   20  O   UNK N   1      20.706  11.950  11.790  0.00  0.00    -0.356 OA
ENDROOT
TORSDOF 5
ENDMDL
MODEL 3
REMARK VINA RESULT:     -10.3      2.629      3.788
REMARK  5 active torsions:
REMARK  status: ('A' for Active; 'I' for Inactive)
REMARK    1  A    between atoms: C_16  and  C_13 
REMARK    2  A    between atoms: C_17  and  C_15 
REMARK    3  A    between atoms: C_18  and  C_15 
REMARK    4  A    between atoms: C_18  and  C_16 
REMARK    5  A    between atoms: N_19  and  C_17 
ROOT
HETATM    1  C   UNK N   1      23.170  11.732  11.022  0.00  0.00     0.143 A 
HETATM    2  C   UNK N   1      19.656  15.634   8.739  0.00  0.00     0.210 A 
HETATM    3  C   UNK N   1      21.275  14.190   9.526  0.00  0.00     0.001 A 
HETATM    4  C   UNK N   1      20.501  14.049   9.772  0.00  0.00     0.001 A 
HETATM    5  C   UNK N   1      21.996  13.660   9.793  0.00  0.00     0.008 A 
HETATM    6  C   UNK N   1      21.706  14.372   9.313  0.00  0.00     0.010 A 
HETATM    7  C   UNK N   1      21.023  14.793   9.122  0.00  0.00     0.037 A 
HETATM    8  C   UNK N   1      20.336  13.416  10.275  0.00  0.00     0.015 A 
HETATM    9  C   UNK N   1      21.046  12.254  11.015  0.00  0.00     0.034 A 
HETATM   10  C   UNK N   1      21.822  11.981  11.079  0.00  0.00     0.118 A 
HETATM   11  C   UNK N   1      22.437  13.443   9.875  0.00  0.00     0.064 A 
HETATM   12  C   UNK N   1      20.249  13.902   9.927  0.00  0.00     0.045 A 
HETATM   13  C   UNK N   1      21.661  13.716   9.811  0.00  0.00    -0.049 A 
HETATM   14  C   UNK N   1      20.294  14.558   9.429  0.00  0.00     0.068 A 
HETATM   15  C   UNK N   1      21.721  13.065  10.287  0.00  0.00     0.021 A 
HETATM   16  C   UNK N   1      20.932  13.481  10.118  0.00  0.00    -0.040 A 
HETATM   17  C   UNK N   1      22.805  12.822  10.274  0.00  0.00     0.088 A 
HETATM   18  C   UNK N   1      20.946  12.924  10.532  0.00  0.00    -0.006 A 
HETATM   19  N   UNK N   1      22.550  12.216  10.772  0.00  0.00    -0.412 N 
HETATM   20  O   UNK N   1      19.610  14.979   9.237  0.00  0.00    -0.356 OA
ENDROOT
TORSDOF 5
ENDMDL
MODEL 4
REMARK VINA RESULT:     -10.0     12.605     13.968
REMARK  5 active torsions:
REMARK  status: ('A' for Active; 'I' for Inactive)
REMARK    1  A    between atoms: C_16  and  C_13 
REMARK    2  A    between atoms: C_17  and  C_15 
REMARK    3  A    between atoms: C_18  and  C_15 
REMARK    4  A    between atoms: C_18  and  C_16 
REMARK    5  A    between atoms: N_19  and  C_17 
ROOT
HETATM    1  C   UNK N   1      35.487  11.570  20.067  0.00  0.00     0.143 A 
HETATM    2  C   UNK N   1      34.941  12.982  14.545  0.00  0.00     0.210 A 
HETATM    3  C   UNK N   1      35.201  12.155  16.684  0.00  0.00     0.001 A 
HETATM    4  C   UNK N   1      35.056  12.964  16.613  0.00  0.00     0.001 A 
HETATM    5  C   UNK N   1      35.320  11.732  17.507  0.00  0.00     0.008 A 
HETATM    6  C   UNK N   1      35.285  11.654  16.604  0.00  0.00     0.010 A 
HETATM    7  C   UNK N   1      35.170  12.097  15.918  0.00  0.00     0.037 A 
HETATM    8  C   UNK N   1      35.011  13.436  17.289  0.00  0.00     0.015 A 
HETATM    9  C   UNK N   1      35.112  13.336  18.832  0.00  0.00     0.034 A 
HETATM   10  C   UNK N   1      35.247  12.732  19.377  0.00  0.00     0.118 A 
HETATM   11  C   UNK N   1      35.395  11.419  17.888  0.00  0.00     0.064 A 
HETATM   12  C   UNK N   1      35.007  13.277  16.706  0.00  0.00     0.045 A 
HETATM   13  C   UNK N   1      35.260  12.023  17.342  0.00  0.00    -0.049 A 
HETATM   14  C   UNK N   1      35.031  12.909  15.969  0.00  0.00     0.068 A 
HETATM   15  C   UNK N   1      35.255  12.289  18.106  0.00  0.00     0.021 A 
HETATM   16  C   UNK N   1      35.121  12.835  17.393  0.00  0.00    -0.040 A 
HETATM   17  C   UNK N   1      35.447  11.377  18.710  0.00  0.00     0.088 A 
HETATM   18  C   UNK N   1      35.110  13.098  18.035  0.00  0.00    -0.006 A 
HETATM   19  N   UNK N   1      35.386  11.921  19.327  0.00  0.00    -0.412 N 
HETATM   20  O   UNK N   1      34.917  13.351  15.281  0.00  0.00    -0.356 OA
ENDROOT
TORSDOF 5
ENDMDL
MODEL 5
REMARK VINA RESULT:      -9.8      1.528      2.934
REMARK  5 active torsions:
REMARK  status: ('A' for Active; 'I' for Inactive)
REMARK    1  A    between atoms: C_16  and  C_13 
REMARK    2  A    between atoms: C_17  and  C_15 
REMARK    3  A    between atoms: C_18  and  C_15 
REMARK    4  A    between atoms: C_18  and  C_16 
REMARK    5  A    between atoms: N_19  and  C_17 
ROOT
HETATM    1  C   UNK N   1      23.268  11.839  13.248  0.00  0.00     0.143 A 
HETATM    2  C   UNK N   1      21.430  12.811   7.912  0.00  0.00     0.210 A 
HETATM    3  C   UNK N   1      21.909  12.451  10.141  0.00  0.00     0.001 A 
HETATM    4  C   UNK N   1      22.544  12.417   9.615  0.00  0.00     0.001 A 
HETATM    5  C   UNK N   1      22.006  12.318  11.060  0.00  0.00     0.008 A 
HETATM    6  C   UNK N   1      21.449  12.495  10.367  0.00  0.00     0.010 A 
HETATM    7  C   UNK N   1      21.443  12.600   9.549  0.00  0.00     0.037 A 
HETATM    8  C   UNK N   1      23.304  12.261   9.894  0.00  0.00     0.015 A 
HETATM    9  C   UNK N   1      24.063  11.973  11.214  0.00  0.00     0.034 A 
HETATM   10  C   UNK N   1      23.858  11.903  12.010  0.00  0.00     0.118 A 
HETATM   11  C   UNK N   1      21.954  12.264  11.552  0.00  0.00     0.064 A 
HETATM   12  C   UNK N   1      22.855  12.382   9.509  0.00  0.00     0.045 A 
HETATM   13  C   UNK N   1      22.158  12.333  10.756  0.00  0.00    -0.049 A 
HETATM   14  C   UNK N   1      22.146  12.544   9.120  0.00  0.00     0.068 A 
HETATM   15  C   UNK N   1      22.796  12.172  11.226  0.00  0.00     0.021 A 
HETATM   16  C   UNK N   1      22.861  12.276  10.327  0.00  0.00    -0.040 A 
HETATM   17  C   UNK N   1      22.367  12.109  12.249  0.00  0.00     0.088 A 
HETATM   18  C   UNK N   1      23.431  12.138  10.700  0.00  0.00    -0.006 A 
HETATM   19  N   UNK N   1      23.156  11.960  12.439  0.00  0.00    -0.412 N 
HETATM   20  O   UNK N   1      22.139  12.649   8.301  0.00  0.00    -0.356 OA
ENDROOT
TORSDOF 5
ENDMDL
MODEL 6
REMARK VINA RESULT:      -9.8     13.673     14.166
REMARK  5 active torsions:
REMARK  status: ('A' for Active; 'I' for Inactive)
REMARK    1  A    between atoms: C_16  and  C_13 
REMARK    2  A    between atoms: C_17  and  C_15 
REMARK    3  A    between atoms: C_18  and  C_15 
REMARK    4  A    between atoms: C_18  and  C_16 
REMARK    5  A    between atoms: N_19  and  C_17 
ROOT
HETATM    1  C   UNK N   1      35.280   9.648  17.420  0.00  0.00     0.143 A 
HETATM    2  C   UNK N   1      35.212  15.308  18.290  0.00  0.00     0.210 A 
HETATM    3  C   UNK N   1      35.234  13.084  17.671  0.00  0.00     0.001 A 
HETATM    4  C   UNK N   1      35.246  13.245  18.480  0.00  0.00     0.001 A 
HETATM    5  C   UNK N   1      35.240  12.217  17.326  0.00  0.00     0.008 A 
HETATM    6  C   UNK N   1      35.224  13.108  17.157  0.00  0.00     0.010 A 
HETATM    7  C   UNK N   1      35.220  13.841  17.535  0.00  0.00     0.037 A 
HETATM    8  C   UNK N   1      35.266  12.625  19.023  0.00  0.00     0.015 A 
HETATM    9  C   UNK N   1      35.290  11.076  19.077  0.00  0.00     0.034 A 
HETATM   10  C   UNK N   1      35.289  10.465  18.523  0.00  0.00     0.118 A 
HETATM   11  C   UNK N   1      35.241  11.803  17.049  0.00  0.00     0.064 A 
HETATM   12  C   UNK N   1      35.253  13.187  18.805  0.00  0.00     0.045 A 
HETATM   13  C   UNK N   1      35.242  12.414  17.603  0.00  0.00    -0.049 A 
HETATM   14  C   UNK N   1      35.235  13.881  18.359  0.00  0.00     0.068 A 
HETATM   15  C   UNK N   1      35.260  11.683  17.949  0.00  0.00     0.021 A 
HETATM   16  C   UNK N   1      35.257  12.454  18.427  0.00  0.00    -0.040 A 
HETATM   17  C   UNK N   1      35.254  10.979  17.089  0.00  0.00     0.088 A 
HETATM   18  C   UNK N   1      35.273  11.843  18.758  0.00  0.00    -0.006 A 
HETATM   19  N   UNK N   1      35.274  10.425  17.699  0.00  0.00    -0.412 N 
HETATM   20  O   UNK N   1      35.231  14.615  18.736  0.00  0.00    -0.356 OA
ENDROOT
TORSDOF 5
ENDMDL
MODEL 7
REMARK VINA RESULT:      -9.6     22.251     22.913
REMARK  5 active torsions:
REMARK  status: ('A' for Active; 'I' for Inactive)
REMARK    1  A    between atoms: C_16  and  C_13 
REMARK    2  A    between atoms: C_17  and  C_15 
REMARK    3  A    between atoms: C_18  and  C_15 
REMARK    4  A    between atoms: C_18  and  C_16 
REMARK    5  A    between atoms: N_19  and  C_17 
ROOT
HETATM    1  C   UNK N   1      25.819  26.248  -7.357  0.00  0.00     0.143 A 
HETATM    2  C   UNK N   1      26.709  29.969  -3.096  0.00  0.00     0.210 A 
HETATM    3  C   UNK N   1      26.576  28.574  -4.930  0.00  0.00     0.001 A 
HETATM    4  C   UNK N   1      25.990  28.490  -4.356  0.00  0.00     0.001 A 
HETATM    5  C   UNK N   1      26.605  28.055  -5.705  0.00  0.00     0.008 A 
HETATM    6  C   UNK N   1      26.983  28.715  -5.212  0.00  0.00     0.010 A 
HETATM    7  C   UNK N   1      26.892  29.132  -4.507  0.00  0.00     0.037 A 
HETATM    8  C   UNK N   1      25.394  27.928  -4.454  0.00  0.00     0.015 A 
HETATM    9  C   UNK N   1      24.923  26.839  -5.451  0.00  0.00     0.034 A 
HETATM   10  C   UNK N   1      25.186  26.549  -6.177  0.00  0.00     0.118 A 
HETATM   11  C   UNK N   1      26.706  27.835  -6.140  0.00  0.00     0.064 A 
HETATM   12  C   UNK N   1      25.720  28.371  -4.207  0.00  0.00     0.045 A 
HETATM   13  C   UNK N   1      26.443  28.125  -5.415  0.00  0.00    -0.049 A 
HETATM   14  C   UNK N   1      26.261  28.961  -4.004  0.00  0.00     0.068 A 
HETATM   15  C   UNK N   1      25.971  27.534  -5.700  0.00  0.00     0.021 A 
HETATM   16  C   UNK N   1      25.812  27.953  -4.912  0.00  0.00    -0.040 A 
HETATM   17  C   UNK N   1      26.447  27.253  -6.664  0.00  0.00     0.088 A 
HETATM   18  C   UNK N   1      25.385  27.449  -5.126  0.00  0.00    -0.006 A 
HETATM   19  N   UNK N   1      25.817  26.720  -6.680  0.00  0.00    -0.412 N 
HETATM   20  O   UNK N   1      26.169  29.380  -3.298  0.00  0.00    -0.356 OA
ENDROOT
TORSDOF 5
ENDMDL
MODEL 8
REMARK VINA RESULT:      -9.4     13.240     14.091
REMARK  5 active torsions:
REMARK  status: ('A' for Active; 'I' for Inactive)
REMARK    1  A    between atoms: C_16  and  C_13 
REMARK    2  A    between atoms: C_17  and  C_15 
REMARK    3  A    between atoms: C_18  and  C_15 
REMARK    4  A    between atoms: C_18  and  C_16 
REMARK    5  A    between atoms: N_19  and  C_17 
ROOT
HETATM    1  C   UNK N   1      35.360  13.344  15.460  0.00  0.00     0.143 A 
HETATM    2  C   UNK N   1      35.266  10.561  20.463  0.00  0.00     0.210 A 
HETATM    3  C   UNK N   1      35.317  11.435  18.328  0.00  0.00     0.001 A 
HETATM    4  C   UNK N   1      35.275  11.975  18.949  0.00  0.00     0.001 A 
HETATM    5  C   UNK N   1      35.342  11.695  17.432  0.00  0.00     0.008 A 
HETATM    6  C   UNK N   1      35.343  11.015  18.032  0.00  0.00     0.010 A 
HETATM    7  C   UNK N   1      35.317  10.864  18.842  0.00  0.00     0.037 A 
HETATM    8  C   UNK N   1      35.253  12.785  18.792  0.00  0.00     0.015 A 
HETATM    9  C   UNK N   1      35.264  13.777  17.602  0.00  0.00     0.034 A 
HETATM   10  C   UNK N   1      35.297  13.714  16.780  0.00  0.00     0.118 A 
HETATM   11  C   UNK N   1      35.360  11.729  16.935  0.00  0.00     0.064 A 
HETATM   12  C   UNK N   1      35.259  12.267  19.103  0.00  0.00     0.045 A 
HETATM   13  C   UNK N   1      35.326  11.793  17.757  0.00  0.00    -0.049 A 
HETATM   14  C   UNK N   1      35.275  11.490  19.378  0.00  0.00     0.068 A 
HETATM   15  C   UNK N   1      35.316  12.514  17.391  0.00  0.00     0.021 A 
HETATM   16  C   UNK N   1      35.285  12.419  18.292  0.00  0.00    -0.040 A 
HETATM   17  C   UNK N   1      35.365  12.266  16.309  0.00  0.00     0.088 A 
HETATM   18  C   UNK N   1      35.273  13.054  18.012  0.00  0.00    -0.006 A 
HETATM   19  N   UNK N   1      35.339  13.088  16.244  0.00  0.00    -0.412 N 
HETATM   20  O   UNK N   1      35.250  11.338  20.189  0.00  0.00    -0.356 OA
ENDROOT
TORSDOF 5
ENDMDL
MODEL 9
REMARK VINA RESULT:      -9.2     22.488     23.131
REMARK  5 active torsions:
REMARK  status: ('A' for Active; 'I' for Inactive)
REMARK    1  A    between atoms: C_16  and  C_13 
REMARK    2  A    between atoms: C_17  and  C_15 
REMARK    3  A    between atoms: C_18  and  C_15 
REMARK    4  A    between atoms: C_18  and  C_16 
REMARK    5  A    between atoms: N_19  and  C_17 
ROOT
HETATM    1  C   UNK N   1      26.263  29.488  -3.569  0.00  0.00     0.143 A 
HETATM    2  C   UNK N   1      25.621  25.565  -7.690  0.00  0.00     0.210 A 
HETATM    3  C   UNK N   1      25.654  27.038  -5.914  0.00  0.00     0.001 A 
HETATM    4  C   UNK N   1      26.254  27.119  -6.475  0.00  0.00     0.001 A 
HETATM    5  C   UNK N   1      25.586  27.588  -5.163  0.00  0.00     0.008 A 
HETATM    6  C   UNK N   1      25.244  26.896  -5.638  0.00  0.00     0.010 A 
HETATM    7  C   UNK N   1      25.370  26.452  -6.322  0.00  0.00     0.037 A 
HETATM    8  C   UNK N   1      26.827  27.705  -6.385  0.00  0.00     0.015 A 
HETATM    9  C   UNK N   1      27.233  28.850  -5.423  0.00  0.00     0.034 A 
HETATM   10  C   UNK N   1      26.940  29.161  -4.717  0.00  0.00     0.118 A 
HETATM   11  C   UNK N   1      25.465  27.823  -4.740  0.00  0.00     0.064 A 
HETATM   12  C   UNK N   1      26.523  27.241  -6.622  0.00  0.00     0.045 A 
HETATM   13  C   UNK N   1      25.758  27.512  -5.446  0.00  0.00    -0.049 A 
HETATM   14  C   UNK N   1      26.009  26.624  -6.814  0.00  0.00     0.068 A 
HETATM   15  C   UNK N   1      26.202  28.131  -5.173  0.00  0.00     0.021 A 
HETATM   16  C   UNK N   1      26.398  27.684  -5.938  0.00  0.00    -0.040 A 
HETATM   17  C   UNK N   1      25.690  28.435  -4.235  0.00  0.00     0.088 A 
HETATM   18  C   UNK N   1      26.801  28.211  -5.734  0.00  0.00    -0.006 A 
HETATM   19  N   UNK N   1      26.300  28.989  -4.225  0.00  0.00    -0.412 N 
HETATM   20  O   UNK N   1      26.135  26.180  -7.499  0.00  0.00    -0.356 OA
ENDROOT
TORSDOF 5
ENDMDL
