REMARK WARNING: 32 MAX_TORS EXCEEDED!!!
REMARK  45 active torsions:
REMARK  status: ('A' for Active; 'I' for Inactive)
REMARK    1  A    between atoms: C_29  and  C_9 
REMARK    2  A    between atoms: C_11  and  C_10 
REMARK    3  A    between atoms: C_12  and  C_10 
REMARK    4  A    between atoms: C_29  and  C_11 
REMARK    5  A    between atoms: C_40  and  C_12 
REMARK    6  A    between atoms: C_19  and  C_13 
REMARK    7  A    between atoms: C_32  and  C_13 
REMARK    8  A    between atoms: C_20  and  C_14 
REMARK    9  A    between atoms: C_33  and  C_14 
REMARK   10  A    between atoms: C_21  and  C_15 
REMARK   11  A    between atoms: C_34  and  C_15 
REMARK   12  A    between atoms: C_22  and  C_16 
REMARK   13  A    between atoms: C_35  and  C_16 
REMARK   14  A    between atoms: C_23  and  C_17 
REMARK   15  A    between atoms: C_36  and  C_17 
REMARK   16  A    between atoms: N_53  and  C_19 
REMARK   17  A    between atoms: N_54  and  C_20 
REMARK   18  A    between atoms: N_55  and  C_21 
REMARK   19  A    between atoms: N_56  and  C_22 
REMARK   20  A    between atoms: N_57  and  C_23 
REMARK   21  A    between atoms: C_27  and  C_25 
REMARK   22  A    between atoms: C_38  and  C_25 
REMARK   23  A    between atoms: C_28  and  C_26 
REMARK   24  A    between atoms: C_39  and  C_26 
REMARK   25  A    between atoms: C_41  and  C_30 
REMARK   26  A    between atoms: C_30  and  O_80 
REMARK   27  A    between atoms: C_42  and  C_31 
REMARK   28  A    between atoms: C_31  and  O_81 
REMARK   29  A    between atoms: C_47  and  C_32 
REMARK   30  A    between atoms: C_32  and  N_60 
REMARK   31  A    between atoms: C_44  and  C_35 
REMARK   32  A    between atoms: C_35  and  N_70 
REMARK   33  A    between atoms: C_37  and  N_68 
REMARK   34  A    between atoms: C_52  and  C_42 
REMARK   35  A    between atoms: C_42  and  N_78 
REMARK   36  A    between atoms: C_43  and  O_83 
REMARK   37  A    between atoms: C_44  and  O_84 
REMARK   38  A    between atoms: O_85  and  C_45 
REMARK   39  A    between atoms: C_46  and  O_86 
REMARK   40  A    between atoms: C_47  and  O_87 
REMARK   41  A    between atoms: O_88  and  C_48 
REMARK   42  A    between atoms: C_49  and  O_89 
REMARK   43  A    between atoms: C_50  and  O_90 
REMARK   44  A    between atoms: O_91  and  C_51 
REMARK   45  A    between atoms: C_52  and  O_92 
ROOT
HETATM    1  C   UNK N   1      -5.048   0.604   0.257  0.00  0.00     0.111 C 
HETATM    2  N   UNK N   1      -5.609  -0.374  -0.368  0.00  0.00    -0.362 N 
ATOM      3  HN  UNK N   1      -5.418  -0.458  -1.366  1.00  0.00     0.162 HD
HETATM    4  O   UNK N   1      -5.141   0.735   1.593  0.00  0.00    -0.350 OA
HETATM    5  H   UNK N   1      -5.095   0.836   2.523  0.00  0.00     0.219 HD
ENDROOT
BRANCH   1   6
HETATM    6  C   UNK N   1      -4.368   1.672  -0.533  0.00  0.00     0.083 C 
BRANCH   6   7
HETATM    7  C   UNK N   1      -5.122   3.019  -0.544  0.00  0.00     0.008 C 
BRANCH   7   8
HETATM    8  C   UNK N   1      -6.270   3.211   0.462  0.00  0.00     0.005 C 
BRANCH   8   9
HETATM    9  C   UNK N   1      -7.651   3.046  -0.181  0.00  0.00    -0.019 C 
HETATM   10  C   UNK N   1      -8.665   3.789   0.671  0.00  0.00     0.010 C 
BRANCH   9  11
HETATM   11  C   UNK N   1      -8.038   1.574  -0.267  0.00  0.00    -0.000 C 
HETATM   12  C   UNK N   1      -9.377   1.363  -0.958  0.00  0.00     0.005 C 
ENDBRANCH   9  11
ENDBRANCH   8   9
ENDBRANCH   7   8
ENDBRANCH   6   7
ENDBRANCH   1   6
BRANCH   2  13
HETATM   13  C   UNK N   1      -6.489  -1.369   0.222  0.00  0.00     0.159 C 
BRANCH  13  14
HETATM   14  C   UNK N   1      -7.159  -2.105  -0.938  0.00  0.00     0.052 C 
BRANCH  14  15
HETATM   15  C   UNK N   1      -8.625  -2.451  -0.678  0.00  0.00     0.113 C 
BRANCH  15  16
HETATM   16  N   UNK N   1      -8.760  -3.330   0.470  0.00  0.00    -0.430 N 
HETATM   17  H   UNK N   1      -9.342  -3.556   1.277  0.00  0.00     0.149 HD
HETATM   18  H   UNK N   1      -7.964  -3.968   0.470  0.00  0.00     0.149 HD
ENDBRANCH  15  16
ENDBRANCH  14  15
ENDBRANCH  13  14
BRANCH  13  19
HETATM   19  C   UNK N   1      -5.891  -2.214   1.366  0.00  0.00     0.135 C 
HETATM   20  N   UNK N   1      -5.587  -3.478   1.312  0.00  0.00    -0.358 N 
ATOM     21  HN  UNK N   1      -5.382  -3.913   2.212  1.00  0.00     0.162 HD
BRANCH  20  22
HETATM   22  C   UNK N   1      -5.493  -4.364   0.164  0.00  0.00     0.186 C 
BRANCH  22  23
HETATM   23  C   UNK N   1      -5.415  -5.823   0.648  0.00  0.00     0.144 C 
HETATM   24  C   UNK N   1      -5.282  -6.784  -0.526  0.00  0.00     0.042 C 
BRANCH  23  25
HETATM   25  O   UNK N   1      -6.573  -6.144   1.357  0.00  0.00    -0.393 OA
HETATM   26  H   UNK N   1      -7.169  -5.559   1.850  0.00  0.00     0.210 HD
ENDBRANCH  23  25
ENDBRANCH  22  23
BRANCH  22  27
HETATM   27  C   UNK N   1      -4.231  -4.001  -0.548  0.00  0.00     0.138 C 
HETATM   28  N   UNK N   1      -3.114  -4.081   0.102  0.00  0.00    -0.361 N 
ATOM     29  HN  UNK N   1      -3.146  -4.481   1.040  1.00  0.00     0.162 HD
BRANCH  28  30
HETATM   30  C   UNK N   1      -1.824  -3.650  -0.392  0.00  0.00     0.159 C 
BRANCH  30  31
HETATM   31  C   UNK N   1      -1.490  -4.243  -1.765  0.00  0.00     0.052 C 
BRANCH  31  32
HETATM   32  C   UNK N   1      -1.766  -5.747  -1.886  0.00  0.00     0.113 C 
BRANCH  32  33
HETATM   33  N   UNK N   1      -1.522  -6.460  -0.640  0.00  0.00    -0.430 N 
HETATM   34  H   UNK N   1      -1.869  -6.858   0.233  0.00  0.00     0.149 HD
HETATM   35  H   UNK N   1      -0.521  -6.656  -0.640  0.00  0.00     0.149 HD
ENDBRANCH  32  33
ENDBRANCH  31  32
ENDBRANCH  30  31
BRANCH  30  36
HETATM   36  C   UNK N   1      -1.811  -2.149  -0.402  0.00  0.00     0.135 C 
HETATM   37  N   UNK N   1      -0.839  -1.446   0.050  0.00  0.00    -0.361 N 
ATOM     38  HN  UNK N   1      -1.030  -0.445   0.087  1.00  0.00     0.162 HD
BRANCH  37  39
HETATM   39  C   UNK N   1       0.487  -1.816   0.518  0.00  0.00     0.159 C 
HETATM   40  C   UNK N   1       0.442  -2.596   1.833  0.00  0.00     0.053 C 
HETATM   41  C   UNK N   1       1.607  -3.561   1.887  0.00  0.00     0.124 C 
HETATM   42  N   UNK N   1       1.220  -4.684   1.079  0.00  0.00    -0.373 N 
HETATM   43  C   UNK N   1       1.799  -5.127   0.015  0.00  0.00     0.137 C 
ATOM     44  HN  UNK N   1       0.389  -5.191   1.383  1.00  0.00     0.161 HD
HETATM   45  C   UNK N   1       3.109  -4.592  -0.601  0.00  0.00     0.186 C 
HETATM   46  N   UNK N   1       3.496  -3.279  -0.054  0.00  0.00    -0.358 N 
HETATM   47  C   UNK N   1       4.446  -2.420  -0.286  0.00  0.00     0.135 C 
ATOM     48  HN  UNK N   1       2.866  -2.968   0.686  1.00  0.00     0.162 HD
HETATM   49  C   UNK N   1       5.571  -2.511  -1.352  0.00  0.00     0.159 C 
HETATM   50  N   UNK N   1       6.448  -1.335  -1.302  0.00  0.00    -0.361 N 
HETATM   51  C   UNK N   1       7.249  -1.036  -0.311  0.00  0.00     0.135 C 
ATOM     52  HN  UNK N   1       6.431  -0.702  -2.101  1.00  0.00     0.162 HD
HETATM   53  C   UNK N   1       8.094   0.215  -0.349  0.00  0.00     0.159 C 
HETATM   54  N   UNK N   1       7.196   1.311  -0.078  0.00  0.00    -0.361 N 
HETATM   55  C   UNK N   1       7.543   2.527   0.175  0.00  0.00     0.135 C 
ATOM     56  HN  UNK N   1       6.197   1.106  -0.089  1.00  0.00     0.162 HD
HETATM   57  C   UNK N   1       6.478   3.461   0.679  0.00  0.00     0.158 C 
HETATM   58  N   UNK N   1       5.821   2.714   1.732  0.00  0.00    -0.361 N 
HETATM   59  C   UNK N   1       4.633   2.208   1.826  0.00  0.00     0.135 C 
ATOM     60  HN  UNK N   1       6.404   2.557   2.554  1.00  0.00     0.162 HD
HETATM   61  C   UNK N   1       3.473   2.332   0.837  0.00  0.00     0.158 C 
HETATM   62  N   UNK N   1       2.303   2.583   1.653  0.00  0.00    -0.361 N 
HETATM   63  C   UNK N   1       1.075   2.393   1.311  0.00  0.00     0.135 C 
ATOM     64  HN  UNK N   1       2.468   2.947   2.592  1.00  0.00     0.162 HD
HETATM   65  C   UNK N   1       0.689   1.823  -0.049  0.00  0.00     0.159 C 
HETATM   66  N   UNK N   1       0.853   0.398  -0.176  0.00  0.00    -0.361 N 
HETATM   67  C   UNK N   1       1.120  -0.480   0.737  0.00  0.00     0.135 C 
ATOM     68  HN  UNK N   1       0.742   0.027  -1.119  1.00  0.00     0.162 HD
BRANCH  43  69
HETATM   69  O   UNK N   1       1.238  -6.196  -0.585  0.00  0.00    -0.348 OA
HETATM   70  H   UNK N   1       0.400  -6.230  -1.002  0.00  0.00     0.219 HD
ENDBRANCH  43  69
BRANCH  45  71
HETATM   71  C   UNK N   1       4.159  -5.691  -0.326  0.00  0.00     0.144 C 
HETATM   72  C   UNK N   1       4.554  -5.706   1.145  0.00  0.00     0.042 C 
BRANCH  71  73
HETATM   73  O   UNK N   1       3.698  -6.961  -0.680  0.00  0.00    -0.393 OA
HETATM   74  H   UNK N   1       2.774  -7.124  -0.926  0.00  0.00     0.210 HD
ENDBRANCH  71  73
ENDBRANCH  45  71
BRANCH  47  75
HETATM   75  O   UNK N   1       4.417  -1.281   0.442  0.00  0.00    -0.348 OA
HETATM   76  H   UNK N   1       5.091  -0.869   0.946  0.00  0.00     0.219 HD
ENDBRANCH  47  75
BRANCH  49  77
HETATM   77  C   UNK N   1       6.452  -3.771  -1.402  0.00  0.00     0.052 C 
BRANCH  77  78
HETATM   78  C   UNK N   1       7.079  -4.225  -0.091  0.00  0.00     0.113 C 
BRANCH  78  79
HETATM   79  N   UNK N   1       7.954  -5.357  -0.327  0.00  0.00    -0.430 N 
HETATM   80  H   UNK N   1       7.572  -6.288  -0.494  0.00  0.00     0.149 HD
HETATM   81  H   UNK N   1       8.965  -5.221  -0.327  0.00  0.00     0.149 HD
ENDBRANCH  78  79
ENDBRANCH  77  78
ENDBRANCH  49  77
BRANCH  51  82
HETATM   82  O   UNK N   1       7.272  -1.793   0.804  0.00  0.00    -0.348 OA
HETATM   83  H   UNK N   1       6.824  -2.070   1.579  0.00  0.00     0.219 HD
ENDBRANCH  51  82
BRANCH  53  84
HETATM   84  C   UNK N   1       9.148   0.158   0.779  0.00  0.00     0.052 C 
BRANCH  84  85
HETATM   85  C   UNK N   1      10.350  -0.701   0.424  0.00  0.00     0.113 C 
BRANCH  85  86
HETATM   86  N   UNK N   1      11.276   0.078  -0.380  0.00  0.00    -0.430 N 
HETATM   87  H   UNK N   1      12.074  -0.211  -0.945  0.00  0.00     0.149 HD
HETATM   88  H   UNK N   1      11.097   1.083  -0.380  0.00  0.00     0.149 HD
ENDBRANCH  85  86
ENDBRANCH  84  85
ENDBRANCH  53  84
BRANCH  55  89
HETATM   89  O   UNK N   1       8.845   2.901   0.155  0.00  0.00    -0.348 OA
HETATM   90  H   UNK N   1       9.519   2.250   0.140  0.00  0.00     0.219 HD
ENDBRANCH  55  89
BRANCH  57  91
HETATM   91  C   UNK N   1       7.099   4.709   1.323  0.00  0.00     0.037 C 
BRANCH  91  92
HETATM   92  C   UNK N   1       7.106   5.999   0.507  0.00  0.00    -0.020 C 
HETATM   93  C   UNK N   1       5.816   6.764   0.705  0.00  0.00     0.009 C 
HETATM   94  C   UNK N   1       7.412   5.796  -0.966  0.00  0.00     0.009 C 
ENDBRANCH  91  92
ENDBRANCH  57  91
BRANCH  59  95
HETATM   95  O   UNK N   1       4.396   1.425   2.899  0.00  0.00    -0.348 OA
HETATM   96  H   UNK N   1       3.842   1.296   3.644  0.00  0.00     0.219 HD
ENDBRANCH  59  95
BRANCH  61  97
HETATM   97  C   UNK N   1       3.524   3.304  -0.361  0.00  0.00     0.037 C 
BRANCH  97  98
HETATM   98  C   UNK N   1       3.327   4.792  -0.055  0.00  0.00    -0.020 C 
HETATM   99  C   UNK N   1       1.870   5.121   0.220  0.00  0.00     0.009 C 
HETATM  100  C   UNK N   1       3.732   5.586  -1.280  0.00  0.00     0.009 C 
ENDBRANCH  97  98
ENDBRANCH  61  97
BRANCH  63 101
HETATM  101  O   UNK N   1       0.115   2.696   2.205  0.00  0.00    -0.348 OA
HETATM  102  H   UNK N   1      -0.036   3.380   2.827  0.00  0.00     0.219 HD
ENDBRANCH  63 101
BRANCH  65 103
HETATM  103  C   UNK N   1      -0.818   1.964  -0.298  0.00  0.00     0.052 C 
BRANCH 103 104
HETATM  104  C   UNK N   1      -1.351   3.377  -0.264  0.00  0.00     0.113 C 
BRANCH 104 105
HETATM  105  N   UNK N   1      -2.225   3.518   0.887  0.00  0.00    -0.430 N 
HETATM  106  H   UNK N   1      -2.447   4.099   1.695  0.00  0.00     0.149 HD
HETATM  107  H   UNK N   1      -2.869   2.727   0.887  0.00  0.00     0.149 HD
ENDBRANCH 104 105
ENDBRANCH 103 104
ENDBRANCH  65 103
BRANCH  67 108
HETATM  108  O   UNK N   1       1.593  -0.138   1.955  0.00  0.00    -0.348 OA
HETATM  109  H   UNK N   1       1.963  -0.303   2.800  0.00  0.00     0.219 HD
ENDBRANCH  67 108
ENDBRANCH  37  39
BRANCH  36 110
HETATM  110  O   UNK N   1      -2.867  -1.489  -0.910  0.00  0.00    -0.348 OA
HETATM  111  H   UNK N   1      -2.837  -0.622  -1.264  0.00  0.00     0.219 HD
ENDBRANCH  36 110
ENDBRANCH  30  36
ENDBRANCH  28  30
BRANCH  27 112
HETATM  112  O   UNK N   1      -4.277  -3.569  -1.828  0.00  0.00    -0.348 OA
HETATM  113  H   UNK N   1      -4.034  -3.392  -2.715  0.00  0.00     0.219 HD
ENDBRANCH  27 112
ENDBRANCH  22  27
ENDBRANCH  20  22
BRANCH  19 114
HETATM  114  O   UNK N   1      -5.748  -1.603   2.558  0.00  0.00    -0.348 OA
HETATM  115  H   UNK N   1      -5.331  -1.477   3.387  0.00  0.00     0.219 HD
ENDBRANCH  19 114
ENDBRANCH  13  19
ENDBRANCH   2  13
TORSDOF 45
