MODEL 1
REMARK VINA RESULT:      -4.4      0.000      0.000
REMARK  11 active torsions:
REMARK  status: ('A' for Active; 'I' for Inactive)
REMARK    1  A    between atoms: C_6  and  N_1 
REMARK    2  A    between atoms: C_8  and  N_1 
REMARK    3  A    between atoms: C_7  and  N_2 
REMARK    4  A    between atoms: C_5  and  N_2 
REMARK    5  A    between atoms: C_10  and  O_3 
REMARK    6  A    between atoms: C_9  and  O_4 
REMARK    7  A    between atoms: C_5  and  C_9 
REMARK    8  A    between atoms: C_11  and  C_5 
REMARK    9  A    between atoms: C_6  and  C_10 
REMARK   10  A    between atoms: C_12  and  C_6 
REMARK   11  A    between atoms: C_8  and  C_7 
ROOT
HETATM    1  C   UNK N   1      32.160  15.860   8.721  0.00  0.00     0.133 C 
ENDROOT
BRANCH   1   2
HETATM    2  N   UNK N   1      32.631  17.165   9.152  0.00  0.00    -0.413 N 
HETATM    3  H   UNK N   1      32.697  17.484  10.119  0.00  0.00     0.153 HD
BRANCH   2   4
HETATM    4  C   UNK N   1      32.993  17.943   7.972  0.00  0.00     0.099 C 
BRANCH   4   5
HETATM    5  C   UNK N   1      34.513  17.997   7.816  0.00  0.00     0.188 C 
BRANCH   5   6
HETATM    6  O   UNK N   1      35.030  19.128   8.447  0.00  0.00    -0.399 OA
HETATM    7  H   UNK N   1      35.958  19.285   8.680  0.00  0.00     0.209 HD
ENDBRANCH   5   6
ENDBRANCH   4   5
BRANCH   4   8
HETATM    8  C   UNK N   1      32.379  17.278   6.751  0.00  0.00     0.022 C 
HETATM    9  C   UNK N   1      33.267  17.447   5.530  0.00  0.00     0.007 C 
ENDBRANCH   4   8
ENDBRANCH   2   4
ENDBRANCH   1   2
BRANCH   1  10
HETATM   10  C   UNK N   1      32.968  14.778   9.414  0.00  0.00     0.133 C 
BRANCH  10  11
HETATM   11  N   UNK N   1      33.336  15.230  10.744  0.00  0.00    -0.413 N 
HETATM   12  H   UNK N   1      32.749  15.784  11.368  0.00  0.00     0.153 HD
BRANCH  11  13
HETATM   13  C   UNK N   1      34.686  14.762  11.036  0.00  0.00     0.099 C 
BRANCH  13  14
HETATM   14  C   UNK N   1      35.639  15.948  11.178  0.00  0.00     0.188 C 
BRANCH  14  15
HETATM   15  O   UNK N   1      34.967  17.149  10.949  0.00  0.00    -0.399 OA
HETATM   16  H   UNK N   1      35.011  17.681  10.138  0.00  0.00     0.209 HD
ENDBRANCH  14  15
ENDBRANCH  13  14
BRANCH  13  17
HETATM   17  C   UNK N   1      35.144  13.873   9.891  0.00  0.00     0.022 C 
HETATM   18  C   UNK N   1      36.618  14.081   9.591  0.00  0.00     0.007 C 
ENDBRANCH  13  17
ENDBRANCH  11  13
ENDBRANCH  10  11
ENDBRANCH   1  10
TORSDOF 11
ENDMDL
MODEL 2
REMARK VINA RESULT:      -4.2      2.725      6.066
REMARK  11 active torsions:
REMARK  status: ('A' for Active; 'I' for Inactive)
REMARK    1  A    between atoms: C_6  and  N_1 
REMARK    2  A    between atoms: C_8  and  N_1 
REMARK    3  A    between atoms: C_7  and  N_2 
REMARK    4  A    between atoms: C_5  and  N_2 
REMARK    5  A    between atoms: C_10  and  O_3 
REMARK    6  A    between atoms: C_9  and  O_4 
REMARK    7  A    between atoms: C_5  and  C_9 
REMARK    8  A    between atoms: C_11  and  C_5 
REMARK    9  A    between atoms: C_6  and  C_10 
REMARK   10  A    between atoms: C_12  and  C_6 
REMARK   11  A    between atoms: C_8  and  C_7 
ROOT
HETATM    1  C   UNK N   1      35.225  15.494  11.745  0.00  0.00     0.133 C 
ENDROOT
BRANCH   1   2
HETATM    2  N   UNK N   1      36.383  15.128  12.541  0.00  0.00    -0.413 N 
HETATM    3  H   UNK N   1      37.234  15.681  12.643  0.00  0.00     0.153 HD
BRANCH   2   4
HETATM    4  C   UNK N   1      36.125  13.837  13.172  0.00  0.00     0.099 C 
BRANCH   4   5
HETATM    5  C   UNK N   1      36.933  12.738  12.484  0.00  0.00     0.188 C 
BRANCH   5   6
HETATM    6  O   UNK N   1      37.873  13.291  11.615  0.00  0.00    -0.399 OA
HETATM    7  H   UNK N   1      37.840  14.175  11.216  0.00  0.00     0.209 HD
ENDBRANCH   5   6
ENDBRANCH   4   5
BRANCH   4   8
HETATM    8  C   UNK N   1      36.530  13.928  14.635  0.00  0.00     0.022 C 
HETATM    9  C   UNK N   1      35.503  13.256  15.530  0.00  0.00     0.007 C 
ENDBRANCH   4   8
ENDBRANCH   2   4
ENDBRANCH   1   2
BRANCH   1  10
HETATM   10  C   UNK N   1      35.633  16.519  10.702  0.00  0.00     0.133 C 
BRANCH  10  11
HETATM   11  N   UNK N   1      34.442  17.074  10.083  0.00  0.00    -0.413 N 
HETATM   12  H   UNK N   1      33.641  17.465  10.579  0.00  0.00     0.153 HD
BRANCH  11  13
HETATM   13  C   UNK N   1      34.584  16.977   8.635  0.00  0.00     0.099 C 
BRANCH  13  14
HETATM   14  C   UNK N   1      34.388  18.347   7.989  0.00  0.00     0.188 C 
BRANCH  14  15
HETATM   15  O   UNK N   1      35.290  19.272   8.515  0.00  0.00    -0.399 OA
HETATM   16  H   UNK N   1      35.217  19.714   9.376  0.00  0.00     0.209 HD
ENDBRANCH  14  15
ENDBRANCH  13  14
BRANCH  13  17
HETATM   17  C   UNK N   1      33.532  16.011   8.114  0.00  0.00     0.022 C 
HETATM   18  C   UNK N   1      32.142  16.410   8.579  0.00  0.00     0.007 C 
ENDBRANCH  13  17
ENDBRANCH  11  13
ENDBRANCH  10  11
ENDBRANCH   1  10
TORSDOF 11
ENDMDL
MODEL 3
REMARK VINA RESULT:      -4.2      1.381      1.714
REMARK  11 active torsions:
REMARK  status: ('A' for Active; 'I' for Inactive)
REMARK    1  A    between atoms: C_6  and  N_1 
REMARK    2  A    between atoms: C_8  and  N_1 
REMARK    3  A    between atoms: C_7  and  N_2 
REMARK    4  A    between atoms: C_5  and  N_2 
REMARK    5  A    between atoms: C_10  and  O_3 
REMARK    6  A    between atoms: C_9  and  O_4 
REMARK    7  A    between atoms: C_5  and  C_9 
REMARK    8  A    between atoms: C_11  and  C_5 
REMARK    9  A    between atoms: C_6  and  C_10 
REMARK   10  A    between atoms: C_12  and  C_6 
REMARK   11  A    between atoms: C_8  and  C_7 
ROOT
HETATM    1  C   UNK N   1      32.721  15.428   8.688  0.00  0.00     0.133 C 
ENDROOT
BRANCH   1   2
HETATM    2  N   UNK N   1      32.375  16.754   9.166  0.00  0.00    -0.413 N 
HETATM    3  H   UNK N   1      32.116  16.994  10.123  0.00  0.00     0.153 HD
BRANCH   2   4
HETATM    4  C   UNK N   1      32.460  17.689   8.048  0.00  0.00     0.099 C 
BRANCH   4   5
HETATM    5  C   UNK N   1      33.877  18.247   7.927  0.00  0.00     0.188 C 
BRANCH   5   6
HETATM    6  O   UNK N   1      34.408  17.969   6.668  0.00  0.00    -0.399 OA
HETATM    7  H   UNK N   1      33.937  17.573   5.917  0.00  0.00     0.209 HD
ENDBRANCH   5   6
ENDBRANCH   4   5
BRANCH   4   8
HETATM    8  C   UNK N   1      32.093  16.947   6.772  0.00  0.00     0.022 C 
HETATM    9  C   UNK N   1      30.643  17.193   6.394  0.00  0.00     0.007 C 
ENDBRANCH   4   8
ENDBRANCH   2   4
ENDBRANCH   1   2
BRANCH   1  10
HETATM   10  C   UNK N   1      33.909  14.902   9.474  0.00  0.00     0.133 C 
BRANCH  10  11
HETATM   11  N   UNK N   1      33.615  14.975  10.894  0.00  0.00    -0.413 N 
HETATM   12  H   UNK N   1      32.713  14.774  11.327  0.00  0.00     0.153 HD
BRANCH  11  13
HETATM   13  C   UNK N   1      34.825  15.386  11.597  0.00  0.00     0.099 C 
BRANCH  13  14
HETATM   14  C   UNK N   1      35.632  16.358  10.739  0.00  0.00     0.188 C 
BRANCH  14  15
HETATM   15  O   UNK N   1      36.998  16.096  10.853  0.00  0.00    -0.399 OA
HETATM   16  H   UNK N   1      37.702  16.495  10.316  0.00  0.00     0.209 HD
ENDBRANCH  14  15
ENDBRANCH  13  14
BRANCH  13  17
HETATM   17  C   UNK N   1      35.657  14.147  11.886  0.00  0.00     0.022 C 
HETATM   18  C   UNK N   1      35.797  13.916  13.381  0.00  0.00     0.007 C 
ENDBRANCH  13  17
ENDBRANCH  11  13
ENDBRANCH  10  11
ENDBRANCH   1  10
TORSDOF 11
ENDMDL
MODEL 4
REMARK VINA RESULT:      -4.1      2.691      3.272
REMARK  11 active torsions:
REMARK  status: ('A' for Active; 'I' for Inactive)
REMARK    1  A    between atoms: C_6  and  N_1 
REMARK    2  A    between atoms: C_8  and  N_1 
REMARK    3  A    between atoms: C_7  and  N_2 
REMARK    4  A    between atoms: C_5  and  N_2 
REMARK    5  A    between atoms: C_10  and  O_3 
REMARK    6  A    between atoms: C_9  and  O_4 
REMARK    7  A    between atoms: C_5  and  C_9 
REMARK    8  A    between atoms: C_11  and  C_5 
REMARK    9  A    between atoms: C_6  and  C_10 
REMARK   10  A    between atoms: C_12  and  C_6 
REMARK   11  A    between atoms: C_8  and  C_7 
ROOT
HETATM    1  C   UNK N   1      35.092  15.754  10.388  0.00  0.00     0.133 C 
ENDROOT
BRANCH   1   2
HETATM    2  N   UNK N   1      34.918  17.161  10.073  0.00  0.00    -0.413 N 
HETATM    3  H   UNK N   1      35.378  17.939  10.547  0.00  0.00     0.153 HD
BRANCH   2   4
HETATM    4  C   UNK N   1      33.974  17.276   8.965  0.00  0.00     0.099 C 
BRANCH   4   5
HETATM    5  C   UNK N   1      34.347  18.458   8.070  0.00  0.00     0.188 C 
BRANCH   5   6
HETATM    6  O   UNK N   1      35.377  19.201   8.644  0.00  0.00    -0.399 OA
HETATM    7  H   UNK N   1      35.351  19.662   9.497  0.00  0.00     0.209 HD
ENDBRANCH   5   6
ENDBRANCH   4   5
BRANCH   4   8
HETATM    8  C   UNK N   1      34.021  15.989   8.158  0.00  0.00     0.022 C 
HETATM    9  C   UNK N   1      34.157  16.279   6.673  0.00  0.00     0.007 C 
ENDBRANCH   4   8
ENDBRANCH   2   4
ENDBRANCH   1   2
BRANCH   1  10
HETATM   10  C   UNK N   1      35.840  15.621  11.702  0.00  0.00     0.133 C 
BRANCH  10  11
HETATM   11  N   UNK N   1      36.829  14.564  11.587  0.00  0.00    -0.413 N 
HETATM   12  H   UNK N   1      37.573  14.518  10.891  0.00  0.00     0.153 HD
BRANCH  11  13
HETATM   13  C   UNK N   1      36.579  13.578  12.632  0.00  0.00     0.099 C 
BRANCH  13  14
HETATM   14  C   UNK N   1      35.497  12.596  12.186  0.00  0.00     0.188 C 
BRANCH  14  15
HETATM   15  O   UNK N   1      34.390  12.667  13.032  0.00  0.00    -0.399 OA
HETATM   16  H   UNK N   1      33.547  13.105  12.833  0.00  0.00     0.209 HD
ENDBRANCH  14  15
ENDBRANCH  13  14
BRANCH  13  17
HETATM   17  C   UNK N   1      36.121  14.310  13.883  0.00  0.00     0.022 C 
HETATM   18  C   UNK N   1      36.874  13.826  15.109  0.00  0.00     0.007 C 
ENDBRANCH  13  17
ENDBRANCH  11  13
ENDBRANCH  10  11
ENDBRANCH   1  10
TORSDOF 11
ENDMDL
MODEL 5
REMARK VINA RESULT:      -4.0      1.767      5.067
REMARK  11 active torsions:
REMARK  status: ('A' for Active; 'I' for Inactive)
REMARK    1  A    between atoms: C_6  and  N_1 
REMARK    2  A    between atoms: C_8  and  N_1 
REMARK    3  A    between atoms: C_7  and  N_2 
REMARK    4  A    between atoms: C_5  and  N_2 
REMARK    5  A    between atoms: C_10  and  O_3 
REMARK    6  A    between atoms: C_9  and  O_4 
REMARK    7  A    between atoms: C_5  and  C_9 
REMARK    8  A    between atoms: C_11  and  C_5 
REMARK    9  A    between atoms: C_6  and  C_10 
REMARK   10  A    between atoms: C_12  and  C_6 
REMARK   11  A    between atoms: C_8  and  C_7 
ROOT
HETATM    1  C   UNK N   1      33.326  14.878   9.717  0.00  0.00     0.133 C 
ENDROOT
BRANCH   1   2
HETATM    2  N   UNK N   1      33.725  15.028  11.105  0.00  0.00    -0.413 N 
HETATM    3  H   UNK N   1      33.149  15.418  11.851  0.00  0.00     0.153 HD
BRANCH   2   4
HETATM    4  C   UNK N   1      35.089  14.530  11.254  0.00  0.00     0.099 C 
BRANCH   4   5
HETATM    5  C   UNK N   1      35.987  15.608  11.858  0.00  0.00     0.188 C 
BRANCH   5   6
HETATM    6  O   UNK N   1      36.928  16.042  10.925  0.00  0.00    -0.399 OA
HETATM    7  H   UNK N   1      36.949  15.820   9.981  0.00  0.00     0.209 HD
ENDBRANCH   5   6
ENDBRANCH   4   5
BRANCH   4   8
HETATM    8  C   UNK N   1      35.060  13.317  12.171  0.00  0.00     0.022 C 
HETATM    9  C   UNK N   1      35.600  13.660  13.548  0.00  0.00     0.007 C 
ENDBRANCH   4   8
ENDBRANCH   2   4
ENDBRANCH   1   2
BRANCH   1  10
HETATM   10  C   UNK N   1      34.077  15.884   8.864  0.00  0.00     0.133 C 
BRANCH  10  11
HETATM   11  N   UNK N   1      33.762  17.227   9.316  0.00  0.00    -0.413 N 
HETATM   12  H   UNK N   1      33.899  17.585  10.261  0.00  0.00     0.153 HD
BRANCH  11  13
HETATM   13  C   UNK N   1      33.213  17.978   8.192  0.00  0.00     0.099 C 
BRANCH  13  14
HETATM   14  C   UNK N   1      31.725  17.675   8.028  0.00  0.00     0.188 C 
BRANCH  14  15
HETATM   15  O   UNK N   1      31.045  17.888   9.227  0.00  0.00    -0.399 OA
HETATM   16  H   UNK N   1      30.093  17.763   9.373  0.00  0.00     0.209 HD
ENDBRANCH  14  15
ENDBRANCH  13  14
BRANCH  13  17
HETATM   17  C   UNK N   1      33.960  17.570   6.932  0.00  0.00     0.022 C 
HETATM   18  C   UNK N   1      33.022  17.492   5.740  0.00  0.00     0.007 C 
ENDBRANCH  13  17
ENDBRANCH  11  13
ENDBRANCH  10  11
ENDBRANCH   1  10
TORSDOF 11
ENDMDL
MODEL 6
REMARK VINA RESULT:      -3.9      2.542      3.313
REMARK  11 active torsions:
REMARK  status: ('A' for Active; 'I' for Inactive)
REMARK    1  A    between atoms: C_6  and  N_1 
REMARK    2  A    between atoms: C_8  and  N_1 
REMARK    3  A    between atoms: C_7  and  N_2 
REMARK    4  A    between atoms: C_5  and  N_2 
REMARK    5  A    between atoms: C_10  and  O_3 
REMARK    6  A    between atoms: C_9  and  O_4 
REMARK    7  A    between atoms: C_5  and  C_9 
REMARK    8  A    between atoms: C_11  and  C_5 
REMARK    9  A    between atoms: C_6  and  C_10 
REMARK   10  A    between atoms: C_12  and  C_6 
REMARK   11  A    between atoms: C_8  and  C_7 
ROOT
HETATM    1  C   UNK N   1      33.192  17.513   8.010  0.00  0.00     0.133 C 
ENDROOT
BRANCH   1   2
HETATM    2  N   UNK N   1      32.137  17.417   9.003  0.00  0.00    -0.413 N 
HETATM    3  H   UNK N   1      32.255  17.119   9.971  0.00  0.00     0.153 HD
BRANCH   2   4
HETATM    4  C   UNK N   1      30.877  17.820   8.384  0.00  0.00     0.099 C 
BRANCH   4   5
HETATM    5  C   UNK N   1      30.440  16.787   7.346  0.00  0.00     0.188 C 
BRANCH   5   6
HETATM    6  O   UNK N   1      30.266  17.388   6.099  0.00  0.00    -0.399 OA
HETATM    7  H   UNK N   1      30.436  18.316   5.878  0.00  0.00     0.209 HD
ENDBRANCH   5   6
ENDBRANCH   4   5
BRANCH   4   8
HETATM    8  C   UNK N   1      29.821  17.929   9.471  0.00  0.00     0.022 C 
HETATM    9  C   UNK N   1      28.523  18.492   8.918  0.00  0.00     0.007 C 
ENDBRANCH   4   8
ENDBRANCH   2   4
ENDBRANCH   1   2
BRANCH   1  10
HETATM   10  C   UNK N   1      34.542  17.447   8.701  0.00  0.00     0.133 C 
BRANCH  10  11
HETATM   11  N   UNK N   1      34.354  17.046  10.084  0.00  0.00    -0.413 N 
HETATM   12  H   UNK N   1      33.830  17.565  10.789  0.00  0.00     0.153 HD
BRANCH  11  13
HETATM   13  C   UNK N   1      35.045  15.779  10.298  0.00  0.00     0.099 C 
BRANCH  13  14
HETATM   14  C   UNK N   1      34.036  14.638  10.410  0.00  0.00     0.188 C 
BRANCH  14  15
HETATM   15  O   UNK N   1      32.817  15.106  10.901  0.00  0.00    -0.399 OA
HETATM   16  H   UNK N   1      32.268  14.670  11.573  0.00  0.00     0.209 HD
ENDBRANCH  14  15
ENDBRANCH  13  14
BRANCH  13  17
HETATM   17  C   UNK N   1      35.847  15.880  11.586  0.00  0.00     0.022 C 
HETATM   18  C   UNK N   1      35.967  14.527  12.265  0.00  0.00     0.007 C 
ENDBRANCH  13  17
ENDBRANCH  11  13
ENDBRANCH  10  11
ENDBRANCH   1  10
TORSDOF 11
ENDMDL
MODEL 7
REMARK VINA RESULT:      -3.9      3.033      4.098
REMARK  11 active torsions:
REMARK  status: ('A' for Active; 'I' for Inactive)
REMARK    1  A    between atoms: C_6  and  N_1 
REMARK    2  A    between atoms: C_8  and  N_1 
REMARK    3  A    between atoms: C_7  and  N_2 
REMARK    4  A    between atoms: C_5  and  N_2 
REMARK    5  A    between atoms: C_10  and  O_3 
REMARK    6  A    between atoms: C_9  and  O_4 
REMARK    7  A    between atoms: C_5  and  C_9 
REMARK    8  A    between atoms: C_11  and  C_5 
REMARK    9  A    between atoms: C_6  and  C_10 
REMARK   10  A    between atoms: C_12  and  C_6 
REMARK   11  A    between atoms: C_8  and  C_7 
ROOT
HETATM    1  C   UNK N   1      35.936  13.267   9.910  0.00  0.00     0.133 C 
ENDROOT
BRANCH   1   2
HETATM    2  N   UNK N   1      35.904  14.586   9.304  0.00  0.00    -0.413 N 
HETATM    3  H   UNK N   1      36.504  14.906   8.543  0.00  0.00     0.153 HD
BRANCH   2   4
HETATM    4  C   UNK N   1      34.870  15.377   9.964  0.00  0.00     0.099 C 
BRANCH   4   5
HETATM    5  C   UNK N   1      35.501  16.503  10.781  0.00  0.00     0.188 C 
BRANCH   5   6
HETATM    6  O   UNK N   1      36.870  16.286  10.939  0.00  0.00    -0.399 OA
HETATM    7  H   UNK N   1      37.316  15.979  11.744  0.00  0.00     0.209 HD
ENDBRANCH   5   6
ENDBRANCH   4   5
BRANCH   4   8
HETATM    8  C   UNK N   1      33.963  15.968   8.896  0.00  0.00     0.022 C 
HETATM    9  C   UNK N   1      34.279  17.435   8.661  0.00  0.00     0.007 C 
ENDBRANCH   4   8
ENDBRANCH   2   4
ENDBRANCH   1   2
BRANCH   1  10
HETATM   10  C   UNK N   1      37.351  12.953  10.361  0.00  0.00     0.133 C 
BRANCH  10  11
HETATM   11  N   UNK N   1      37.529  13.400  11.731  0.00  0.00    -0.413 N 
HETATM   12  H   UNK N   1      38.262  14.027  12.062  0.00  0.00     0.153 HD
BRANCH  11  13
HETATM   13  C   UNK N   1      36.486  12.798  12.554  0.00  0.00     0.099 C 
BRANCH  13  14
HETATM   14  C   UNK N   1      36.127  13.725  13.715  0.00  0.00     0.188 C 
BRANCH  14  15
HETATM   15  O   UNK N   1      36.796  14.942  13.597  0.00  0.00    -0.399 OA
HETATM   16  H   UNK N   1      37.138  15.328  12.774  0.00  0.00     0.209 HD
ENDBRANCH  14  15
ENDBRANCH  13  14
BRANCH  13  17
HETATM   17  C   UNK N   1      37.006  11.477  13.098  0.00  0.00     0.022 C 
HETATM   18  C   UNK N   1      37.581  11.645  14.493  0.00  0.00     0.007 C 
ENDBRANCH  13  17
ENDBRANCH  11  13
ENDBRANCH  10  11
ENDBRANCH   1  10
TORSDOF 11
ENDMDL
MODEL 8
REMARK VINA RESULT:      -3.8      3.113      4.434
REMARK  11 active torsions:
REMARK  status: ('A' for Active; 'I' for Inactive)
REMARK    1  A    between atoms: C_6  and  N_1 
REMARK    2  A    between atoms: C_8  and  N_1 
REMARK    3  A    between atoms: C_7  and  N_2 
REMARK    4  A    between atoms: C_5  and  N_2 
REMARK    5  A    between atoms: C_10  and  O_3 
REMARK    6  A    between atoms: C_9  and  O_4 
REMARK    7  A    between atoms: C_5  and  C_9 
REMARK    8  A    between atoms: C_11  and  C_5 
REMARK    9  A    between atoms: C_6  and  C_10 
REMARK   10  A    between atoms: C_12  and  C_6 
REMARK   11  A    between atoms: C_8  and  C_7 
ROOT
HETATM    1  C   UNK N   1      36.167  15.709  11.242  0.00  0.00     0.133 C 
ENDROOT
BRANCH   1   2
HETATM    2  N   UNK N   1      35.706  14.751  10.253  0.00  0.00    -0.413 N 
HETATM    3  H   UNK N   1      36.014  13.781  10.174  0.00  0.00     0.153 HD
BRANCH   2   4
HETATM    4  C   UNK N   1      34.728  15.407   9.390  0.00  0.00     0.099 C 
BRANCH   4   5
HETATM    5  C   UNK N   1      33.330  14.844   9.646  0.00  0.00     0.188 C 
BRANCH   5   6
HETATM    6  O   UNK N   1      33.008  14.929  11.000  0.00  0.00    -0.399 OA
HETATM    7  H   UNK N   1      32.117  14.917  11.383  0.00  0.00     0.209 HD
ENDBRANCH   5   6
ENDBRANCH   4   5
BRANCH   4   8
HETATM    8  C   UNK N   1      34.742  16.896   9.693  0.00  0.00     0.022 C 
HETATM    9  C   UNK N   1      34.398  17.710   8.457  0.00  0.00     0.007 C 
ENDBRANCH   4   8
ENDBRANCH   2   4
ENDBRANCH   1   2
BRANCH   1  10
HETATM   10  C   UNK N   1      36.194  15.050  12.608  0.00  0.00     0.133 C 
BRANCH  10  11
HETATM   11  N   UNK N   1      36.981  13.832  12.539  0.00  0.00    -0.413 N 
HETATM   12  H   UNK N   1      37.815  13.694  11.968  0.00  0.00     0.153 HD
BRANCH  11  13
HETATM   13  C   UNK N   1      36.377  12.838  13.420  0.00  0.00     0.099 C 
BRANCH  13  14
HETATM   14  C   UNK N   1      34.862  12.813  13.231  0.00  0.00     0.188 C 
BRANCH  14  15
HETATM   15  O   UNK N   1      34.534  12.377  11.947  0.00  0.00    -0.399 OA
HETATM   16  H   UNK N   1      33.754  12.646  11.435  0.00  0.00     0.209 HD
ENDBRANCH  14  15
ENDBRANCH  13  14
BRANCH  13  17
HETATM   17  C   UNK N   1      36.707  13.207  14.857  0.00  0.00     0.022 C 
HETATM   18  C   UNK N   1      35.478  13.113  15.744  0.00  0.00     0.007 C 
ENDBRANCH  13  17
ENDBRANCH  11  13
ENDBRANCH  10  11
ENDBRANCH   1  10
TORSDOF 11
ENDMDL
MODEL 9
REMARK VINA RESULT:      -3.8     14.120     16.083
REMARK  11 active torsions:
REMARK  status: ('A' for Active; 'I' for Inactive)
REMARK    1  A    between atoms: C_6  and  N_1 
REMARK    2  A    between atoms: C_8  and  N_1 
REMARK    3  A    between atoms: C_7  and  N_2 
REMARK    4  A    between atoms: C_5  and  N_2 
REMARK    5  A    between atoms: C_10  and  O_3 
REMARK    6  A    between atoms: C_9  and  O_4 
REMARK    7  A    between atoms: C_5  and  C_9 
REMARK    8  A    between atoms: C_11  and  C_5 
REMARK    9  A    between atoms: C_6  and  C_10 
REMARK   10  A    between atoms: C_12  and  C_6 
REMARK   11  A    between atoms: C_8  and  C_7 
ROOT
HETATM    1  C   UNK N   1      28.822  24.932  -5.365  0.00  0.00     0.133 C 
ENDROOT
BRANCH   1   2
HETATM    2  N   UNK N   1      28.332  25.820  -4.326  0.00  0.00    -0.413 N 
HETATM    3  H   UNK N   1      28.909  26.421  -3.736  0.00  0.00     0.153 HD
BRANCH   2   4
HETATM    4  C   UNK N   1      26.878  25.709  -4.265  0.00  0.00     0.099 C 
BRANCH   4   5
HETATM    5  C   UNK N   1      26.468  24.290  -3.874  0.00  0.00     0.188 C 
BRANCH   5   6
HETATM    6  O   UNK N   1      26.909  23.991  -2.585  0.00  0.00    -0.399 OA
HETATM    7  H   UNK N   1      27.658  23.421  -2.349  0.00  0.00     0.209 HD
ENDBRANCH   5   6
ENDBRANCH   4   5
BRANCH   4   8
HETATM    8  C   UNK N   1      26.364  26.694  -3.228  0.00  0.00     0.022 C 
HETATM    9  C   UNK N   1      25.641  27.856  -3.887  0.00  0.00     0.007 C 
ENDBRANCH   4   8
ENDBRANCH   2   4
ENDBRANCH   1   2
BRANCH   1  10
HETATM   10  C   UNK N   1      30.007  24.143  -4.837  0.00  0.00     0.133 C 
BRANCH  10  11
HETATM   11  N   UNK N   1      29.690  22.726  -4.861  0.00  0.00    -0.413 N 
HETATM   12  H   UNK N   1      29.324  22.212  -5.661  0.00  0.00     0.153 HD
BRANCH  11  13
HETATM   13  C   UNK N   1      29.981  22.164  -3.547  0.00  0.00     0.099 C 
BRANCH  13  14
HETATM   14  C   UNK N   1      30.707  23.191  -2.680  0.00  0.00     0.188 C 
BRANCH  14  15
HETATM   15  O   UNK N   1      30.321  23.068  -1.345  0.00  0.00    -0.399 OA
HETATM   16  H   UNK N   1      29.432  22.844  -1.027  0.00  0.00     0.209 HD
ENDBRANCH  14  15
ENDBRANCH  13  14
BRANCH  13  17
HETATM   17  C   UNK N   1      30.862  20.939  -3.733  0.00  0.00     0.022 C 
HETATM   18  C   UNK N   1      32.328  21.283  -3.539  0.00  0.00     0.007 C 
ENDBRANCH  13  17
ENDBRANCH  11  13
ENDBRANCH  10  11
ENDBRANCH   1  10
TORSDOF 11
ENDMDL
