MODEL 1
REMARK VINA RESULT:      -7.8      0.000      0.000
REMARK  8 active torsions:
REMARK  status: ('A' for Active; 'I' for Inactive)
REMARK    1  A    between atoms: C_1  and  S_2 
REMARK    2  A    between atoms: S_2  and  N_5 
REMARK    3  A    between atoms: N_5  and  C_10 
REMARK    4  A    between atoms: C_11  and  N_15 
REMARK    5  A    between atoms: N_19  and  C_22 
REMARK    6  A    between atoms: C_25  and  C_28 
REMARK    7  A    between atoms: C_27  and  O_29 
REMARK    8  A    between atoms: C_28  and  O_30 
ROOT
HETATM    1  C   UNK N   1      22.962  19.846   3.127  0.00  0.00     0.080 A 
HETATM    2  C   UNK N   1      24.110  20.578   2.810  0.00  0.00     0.027 A 
HETATM    3  C   UNK N   1      23.049  18.732   3.962  0.00  0.00     0.027 A 
HETATM    4  C   UNK N   1      25.347  20.205   3.335  0.00  0.00     0.032 A 
HETATM    5  C   UNK N   1      24.285  18.362   4.496  0.00  0.00     0.032 A 
HETATM    6  C   UNK N   1      25.441  19.099   4.183  0.00  0.00     0.048 A 
ENDROOT
BRANCH   6   7
HETATM    7  N   UNK N   1      26.693  18.758   4.746  0.00  0.00    -0.300 N 
HETATM    8  N   UNK N   1      26.757  18.248   5.881  0.00  0.00    -0.300 N 
ATOM      9  HN  UNK N   1      25.894  18.076   6.398  1.00  0.00     0.187 HD
ATOM     10  HN  UNK N   1      27.549  18.932   4.219  1.00  0.00     0.187 HD
BRANCH   8  11
HETATM   11  C   UNK N   1      27.993  17.900   6.470  0.00  0.00     0.049 A 
HETATM   12  C   UNK N   1      28.204  18.012   7.852  0.00  0.00     0.052 A 
HETATM   13  C   UNK N   1      29.436  17.651   8.420  0.00  0.00     0.072 A 
HETATM   14  C   UNK N   1      30.459  17.156   7.577  0.00  0.00     0.082 A 
HETATM   15  C   UNK N   1      30.240  17.048   6.202  0.00  0.00     0.040 A 
HETATM   16  C   UNK N   1      29.016  17.424   5.651  0.00  0.00     0.034 A 
BRANCH  13  17
HETATM   17  C   UNK N   1      29.623  17.807   9.884  0.00  0.00     0.179 C 
HETATM   18  O   UNK N   1      29.658  18.915  10.397  0.00  0.00    -0.646 OA
BRANCH  17  19
HETATM   19  O   UNK N   1      29.743  16.717  10.668  0.00  0.00    -0.773 OA
HETATM   20  H   UNK N   1      28.995  16.375  11.116  0.00  0.00     0.167 HD
ENDBRANCH  17  19
ENDBRANCH  13  17
BRANCH  14  21
HETATM   21  O   UNK N   1      31.652  16.787   8.075  0.00  0.00    -0.360 OA
HETATM   22  H   UNK N   1      32.443  17.077   7.666  0.00  0.00     0.217 HD
ENDBRANCH  14  21
ENDBRANCH   8  11
ENDBRANCH   6   7
BRANCH   1  23
HETATM   23  S   UNK N   1      21.404  20.335   2.422  0.00  0.00     0.264 S 
HETATM   24  O   UNK N   1      20.848  21.672   2.937  0.00  0.00    -0.200 OA
HETATM   25  O   UNK N   1      21.481  20.530   0.900  0.00  0.00    -0.200 OA
BRANCH  23  26
HETATM   26  N   UNK N   1      20.145  19.144   2.719  0.00  0.00    -0.266 N 
HETATM   27  H   UNK N   1      19.446  19.373   3.372  0.00  0.00     0.180 HD
BRANCH  26  28
HETATM   28  C   UNK N   1      20.065  17.881   2.087  0.00  0.00     0.114 A 
HETATM   29  C   UNK N   1      20.203  16.691   2.813  0.00  0.00     0.049 A 
HETATM   30  C   UNK N   1      20.093  15.468   2.150  0.00  0.00     0.005 A 
HETATM   31  C   UNK N   1      19.838  15.443   0.780  0.00  0.00     0.017 A 
HETATM   32  C   UNK N   1      19.710  16.648   0.088  0.00  0.00     0.089 A 
HETATM   33  N   UNK N   1      19.831  17.830   0.748  0.00  0.00    -0.352 N 
ATOM     34  HN  UNK N   1      19.743  18.702   0.225  1.00  0.00     0.166 HD
ENDBRANCH  26  28
ENDBRANCH  23  26
ENDBRANCH   1  23
TORSDOF 8
ENDMDL
MODEL 2
REMARK VINA RESULT:      -7.8      8.590     12.829
REMARK  8 active torsions:
REMARK  status: ('A' for Active; 'I' for Inactive)
REMARK    1  A    between atoms: C_1  and  S_2 
REMARK    2  A    between atoms: S_2  and  N_5 
REMARK    3  A    between atoms: N_5  and  C_10 
REMARK    4  A    between atoms: C_11  and  N_15 
REMARK    5  A    between atoms: N_19  and  C_22 
REMARK    6  A    between atoms: C_25  and  C_28 
REMARK    7  A    between atoms: C_27  and  O_29 
REMARK    8  A    between atoms: C_28  and  O_30 
ROOT
HETATM    1  C   UNK N   1      34.674  15.833   9.145  0.00  0.00     0.080 A 
HETATM    2  C   UNK N   1      35.163  16.654  10.166  0.00  0.00     0.027 A 
HETATM    3  C   UNK N   1      34.477  14.471   9.374  0.00  0.00     0.027 A 
HETATM    4  C   UNK N   1      35.447  16.118  11.422  0.00  0.00     0.032 A 
HETATM    5  C   UNK N   1      34.752  13.935  10.633  0.00  0.00     0.032 A 
HETATM    6  C   UNK N   1      35.239  14.758  11.663  0.00  0.00     0.048 A 
ENDROOT
BRANCH   6   7
HETATM    7  N   UNK N   1      35.487  14.235  12.954  0.00  0.00    -0.300 N 
HETATM    8  N   UNK N   1      34.928  13.186  13.328  0.00  0.00    -0.300 N 
ATOM      9  HN  UNK N   1      34.292  12.708  12.691  1.00  0.00     0.187 HD
ATOM     10  HN  UNK N   1      36.126  14.721  13.583  1.00  0.00     0.187 HD
BRANCH   8  11
HETATM   11  C   UNK N   1      35.153  12.642  14.613  0.00  0.00     0.049 A 
HETATM   12  C   UNK N   1      35.162  13.450  15.759  0.00  0.00     0.052 A 
HETATM   13  C   UNK N   1      35.376  12.890  17.028  0.00  0.00     0.072 A 
HETATM   14  C   UNK N   1      35.568  11.492  17.136  0.00  0.00     0.082 A 
HETATM   15  C   UNK N   1      35.557  10.696  15.989  0.00  0.00     0.040 A 
HETATM   16  C   UNK N   1      35.357  11.268  14.734  0.00  0.00     0.034 A 
BRANCH  13  17
HETATM   17  C   UNK N   1      35.400  13.785  18.212  0.00  0.00     0.179 C 
HETATM   18  O   UNK N   1      34.966  13.408  19.290  0.00  0.00    -0.646 OA
BRANCH  17  19
HETATM   19  O   UNK N   1      35.916  15.026  18.108  0.00  0.00    -0.773 OA
HETATM   20  H   UNK N   1      36.778  15.149  17.763  0.00  0.00     0.167 HD
ENDBRANCH  17  19
ENDBRANCH  13  17
BRANCH  14  21
HETATM   21  O   UNK N   1      35.765  10.907  18.330  0.00  0.00    -0.360 OA
HETATM   22  H   UNK N   1      36.012  11.424  19.072  0.00  0.00     0.217 HD
ENDBRANCH  14  21
ENDBRANCH   8  11
ENDBRANCH   6   7
BRANCH   1  23
HETATM   23  S   UNK N   1      34.345  16.544   7.548  0.00  0.00     0.264 S 
HETATM   24  O   UNK N   1      34.576  18.060   7.451  0.00  0.00    -0.200 OA
HETATM   25  O   UNK N   1      35.246  15.963   6.447  0.00  0.00    -0.200 OA
BRANCH  23  26
HETATM   26  N   UNK N   1      32.684  16.277   7.039  0.00  0.00    -0.266 N 
HETATM   27  H   UNK N   1      32.516  15.558   6.388  0.00  0.00     0.180 HD
BRANCH  26  28
HETATM   28  C   UNK N   1      31.571  17.020   7.496  0.00  0.00     0.114 A 
HETATM   29  C   UNK N   1      30.343  16.986   6.823  0.00  0.00     0.049 A 
HETATM   30  C   UNK N   1      29.267  17.718   7.325  0.00  0.00     0.005 A 
HETATM   31  C   UNK N   1      29.420  18.465   8.492  0.00  0.00     0.017 A 
HETATM   32  C   UNK N   1      30.659  18.479   9.135  0.00  0.00     0.089 A 
HETATM   33  N   UNK N   1      31.700  17.769   8.625  0.00  0.00    -0.352 N 
ATOM     34  HN  UNK N   1      32.601  17.796   9.102  1.00  0.00     0.166 HD
ENDBRANCH  26  28
ENDBRANCH  23  26
ENDBRANCH   1  23
TORSDOF 8
ENDMDL
MODEL 3
REMARK VINA RESULT:      -7.8      0.946      2.130
REMARK  8 active torsions:
REMARK  status: ('A' for Active; 'I' for Inactive)
REMARK    1  A    between atoms: C_1  and  S_2 
REMARK    2  A    between atoms: S_2  and  N_5 
REMARK    3  A    between atoms: N_5  and  C_10 
REMARK    4  A    between atoms: C_11  and  N_15 
REMARK    5  A    between atoms: N_19  and  C_22 
REMARK    6  A    between atoms: C_25  and  C_28 
REMARK    7  A    between atoms: C_27  and  O_29 
REMARK    8  A    between atoms: C_28  and  O_30 
ROOT
HETATM    1  C   UNK N   1      23.187  19.802   3.325  0.00  0.00     0.080 A 
HETATM    2  C   UNK N   1      23.271  18.762   4.256  0.00  0.00     0.027 A 
HETATM    3  C   UNK N   1      24.315  20.566   3.024  0.00  0.00     0.027 A 
HETATM    4  C   UNK N   1      24.484  18.476   4.881  0.00  0.00     0.032 A 
HETATM    5  C   UNK N   1      25.532  20.276   3.642  0.00  0.00     0.032 A 
HETATM    6  C   UNK N   1      25.621  19.228   4.575  0.00  0.00     0.048 A 
ENDROOT
BRANCH   6   7
HETATM    7  N   UNK N   1      26.857  18.899   5.181  0.00  0.00    -0.300 N 
HETATM    8  N   UNK N   1      26.899  18.541   6.374  0.00  0.00    -0.300 N 
ATOM      9  HN  UNK N   1      26.031  18.484   6.907  1.00  0.00     0.187 HD
ATOM     10  HN  UNK N   1      27.718  18.957   4.638  1.00  0.00     0.187 HD
BRANCH   8  11
HETATM   11  C   UNK N   1      28.118  18.210   7.007  0.00  0.00     0.049 A 
HETATM   12  C   UNK N   1      29.024  17.310   6.428  0.00  0.00     0.052 A 
HETATM   13  C   UNK N   1      30.235  17.003   7.066  0.00  0.00     0.072 A 
HETATM   14  C   UNK N   1      30.537  17.629   8.299  0.00  0.00     0.082 A 
HETATM   15  C   UNK N   1      29.629  18.525   8.868  0.00  0.00     0.040 A 
HETATM   16  C   UNK N   1      28.424  18.809   8.229  0.00  0.00     0.034 A 
BRANCH  13  17
HETATM   17  C   UNK N   1      31.155  16.028   6.429  0.00  0.00     0.179 C 
HETATM   18  O   UNK N   1      31.469  16.140   5.254  0.00  0.00    -0.646 OA
BRANCH  17  19
HETATM   19  O   UNK N   1      31.665  15.010   7.152  0.00  0.00    -0.773 OA
HETATM   20  H   UNK N   1      32.028  14.262   6.720  0.00  0.00     0.167 HD
ENDBRANCH  17  19
ENDBRANCH  13  17
BRANCH  14  21
HETATM   21  O   UNK N   1      31.690  17.376   8.943  0.00  0.00    -0.360 OA
HETATM   22  H   UNK N   1      31.847  16.529   9.311  0.00  0.00     0.217 HD
ENDBRANCH  14  21
ENDBRANCH   8  11
ENDBRANCH   6   7
BRANCH   1  23
HETATM   23  S   UNK N   1      21.619  20.156   2.563  0.00  0.00     0.264 S 
HETATM   24  O   UNK N   1      20.961  21.470   3.012  0.00  0.00    -0.200 OA
HETATM   25  O   UNK N   1      21.724  20.299   1.037  0.00  0.00    -0.200 OA
BRANCH  23  26
HETATM   26  N   UNK N   1      20.436  18.894   2.876  0.00  0.00    -0.266 N 
HETATM   27  H   UNK N   1      19.805  19.033   3.618  0.00  0.00     0.180 HD
BRANCH  26  28
HETATM   28  C   UNK N   1      20.325  17.692   2.139  0.00  0.00     0.114 A 
HETATM   29  C   UNK N   1      20.729  16.464   2.678  0.00  0.00     0.049 A 
HETATM   30  C   UNK N   1      20.579  15.302   1.921  0.00  0.00     0.005 A 
HETATM   31  C   UNK N   1      20.021  15.372   0.645  0.00  0.00     0.017 A 
HETATM   32  C   UNK N   1      19.633  16.613   0.138  0.00  0.00     0.089 A 
HETATM   33  N   UNK N   1      19.797  17.737   0.885  0.00  0.00    -0.352 N 
ATOM     34  HN  UNK N   1      19.516  18.637   0.497  1.00  0.00     0.166 HD
ENDBRANCH  26  28
ENDBRANCH  23  26
ENDBRANCH   1  23
TORSDOF 8
ENDMDL
MODEL 4
REMARK VINA RESULT:      -7.7      8.474     12.865
REMARK  8 active torsions:
REMARK  status: ('A' for Active; 'I' for Inactive)
REMARK    1  A    between atoms: C_1  and  S_2 
REMARK    2  A    between atoms: S_2  and  N_5 
REMARK    3  A    between atoms: N_5  and  C_10 
REMARK    4  A    between atoms: C_11  and  N_15 
REMARK    5  A    between atoms: N_19  and  C_22 
REMARK    6  A    between atoms: C_25  and  C_28 
REMARK    7  A    between atoms: C_27  and  O_29 
REMARK    8  A    between atoms: C_28  and  O_30 
ROOT
HETATM    1  C   UNK N   1      34.516  16.704   9.517  0.00  0.00     0.080 A 
HETATM    2  C   UNK N   1      33.826  15.490   9.448  0.00  0.00     0.027 A 
HETATM    3  C   UNK N   1      35.438  16.929  10.539  0.00  0.00     0.027 A 
HETATM    4  C   UNK N   1      34.063  14.494  10.395  0.00  0.00     0.032 A 
HETATM    5  C   UNK N   1      35.683  15.930  11.482  0.00  0.00     0.032 A 
HETATM    6  C   UNK N   1      34.995  14.706  11.413  0.00  0.00     0.048 A 
ENDROOT
BRANCH   6   7
HETATM    7  N   UNK N   1      35.260  13.671  12.340  0.00  0.00    -0.300 N 
HETATM    8  N   UNK N   1      35.648  13.941  13.494  0.00  0.00    -0.300 N 
ATOM      9  HN  UNK N   1      35.767  14.918  13.762  1.00  0.00     0.187 HD
ATOM     10  HN  UNK N   1      35.136  12.698  12.062  1.00  0.00     0.187 HD
BRANCH   8  11
HETATM   11  C   UNK N   1      35.924  12.929  14.440  0.00  0.00     0.049 A 
HETATM   12  C   UNK N   1      35.450  13.007  15.757  0.00  0.00     0.052 A 
HETATM   13  C   UNK N   1      35.726  11.986  16.679  0.00  0.00     0.072 A 
HETATM   14  C   UNK N   1      36.478  10.865  16.255  0.00  0.00     0.082 A 
HETATM   15  C   UNK N   1      36.946  10.796  14.941  0.00  0.00     0.040 A 
HETATM   16  C   UNK N   1      36.676  11.824  14.040  0.00  0.00     0.034 A 
BRANCH  13  17
HETATM   17  C   UNK N   1      35.223  12.120  18.070  0.00  0.00     0.179 C 
HETATM   18  O   UNK N   1      34.961  11.133  18.739  0.00  0.00    -0.646 OA
BRANCH  17  19
HETATM   19  O   UNK N   1      35.065  13.344  18.613  0.00  0.00    -0.773 OA
HETATM   20  H   UNK N   1      34.205  13.695  18.737  0.00  0.00     0.167 HD
ENDBRANCH  17  19
ENDBRANCH  13  17
BRANCH  14  21
HETATM   21  O   UNK N   1      36.758   9.856  17.097  0.00  0.00    -0.360 OA
HETATM   22  H   UNK N   1      37.638   9.542  17.180  0.00  0.00     0.217 HD
ENDBRANCH  14  21
ENDBRANCH   8  11
ENDBRANCH   6   7
BRANCH   1  23
HETATM   23  S   UNK N   1      34.172  17.963   8.307  0.00  0.00     0.264 S 
HETATM   24  O   UNK N   1      32.812  18.661   8.465  0.00  0.00    -0.200 OA
HETATM   25  O   UNK N   1      35.186  19.116   8.353  0.00  0.00    -0.200 OA
BRANCH  23  26
HETATM   26  N   UNK N   1      34.200  17.326   6.669  0.00  0.00    -0.266 N 
HETATM   27  H   UNK N   1      35.057  16.984   6.327  0.00  0.00     0.180 HD
BRANCH  26  28
HETATM   28  C   UNK N   1      33.080  17.270   5.807  0.00  0.00     0.114 A 
HETATM   29  C   UNK N   1      33.215  17.438   4.423  0.00  0.00     0.049 A 
HETATM   30  C   UNK N   1      32.084  17.352   3.610  0.00  0.00     0.005 A 
HETATM   31  C   UNK N   1      30.839  17.090   4.180  0.00  0.00     0.017 A 
HETATM   32  C   UNK N   1      30.741  16.932   5.563  0.00  0.00     0.089 A 
HETATM   33  N   UNK N   1      31.851  17.031   6.340  0.00  0.00    -0.352 N 
ATOM     34  HN  UNK N   1      31.761  16.921   7.350  1.00  0.00     0.166 HD
ENDBRANCH  26  28
ENDBRANCH  23  26
ENDBRANCH   1  23
TORSDOF 8
ENDMDL
MODEL 5
REMARK VINA RESULT:      -7.6      5.007     11.883
REMARK  8 active torsions:
REMARK  status: ('A' for Active; 'I' for Inactive)
REMARK    1  A    between atoms: C_1  and  S_2 
REMARK    2  A    between atoms: S_2  and  N_5 
REMARK    3  A    between atoms: N_5  and  C_10 
REMARK    4  A    between atoms: C_11  and  N_15 
REMARK    5  A    between atoms: N_19  and  C_22 
REMARK    6  A    between atoms: C_25  and  C_28 
REMARK    7  A    between atoms: C_27  and  O_29 
REMARK    8  A    between atoms: C_28  and  O_30 
ROOT
HETATM    1  C   UNK N   1      32.450  17.456   7.537  0.00  0.00     0.080 A 
HETATM    2  C   UNK N   1      31.420  17.662   8.458  0.00  0.00     0.027 A 
HETATM    3  C   UNK N   1      32.153  17.213   6.195  0.00  0.00     0.027 A 
HETATM    4  C   UNK N   1      30.089  17.636   8.040  0.00  0.00     0.032 A 
HETATM    5  C   UNK N   1      30.823  17.196   5.773  0.00  0.00     0.032 A 
HETATM    6  C   UNK N   1      29.784  17.408   6.696  0.00  0.00     0.048 A 
ENDROOT
BRANCH   6   7
HETATM    7  N   UNK N   1      28.434  17.429   6.276  0.00  0.00    -0.300 N 
HETATM    8  N   UNK N   1      28.056  18.240   5.408  0.00  0.00    -0.300 N 
ATOM      9  HN  UNK N   1      28.733  18.885   5.002  1.00  0.00     0.187 HD
ATOM     10  HN  UNK N   1      27.765  16.779   6.688  1.00  0.00     0.187 HD
BRANCH   8  11
HETATM   11  C   UNK N   1      26.712  18.287   4.971  0.00  0.00     0.049 A 
HETATM   12  C   UNK N   1      26.240  19.332   4.164  0.00  0.00     0.052 A 
HETATM   13  C   UNK N   1      24.906  19.356   3.731  0.00  0.00     0.072 A 
HETATM   14  C   UNK N   1      24.045  18.298   4.110  0.00  0.00     0.082 A 
HETATM   15  C   UNK N   1      24.524  17.261   4.913  0.00  0.00     0.040 A 
HETATM   16  C   UNK N   1      25.848  17.259   5.347  0.00  0.00     0.034 A 
BRANCH  13  17
HETATM   17  C   UNK N   1      24.443  20.492   2.896  0.00  0.00     0.179 C 
HETATM   18  O   UNK N   1      23.329  20.970   3.051  0.00  0.00    -0.646 OA
BRANCH  17  19
HETATM   19  O   UNK N   1      25.260  21.019   1.963  0.00  0.00    -0.773 OA
HETATM   20  H   UNK N   1      26.170  20.797   1.955  0.00  0.00     0.167 HD
ENDBRANCH  17  19
ENDBRANCH  13  17
BRANCH  14  21
HETATM   21  O   UNK N   1      22.762  18.270   3.711  0.00  0.00    -0.360 OA
HETATM   22  H   UNK N   1      22.500  18.723   2.932  0.00  0.00     0.217 HD
ENDBRANCH  14  21
ENDBRANCH   8  11
ENDBRANCH   6   7
BRANCH   1  23
HETATM   23  S   UNK N   1      34.135  17.472   8.107  0.00  0.00     0.264 S 
HETATM   24  O   UNK N   1      35.083  16.522   7.357  0.00  0.00    -0.200 OA
HETATM   25  O   UNK N   1      34.797  18.850   7.953  0.00  0.00    -0.200 OA
BRANCH  23  26
HETATM   26  N   UNK N   1      34.259  17.035   9.805  0.00  0.00    -0.266 N 
HETATM   27  H   UNK N   1      33.829  17.629  10.461  0.00  0.00     0.180 HD
BRANCH  26  28
HETATM   28  C   UNK N   1      34.932  15.893  10.297  0.00  0.00     0.114 A 
HETATM   29  C   UNK N   1      34.301  14.988  11.160  0.00  0.00     0.049 A 
HETATM   30  C   UNK N   1      34.999  13.863  11.601  0.00  0.00     0.005 A 
HETATM   31  C   UNK N   1      36.307  13.646  11.172  0.00  0.00     0.017 A 
HETATM   32  C   UNK N   1      36.906  14.570  10.314  0.00  0.00     0.089 A 
HETATM   33  N   UNK N   1      36.216  15.666   9.904  0.00  0.00    -0.352 N 
ATOM     34  HN  UNK N   1      36.670  16.336   9.284  1.00  0.00     0.166 HD
ENDBRANCH  26  28
ENDBRANCH  23  26
ENDBRANCH   1  23
TORSDOF 8
ENDMDL
MODEL 6
REMARK VINA RESULT:      -7.6      7.744     14.212
REMARK  8 active torsions:
REMARK  status: ('A' for Active; 'I' for Inactive)
REMARK    1  A    between atoms: C_1  and  S_2 
REMARK    2  A    between atoms: S_2  and  N_5 
REMARK    3  A    between atoms: N_5  and  C_10 
REMARK    4  A    between atoms: C_11  and  N_15 
REMARK    5  A    between atoms: N_19  and  C_22 
REMARK    6  A    between atoms: C_25  and  C_28 
REMARK    7  A    between atoms: C_27  and  O_29 
REMARK    8  A    between atoms: C_28  and  O_30 
ROOT
HETATM    1  C   UNK N   1      35.677  14.305  10.598  0.00  0.00     0.080 A 
HETATM    2  C   UNK N   1      34.512  13.712  10.101  0.00  0.00     0.027 A 
HETATM    3  C   UNK N   1      35.850  15.687  10.517  0.00  0.00     0.027 A 
HETATM    4  C   UNK N   1      33.513  14.500   9.530  0.00  0.00     0.032 A 
HETATM    5  C   UNK N   1      34.846  16.478   9.955  0.00  0.00     0.032 A 
HETATM    6  C   UNK N   1      33.672  15.886   9.458  0.00  0.00     0.048 A 
ENDROOT
BRANCH   6   7
HETATM    7  N   UNK N   1      32.632  16.679   8.919  0.00  0.00    -0.300 N 
HETATM    8  N   UNK N   1      31.439  16.380   9.124  0.00  0.00    -0.300 N 
ATOM      9  HN  UNK N   1      31.223  15.558   9.688  1.00  0.00     0.187 HD
ATOM     10  HN  UNK N   1      32.860  17.500   8.358  1.00  0.00     0.187 HD
BRANCH   8  11
HETATM   11  C   UNK N   1      30.380  17.151   8.595  0.00  0.00     0.049 A 
HETATM   12  C   UNK N   1      30.134  17.211   7.216  0.00  0.00     0.052 A 
HETATM   13  C   UNK N   1      29.070  17.973   6.711  0.00  0.00     0.072 A 
HETATM   14  C   UNK N   1      28.236  18.670   7.617  0.00  0.00     0.082 A 
HETATM   15  C   UNK N   1      28.488  18.604   8.990  0.00  0.00     0.040 A 
HETATM   16  C   UNK N   1      29.557  17.854   9.475  0.00  0.00     0.034 A 
BRANCH  13  17
HETATM   17  C   UNK N   1      28.860  18.026   5.242  0.00  0.00     0.179 C 
HETATM   18  O   UNK N   1      27.735  17.973   4.769  0.00  0.00    -0.646 OA
BRANCH  17  19
HETATM   19  O   UNK N   1      29.917  18.148   4.415  0.00  0.00    -0.773 OA
HETATM   20  H   UNK N   1      30.357  17.384   4.099  0.00  0.00     0.167 HD
ENDBRANCH  17  19
ENDBRANCH  13  17
BRANCH  14  21
HETATM   21  O   UNK N   1      27.197  19.404   7.183  0.00  0.00    -0.360 OA
HETATM   22  H   UNK N   1      26.666  19.877   7.795  0.00  0.00     0.217 HD
ENDBRANCH  14  21
ENDBRANCH   8  11
ENDBRANCH   6   7
BRANCH   1  23
HETATM   23  S   UNK N   1      36.942  13.269  11.298  0.00  0.00     0.264 S 
HETATM   24  O   UNK N   1      36.645  11.762  11.255  0.00  0.00    -0.200 OA
HETATM   25  O   UNK N   1      38.285  13.401  10.562  0.00  0.00    -0.200 OA
BRANCH  23  26
HETATM   26  N   UNK N   1      37.248  13.652  12.986  0.00  0.00    -0.266 N 
HETATM   27  H   UNK N   1      38.064  14.159  13.198  0.00  0.00     0.180 HD
BRANCH  26  28
HETATM   28  C   UNK N   1      36.405  13.286  14.061  0.00  0.00     0.114 A 
HETATM   29  C   UNK N   1      36.642  13.744  15.363  0.00  0.00     0.049 A 
HETATM   30  C   UNK N   1      35.770  13.374  16.388  0.00  0.00     0.005 A 
HETATM   31  C   UNK N   1      34.671  12.564  16.104  0.00  0.00     0.017 A 
HETATM   32  C   UNK N   1      34.468  12.124  14.796  0.00  0.00     0.089 A 
HETATM   33  N   UNK N   1      35.334  12.484  13.813  0.00  0.00    -0.352 N 
ATOM     34  HN  UNK N   1      35.176  12.147  12.863  1.00  0.00     0.166 HD
ENDBRANCH  26  28
ENDBRANCH  23  26
ENDBRANCH   1  23
TORSDOF 8
ENDMDL
MODEL 7
REMARK VINA RESULT:      -7.3      8.820     15.381
REMARK  8 active torsions:
REMARK  status: ('A' for Active; 'I' for Inactive)
REMARK    1  A    between atoms: C_1  and  S_2 
REMARK    2  A    between atoms: S_2  and  N_5 
REMARK    3  A    between atoms: N_5  and  C_10 
REMARK    4  A    between atoms: C_11  and  N_15 
REMARK    5  A    between atoms: N_19  and  C_22 
REMARK    6  A    between atoms: C_25  and  C_28 
REMARK    7  A    between atoms: C_27  and  O_29 
REMARK    8  A    between atoms: C_28  and  O_30 
ROOT
HETATM    1  C   UNK N   1      35.659  14.067  12.819  0.00  0.00     0.080 A 
HETATM    2  C   UNK N   1      35.689  15.406  12.418  0.00  0.00     0.027 A 
HETATM    3  C   UNK N   1      35.117  13.095  11.978  0.00  0.00     0.027 A 
HETATM    4  C   UNK N   1      35.188  15.776  11.170  0.00  0.00     0.032 A 
HETATM    5  C   UNK N   1      34.624  13.462  10.725  0.00  0.00     0.032 A 
HETATM    6  C   UNK N   1      34.658  14.806  10.316  0.00  0.00     0.048 A 
ENDROOT
BRANCH   6   7
HETATM    7  N   UNK N   1      34.195  15.186   9.034  0.00  0.00    -0.300 N 
HETATM    8  N   UNK N   1      33.503  16.213   8.891  0.00  0.00    -0.300 N 
ATOM      9  HN  UNK N   1      33.278  16.778   9.710  1.00  0.00     0.187 HD
ATOM     10  HN  UNK N   1      34.428  14.615   8.222  1.00  0.00     0.187 HD
BRANCH   8  11
HETATM   11  C   UNK N   1      33.024  16.615   7.624  0.00  0.00     0.049 A 
HETATM   12  C   UNK N   1      31.651  16.673   7.345  0.00  0.00     0.052 A 
HETATM   13  C   UNK N   1      31.194  17.086   6.084  0.00  0.00     0.072 A 
HETATM   14  C   UNK N   1      32.141  17.458   5.101  0.00  0.00     0.082 A 
HETATM   15  C   UNK N   1      33.506  17.398   5.388  0.00  0.00     0.040 A 
HETATM   16  C   UNK N   1      33.946  16.972   6.641  0.00  0.00     0.034 A 
BRANCH  13  17
HETATM   17  C   UNK N   1      29.733  17.111   5.824  0.00  0.00     0.179 C 
HETATM   18  O   UNK N   1      29.261  16.550   4.847  0.00  0.00    -0.646 OA
BRANCH  17  19
HETATM   19  O   UNK N   1      28.908  17.748   6.679  0.00  0.00    -0.773 OA
HETATM   20  H   UNK N   1      29.242  18.104   7.478  0.00  0.00     0.167 HD
ENDBRANCH  17  19
ENDBRANCH  13  17
BRANCH  14  21
HETATM   21  O   UNK N   1      31.753  17.871   3.882  0.00  0.00    -0.360 OA
HETATM   22  H   UNK N   1      32.043  18.699   3.550  0.00  0.00     0.217 HD
ENDBRANCH  14  21
ENDBRANCH   8  11
ENDBRANCH   6   7
BRANCH   1  23
HETATM   23  S   UNK N   1      36.284  13.633  14.428  0.00  0.00     0.264 S 
HETATM   24  O   UNK N   1      37.199  12.399  14.457  0.00  0.00    -0.200 OA
HETATM   25  O   UNK N   1      37.145  14.745  15.045  0.00  0.00    -0.200 OA
BRANCH  23  26
HETATM   26  N   UNK N   1      34.989  13.300  15.568  0.00  0.00    -0.266 N 
HETATM   27  H   UNK N   1      34.072  13.542  15.303  0.00  0.00     0.180 HD
BRANCH  26  28
HETATM   28  C   UNK N   1      35.167  12.709  16.841  0.00  0.00     0.114 A 
HETATM   29  C   UNK N   1      35.071  13.463  18.017  0.00  0.00     0.049 A 
HETATM   30  C   UNK N   1      35.232  12.831  19.250  0.00  0.00     0.005 A 
HETATM   31  C   UNK N   1      35.475  11.459  19.300  0.00  0.00     0.017 A 
HETATM   32  C   UNK N   1      35.569  10.740  18.108  0.00  0.00     0.089 A 
HETATM   33  N   UNK N   1      35.421  11.373  16.915  0.00  0.00    -0.352 N 
ATOM     34  HN  UNK N   1      35.500  10.835  16.053  1.00  0.00     0.166 HD
ENDBRANCH  26  28
ENDBRANCH  23  26
ENDBRANCH   1  23
TORSDOF 8
ENDMDL
MODEL 8
REMARK VINA RESULT:      -7.2      3.392     10.929
REMARK  8 active torsions:
REMARK  status: ('A' for Active; 'I' for Inactive)
REMARK    1  A    between atoms: C_1  and  S_2 
REMARK    2  A    between atoms: S_2  and  N_5 
REMARK    3  A    between atoms: N_5  and  C_10 
REMARK    4  A    between atoms: C_11  and  N_15 
REMARK    5  A    between atoms: N_19  and  C_22 
REMARK    6  A    between atoms: C_25  and  C_28 
REMARK    7  A    between atoms: C_27  and  O_29 
REMARK    8  A    between atoms: C_28  and  O_30 
ROOT
HETATM    1  C   UNK N   1      28.542  18.011   7.448  0.00  0.00     0.080 A 
HETATM    2  C   UNK N   1      27.915  16.841   7.010  0.00  0.00     0.027 A 
HETATM    3  C   UNK N   1      28.123  19.253   6.970  0.00  0.00     0.027 A 
HETATM    4  C   UNK N   1      26.859  16.909   6.101  0.00  0.00     0.032 A 
HETATM    5  C   UNK N   1      27.061  19.324   6.067  0.00  0.00     0.032 A 
HETATM    6  C   UNK N   1      26.424  18.150   5.629  0.00  0.00     0.048 A 
ENDROOT
BRANCH   6   7
HETATM    7  N   UNK N   1      25.323  18.210   4.743  0.00  0.00    -0.300 N 
HETATM    8  N   UNK N   1      24.158  18.107   5.175  0.00  0.00    -0.300 N 
ATOM      9  HN  UNK N   1      24.010  17.982   6.176  1.00  0.00     0.187 HD
ATOM     10  HN  UNK N   1      25.484  18.337   3.744  1.00  0.00     0.187 HD
BRANCH   8  11
HETATM   11  C   UNK N   1      23.039  18.159   4.314  0.00  0.00     0.049 A 
HETATM   12  C   UNK N   1      22.762  19.296   3.541  0.00  0.00     0.052 A 
HETATM   13  C   UNK N   1      21.653  19.324   2.682  0.00  0.00     0.072 A 
HETATM   14  C   UNK N   1      20.824  18.181   2.596  0.00  0.00     0.082 A 
HETATM   15  C   UNK N   1      21.108  17.053   3.369  0.00  0.00     0.040 A 
HETATM   16  C   UNK N   1      22.206  17.045   4.228  0.00  0.00     0.034 A 
BRANCH  13  17
HETATM   17  C   UNK N   1      21.384  20.556   1.899  0.00  0.00     0.179 C 
HETATM   18  O   UNK N   1      21.285  20.515   0.682  0.00  0.00    -0.646 OA
BRANCH  17  19
HETATM   19  O   UNK N   1      21.232  21.737   2.531  0.00  0.00    -0.773 OA
HETATM   20  H   UNK N   1      20.737  22.425   2.131  0.00  0.00     0.167 HD
ENDBRANCH  17  19
ENDBRANCH  13  17
BRANCH  14  21
HETATM   21  O   UNK N   1      19.757  18.155   1.780  0.00  0.00    -0.360 OA
HETATM   22  H   UNK N   1      19.813  17.736   0.943  0.00  0.00     0.217 HD
ENDBRANCH  14  21
ENDBRANCH   8  11
ENDBRANCH   6   7
BRANCH   1  23
HETATM   23  S   UNK N   1      29.902  17.887   8.589  0.00  0.00     0.264 S 
HETATM   24  O   UNK N   1      30.302  19.206   9.268  0.00  0.00    -0.200 OA
HETATM   25  O   UNK N   1      29.600  16.945   9.765  0.00  0.00    -0.200 OA
BRANCH  23  26
HETATM   26  N   UNK N   1      31.358  17.282   7.814  0.00  0.00    -0.266 N 
HETATM   27  H   UNK N   1      31.367  17.236   6.831  0.00  0.00     0.180 HD
BRANCH  26  28
HETATM   28  C   UNK N   1      32.519  16.856   8.500  0.00  0.00     0.114 A 
HETATM   29  C   UNK N   1      33.695  17.616   8.489  0.00  0.00     0.049 A 
HETATM   30  C   UNK N   1      34.808  17.166   9.200  0.00  0.00     0.005 A 
HETATM   31  C   UNK N   1      34.736  15.974   9.919  0.00  0.00     0.017 A 
HETATM   32  C   UNK N   1      33.549  15.240   9.905  0.00  0.00     0.089 A 
HETATM   33  N   UNK N   1      32.479  15.687   9.198  0.00  0.00    -0.352 N 
ATOM     34  HN  UNK N   1      31.622  15.135   9.191  1.00  0.00     0.166 HD
ENDBRANCH  26  28
ENDBRANCH  23  26
ENDBRANCH   1  23
TORSDOF 8
ENDMDL
MODEL 9
REMARK VINA RESULT:      -7.0      6.888     13.247
REMARK  8 active torsions:
REMARK  status: ('A' for Active; 'I' for Inactive)
REMARK    1  A    between atoms: C_1  and  S_2 
REMARK    2  A    between atoms: S_2  and  N_5 
REMARK    3  A    between atoms: N_5  and  C_10 
REMARK    4  A    between atoms: C_11  and  N_15 
REMARK    5  A    between atoms: N_19  and  C_22 
REMARK    6  A    between atoms: C_25  and  C_28 
REMARK    7  A    between atoms: C_27  and  O_29 
REMARK    8  A    between atoms: C_28  and  O_30 
ROOT
HETATM    1  C   UNK N   1      34.310  15.845   9.664  0.00  0.00     0.080 A 
HETATM    2  C   UNK N   1      34.414  17.124   9.112  0.00  0.00     0.027 A 
HETATM    3  C   UNK N   1      33.157  15.085   9.461  0.00  0.00     0.027 A 
HETATM    4  C   UNK N   1      33.371  17.645   8.346  0.00  0.00     0.032 A 
HETATM    5  C   UNK N   1      32.116  15.601   8.687  0.00  0.00     0.032 A 
HETATM    6  C   UNK N   1      32.220  16.886   8.126  0.00  0.00     0.048 A 
ENDROOT
BRANCH   6   7
HETATM    7  N   UNK N   1      31.188  17.406   7.310  0.00  0.00    -0.300 N 
HETATM    8  N   UNK N   1      30.028  17.515   7.752  0.00  0.00    -0.300 N 
ATOM      9  HN  UNK N   1      29.832  17.228   8.710  1.00  0.00     0.187 HD
ATOM     10  HN  UNK N   1      31.395  17.692   6.353  1.00  0.00     0.187 HD
BRANCH   8  11
HETATM   11  C   UNK N   1      28.977  18.028   6.958  0.00  0.00     0.049 A 
HETATM   12  C   UNK N   1      28.291  19.197   7.316  0.00  0.00     0.052 A 
HETATM   13  C   UNK N   1      27.258  19.697   6.509  0.00  0.00     0.072 A 
HETATM   14  C   UNK N   1      26.927  19.010   5.317  0.00  0.00     0.082 A 
HETATM   15  C   UNK N   1      27.616  17.846   4.968  0.00  0.00     0.040 A 
HETATM   16  C   UNK N   1      28.630  17.354   5.787  0.00  0.00     0.034 A 
BRANCH  13  17
HETATM   17  C   UNK N   1      26.544  20.926   6.938  0.00  0.00     0.179 C 
HETATM   18  O   UNK N   1      26.474  21.898   6.202  0.00  0.00    -0.646 OA
BRANCH  17  19
HETATM   19  O   UNK N   1      25.950  20.972   8.147  0.00  0.00    -0.773 OA
HETATM   20  H   UNK N   1      25.204  21.523   8.284  0.00  0.00     0.167 HD
ENDBRANCH  17  19
ENDBRANCH  13  17
BRANCH  14  21
HETATM   21  O   UNK N   1      25.953  19.455   4.505  0.00  0.00    -0.360 OA
HETATM   22  H   UNK N   1      25.613  18.901   3.830  0.00  0.00     0.217 HD
ENDBRANCH  14  21
ENDBRANCH   8  11
ENDBRANCH   6   7
BRANCH   1  23
HETATM   23  S   UNK N   1      35.648  15.220  10.656  0.00  0.00     0.264 S 
HETATM   24  O   UNK N   1      36.313  13.943  10.118  0.00  0.00    -0.200 OA
HETATM   25  O   UNK N   1      36.809  16.218  10.775  0.00  0.00    -0.200 OA
BRANCH  23  26
HETATM   26  N   UNK N   1      35.132  14.841  12.293  0.00  0.00    -0.266 N 
HETATM   27  H   UNK N   1      34.464  15.432  12.709  0.00  0.00     0.180 HD
BRANCH  26  28
HETATM   28  C   UNK N   1      35.607  13.749  13.056  0.00  0.00     0.114 A 
HETATM   29  C   UNK N   1      35.016  12.483  12.966  0.00  0.00     0.049 A 
HETATM   30  C   UNK N   1      35.534  11.430  13.722  0.00  0.00     0.005 A 
HETATM   31  C   UNK N   1      36.637  11.646  14.547  0.00  0.00     0.017 A 
HETATM   32  C   UNK N   1      37.198  12.922  14.614  0.00  0.00     0.089 A 
HETATM   33  N   UNK N   1      36.674  13.938  13.880  0.00  0.00    -0.352 N 
ATOM     34  HN  UNK N   1      37.091  14.866  13.947  1.00  0.00     0.166 HD
ENDBRANCH  26  28
ENDBRANCH  23  26
ENDBRANCH   1  23
TORSDOF 8
ENDMDL
