REMARK  3 active torsions:
REMARK  status: ('A' for Active; 'I' for Inactive)
REMARK    1  A    between atoms: C_4  and  C_7 
REMARK    2  A    between atoms: C_5  and  N_10 
REMARK       I    between atoms: C_7  and  N_9 
REMARK    3  A    between atoms: N_12  and  N_14 
ROOT
HETATM    1  C   UNK N   1      -2.784  -1.893  -0.000  0.00  0.00     0.182 A 
HETATM    2  N   UNK N   1      -3.210  -0.607  -0.000  0.00  0.00    -0.345 N 
ATOM      3  HN  UNK N   1      -4.174  -0.274  -0.000  1.00  0.00     0.167 HD
HETATM    4  C   UNK N   1      -2.090   0.136  -0.000  0.00  0.00     0.147 A 
HETATM    5  C   UNK N   1      -1.010  -0.704   0.000  0.00  0.00     0.155 A 
HETATM    6  N   UNK N   1      -1.432  -1.980   0.000  0.00  0.00    -0.335 N 
HETATM    7  H   UNK N   1      -0.881  -2.796   0.000  0.00  0.00     0.168 HD
ENDROOT
BRANCH   5   8
HETATM    8  N   UNK N   1       0.343  -0.296   0.000  0.00  0.00    -0.269 N 
HETATM    9  N   UNK N   1       1.275  -1.122   0.000  0.00  0.00    -0.244 N 
ATOM     10  HN  UNK N   1       1.065  -2.121   0.000  1.00  0.00     0.208 HD
ATOM     11  HN  UNK N   1       0.562   0.700   0.000  1.00  0.00     0.190 HD
BRANCH   9  12
HETATM   12  N   UNK N   1       2.585  -0.699   0.000  0.00  0.00    -0.322 N 
HETATM   13  C   UNK N   1       2.915   0.706  -0.000  0.00  0.00     0.172 C 
HETATM   14  C   UNK N   1       3.645  -1.667  -0.000  0.00  0.00     0.172 C 
ENDBRANCH   9  12
ENDBRANCH   5   8
BRANCH   4  15
HETATM   15  C   UNK N   1      -2.062   1.610  -0.000  0.00  0.00     0.269 C 
HETATM   16  O   UNK N   1      -0.995   2.206   0.000  0.00  0.00    -0.266 OA
HETATM   17  N   UNK N   1      -3.213   2.309  -0.000  0.00  0.00    -0.365 N 
HETATM   18  H   UNK N   1      -3.192   3.293  -0.000  0.00  0.00     0.159 HD
HETATM   19  H   UNK N   1      -4.076   1.835  -0.000  0.00  0.00     0.159 HD
ENDBRANCH   4  15
TORSDOF 3
