MODEL 1
REMARK VINA RESULT:      -4.3      0.000      0.000
REMARK  7 active torsions:
REMARK  status: ('A' for Active; 'I' for Inactive)
REMARK    1  A    between atoms: C_2  and  C_1 
REMARK    2  A    between atoms: N_7  and  C_1 
REMARK    3  A    between atoms: C_3  and  C_2 
REMARK    4  A    between atoms: C_4  and  C_3 
REMARK    5  A    between atoms: C_5  and  C_4 
REMARK    6  A    between atoms: C_4  and  N_8 
REMARK    7  A    between atoms: O_9  and  C_5 
ROOT
HETATM    1  C   UNK N   1      33.846  17.323   8.955  0.00  0.00     0.173 C 
ENDROOT
BRANCH   1   2
HETATM    2  C   UNK N   1      32.470  16.690   8.751  0.00  0.00     0.037 C 
BRANCH   2   3
HETATM    3  C   UNK N   1      31.381  17.625   8.238  0.00  0.00     0.021 C 
BRANCH   3   4
HETATM    4  C   UNK N   1      30.050  17.486   8.990  0.00  0.00     0.111 C 
BRANCH   4   5
HETATM    5  N   UNK N   1      29.888  18.465  10.056  0.00  0.00    -0.430 N 
HETATM    6  H   UNK N   1      29.374  19.329   9.883  0.00  0.00     0.149 HD
HETATM    7  H   UNK N   1      30.290  18.288  10.977  0.00  0.00     0.149 HD
ENDBRANCH   4   5
ENDBRANCH   3   4
ENDBRANCH   2   3
ENDBRANCH   1   2
BRANCH   1   8
HETATM    8  C   UNK N   1      34.579  18.271   8.042  0.00  0.00     0.163 C 
HETATM    9  O   UNK N   1      35.253  19.181   8.494  0.00  0.00    -0.648 OA
BRANCH   8  10
HETATM   10  O   UNK N   1      34.488  18.111   6.707  0.00  0.00    -0.775 OA
HETATM   11  H   UNK N   1      33.696  18.334   6.260  0.00  0.00     0.167 HD
ENDBRANCH   8  10
ENDBRANCH   1   8
BRANCH   1  12
HETATM   12  N   UNK N   1      34.519  16.957  10.186  0.00  0.00    -0.418 N 
HETATM   13  H   UNK N   1      34.385  16.028  10.584  0.00  0.00     0.150 HD
HETATM   14  H   UNK N   1      35.128  17.630  10.654  0.00  0.00     0.150 HD
ENDBRANCH   1  12
TORSDOF 7
ENDMDL
MODEL 2
REMARK VINA RESULT:      -4.2      1.627      1.701
REMARK  7 active torsions:
REMARK  status: ('A' for Active; 'I' for Inactive)
REMARK    1  A    between atoms: C_2  and  C_1 
REMARK    2  A    between atoms: N_7  and  C_1 
REMARK    3  A    between atoms: C_3  and  C_2 
REMARK    4  A    between atoms: C_4  and  C_3 
REMARK    5  A    between atoms: C_5  and  C_4 
REMARK    6  A    between atoms: C_4  and  N_8 
REMARK    7  A    between atoms: O_9  and  C_5 
ROOT
HETATM    1  C   UNK N   1      33.913  17.277   8.959  0.00  0.00     0.173 C 
ENDROOT
BRANCH   1   2
HETATM    2  C   UNK N   1      32.607  16.508   8.763  0.00  0.00     0.037 C 
BRANCH   2   3
HETATM    3  C   UNK N   1      31.379  17.357   8.457  0.00  0.00     0.021 C 
BRANCH   3   4
HETATM    4  C   UNK N   1      30.741  17.044   7.096  0.00  0.00     0.111 C 
BRANCH   4   5
HETATM    5  N   UNK N   1      31.684  17.129   5.988  0.00  0.00    -0.430 N 
HETATM    6  H   UNK N   1      32.202  16.301   5.694  0.00  0.00     0.149 HD
HETATM    7  H   UNK N   1      31.827  18.017   5.507  0.00  0.00     0.149 HD
ENDBRANCH   4   5
ENDBRANCH   3   4
ENDBRANCH   2   3
ENDBRANCH   1   2
BRANCH   1   8
HETATM    8  C   UNK N   1      34.545  18.287   8.037  0.00  0.00     0.163 C 
HETATM    9  O   UNK N   1      35.179  19.229   8.480  0.00  0.00    -0.648 OA
BRANCH   8  10
HETATM   10  O   UNK N   1      34.408  18.147   6.704  0.00  0.00    -0.775 OA
HETATM   11  H   UNK N   1      34.923  18.670   6.121  0.00  0.00     0.167 HD
ENDBRANCH   8  10
ENDBRANCH   1   8
BRANCH   1  12
HETATM   12  N   UNK N   1      34.622  16.990  10.191  0.00  0.00    -0.418 N 
HETATM   13  H   UNK N   1      35.422  16.357  10.183  0.00  0.00     0.150 HD
HETATM   14  H   UNK N   1      34.321  17.422  11.065  0.00  0.00     0.150 HD
ENDBRANCH   1  12
TORSDOF 7
ENDMDL
MODEL 3
REMARK VINA RESULT:      -4.2     14.134     14.994
REMARK  7 active torsions:
REMARK  status: ('A' for Active; 'I' for Inactive)
REMARK    1  A    between atoms: C_2  and  C_1 
REMARK    2  A    between atoms: N_7  and  C_1 
REMARK    3  A    between atoms: C_3  and  C_2 
REMARK    4  A    between atoms: C_4  and  C_3 
REMARK    5  A    between atoms: C_5  and  C_4 
REMARK    6  A    between atoms: C_4  and  N_8 
REMARK    7  A    between atoms: O_9  and  C_5 
ROOT
HETATM    1  C   UNK N   1      20.256  19.012   2.012  0.00  0.00     0.173 C 
ENDROOT
BRANCH   1   2
HETATM    2  C   UNK N   1      20.831  17.636   2.344  0.00  0.00     0.037 C 
BRANCH   2   3
HETATM    3  C   UNK N   1      20.166  16.456   1.646  0.00  0.00     0.021 C 
BRANCH   3   4
HETATM    4  C   UNK N   1      19.783  16.743   0.187  0.00  0.00     0.111 C 
BRANCH   4   5
HETATM    5  N   UNK N   1      18.370  16.523  -0.088  0.00  0.00    -0.430 N 
HETATM    6  H   UNK N   1      18.080  15.740  -0.677  0.00  0.00     0.149 HD
HETATM    7  H   UNK N   1      17.669  17.149   0.306  0.00  0.00     0.149 HD
ENDBRANCH   4   5
ENDBRANCH   3   4
ENDBRANCH   2   3
ENDBRANCH   1   2
BRANCH   1   8
HETATM    8  C   UNK N   1      20.926  20.152   1.289  0.00  0.00     0.163 C 
HETATM    9  O   UNK N   1      21.767  20.837   1.845  0.00  0.00    -0.648 OA
BRANCH   8  10
HETATM   10  O   UNK N   1      20.592  20.417   0.012  0.00  0.00    -0.775 OA
HETATM   11  H   UNK N   1      19.747  20.174  -0.313  0.00  0.00     0.167 HD
ENDBRANCH   8  10
ENDBRANCH   1   8
BRANCH   1  12
HETATM   12  N   UNK N   1      18.892  19.237   2.453  0.00  0.00    -0.418 N 
HETATM   13  H   UNK N   1      18.112  19.005   1.838  0.00  0.00     0.150 HD
HETATM   14  H   UNK N   1      18.713  19.626   3.379  0.00  0.00     0.150 HD
ENDBRANCH   1  12
TORSDOF 7
ENDMDL
MODEL 4
REMARK VINA RESULT:      -4.1      4.336      5.724
REMARK  7 active torsions:
REMARK  status: ('A' for Active; 'I' for Inactive)
REMARK    1  A    between atoms: C_2  and  C_1 
REMARK    2  A    between atoms: N_7  and  C_1 
REMARK    3  A    between atoms: C_3  and  C_2 
REMARK    4  A    between atoms: C_4  and  C_3 
REMARK    5  A    between atoms: C_5  and  C_4 
REMARK    6  A    between atoms: C_4  and  N_8 
REMARK    7  A    between atoms: O_9  and  C_5 
ROOT
HETATM    1  C   UNK N   1      34.701  14.989  10.943  0.00  0.00     0.173 C 
ENDROOT
BRANCH   1   2
HETATM    2  C   UNK N   1      35.103  13.561  11.309  0.00  0.00     0.037 C 
BRANCH   2   3
HETATM    3  C   UNK N   1      35.152  13.249  12.799  0.00  0.00     0.021 C 
BRANCH   3   4
HETATM    4  C   UNK N   1      36.541  13.449  13.422  0.00  0.00     0.111 C 
BRANCH   4   5
HETATM    5  N   UNK N   1      36.753  14.799  13.928  0.00  0.00    -0.430 N 
HETATM    6  H   UNK N   1      37.288  15.472  13.378  0.00  0.00     0.149 HD
HETATM    7  H   UNK N   1      36.367  15.072  14.831  0.00  0.00     0.149 HD
ENDBRANCH   4   5
ENDBRANCH   3   4
ENDBRANCH   2   3
ENDBRANCH   1   2
BRANCH   1   8
HETATM    8  C   UNK N   1      35.590  16.195  10.785  0.00  0.00     0.163 C 
HETATM    9  O   UNK N   1      35.123  17.283  10.493  0.00  0.00    -0.648 OA
BRANCH   8  10
HETATM   10  O   UNK N   1      36.918  16.069  10.969  0.00  0.00    -0.775 OA
HETATM   11  H   UNK N   1      37.255  15.824  11.808  0.00  0.00     0.167 HD
ENDBRANCH   8  10
ENDBRANCH   1   8
BRANCH   1  12
HETATM   12  N   UNK N   1      33.282  15.195  10.723  0.00  0.00    -0.418 N 
HETATM   13  H   UNK N   1      32.890  16.136  10.772  0.00  0.00     0.150 HD
HETATM   14  H   UNK N   1      32.676  14.400  10.519  0.00  0.00     0.150 HD
ENDBRANCH   1  12
TORSDOF 7
ENDMDL
MODEL 5
REMARK VINA RESULT:      -4.0     14.271     14.893
REMARK  7 active torsions:
REMARK  status: ('A' for Active; 'I' for Inactive)
REMARK    1  A    between atoms: C_2  and  C_1 
REMARK    2  A    between atoms: N_7  and  C_1 
REMARK    3  A    between atoms: C_3  and  C_2 
REMARK    4  A    between atoms: C_4  and  C_3 
REMARK    5  A    between atoms: C_5  and  C_4 
REMARK    6  A    between atoms: C_4  and  N_8 
REMARK    7  A    between atoms: O_9  and  C_5 
ROOT
HETATM    1  C   UNK N   1      19.863  17.464   2.113  0.00  0.00     0.173 C 
ENDROOT
BRANCH   1   2
HETATM    2  C   UNK N   1      19.668  18.889   2.629  0.00  0.00     0.037 C 
BRANCH   2   3
HETATM    3  C   UNK N   1      20.926  19.746   2.695  0.00  0.00     0.021 C 
BRANCH   3   4
HETATM    4  C   UNK N   1      20.853  21.010   1.827  0.00  0.00     0.111 C 
BRANCH   4   5
HETATM    5  N   UNK N   1      20.470  20.737   0.448  0.00  0.00    -0.430 N 
HETATM    6  H   UNK N   1      19.770  20.023   0.244  0.00  0.00     0.149 HD
HETATM    7  H   UNK N   1      20.901  21.259  -0.314  0.00  0.00     0.149 HD
ENDBRANCH   4   5
ENDBRANCH   3   4
ENDBRANCH   2   3
ENDBRANCH   1   2
BRANCH   1   8
HETATM    8  C   UNK N   1      20.315  17.024   0.745  0.00  0.00     0.163 C 
HETATM    9  O   UNK N   1      20.706  15.886   0.551  0.00  0.00    -0.648 OA
BRANCH   8  10
HETATM   10  O   UNK N   1      20.286  17.899  -0.278  0.00  0.00    -0.775 OA
HETATM   11  H   UNK N   1      19.946  17.638  -1.111  0.00  0.00     0.167 HD
ENDBRANCH   8  10
ENDBRANCH   1   8
BRANCH   1  12
HETATM   12  N   UNK N   1      19.572  16.413   3.069  0.00  0.00    -0.418 N 
HETATM   13  H   UNK N   1      19.216  15.513   2.746  0.00  0.00     0.150 HD
HETATM   14  H   UNK N   1      19.723  16.574   4.065  0.00  0.00     0.150 HD
ENDBRANCH   1  12
TORSDOF 7
ENDMDL
MODEL 6
REMARK VINA RESULT:      -4.0      2.553      4.436
REMARK  7 active torsions:
REMARK  status: ('A' for Active; 'I' for Inactive)
REMARK    1  A    between atoms: C_2  and  C_1 
REMARK    2  A    between atoms: N_7  and  C_1 
REMARK    3  A    between atoms: C_3  and  C_2 
REMARK    4  A    between atoms: C_4  and  C_3 
REMARK    5  A    between atoms: C_5  and  C_4 
REMARK    6  A    between atoms: C_4  and  N_8 
REMARK    7  A    between atoms: O_9  and  C_5 
ROOT
HETATM    1  C   UNK N   1      34.460  17.187   9.313  0.00  0.00     0.173 C 
ENDROOT
BRANCH   1   2
HETATM    2  C   UNK N   1      35.319  16.761  10.503  0.00  0.00     0.037 C 
BRANCH   2   3
HETATM    3  C   UNK N   1      36.070  15.446  10.338  0.00  0.00     0.021 C 
BRANCH   3   4
HETATM    4  C   UNK N   1      36.074  14.579  11.605  0.00  0.00     0.111 C 
BRANCH   4   5
HETATM    5  N   UNK N   1      37.287  13.786  11.754  0.00  0.00    -0.430 N 
HETATM    6  H   UNK N   1      37.433  13.229  12.597  0.00  0.00     0.149 HD
HETATM    7  H   UNK N   1      37.991  13.788  11.017  0.00  0.00     0.149 HD
ENDBRANCH   4   5
ENDBRANCH   3   4
ENDBRANCH   2   3
ENDBRANCH   1   2
BRANCH   1   8
HETATM    8  C   UNK N   1      34.767  18.227   8.267  0.00  0.00     0.163 C 
HETATM    9  O   UNK N   1      35.317  19.273   8.567  0.00  0.00    -0.648 OA
BRANCH   8  10
HETATM   10  O   UNK N   1      34.431  17.998   6.983  0.00  0.00    -0.775 OA
HETATM   11  H   UNK N   1      34.077  18.690   6.460  0.00  0.00     0.167 HD
ENDBRANCH   8  10
ENDBRANCH   1   8
BRANCH   1  12
HETATM   12  N   UNK N   1      33.191  16.495   9.185  0.00  0.00    -0.418 N 
HETATM   13  H   UNK N   1      32.934  15.773   9.859  0.00  0.00     0.150 HD
HETATM   14  H   UNK N   1      32.556  16.730   8.422  0.00  0.00     0.150 HD
ENDBRANCH   1  12
TORSDOF 7
ENDMDL
MODEL 7
REMARK VINA RESULT:      -4.0     11.034     11.837
REMARK  7 active torsions:
REMARK  status: ('A' for Active; 'I' for Inactive)
REMARK    1  A    between atoms: C_2  and  C_1 
REMARK    2  A    between atoms: N_7  and  C_1 
REMARK    3  A    between atoms: C_3  and  C_2 
REMARK    4  A    between atoms: C_4  and  C_3 
REMARK    5  A    between atoms: C_5  and  C_4 
REMARK    6  A    between atoms: C_4  and  N_8 
REMARK    7  A    between atoms: O_9  and  C_5 
ROOT
HETATM    1  C   UNK N   1      22.790  12.085  11.331  0.00  0.00     0.173 C 
ENDROOT
BRANCH   1   2
HETATM    2  C   UNK N   1      21.445  12.384  10.671  0.00  0.00     0.037 C 
BRANCH   2   3
HETATM    3  C   UNK N   1      21.354  13.710   9.926  0.00  0.00     0.021 C 
BRANCH   3   4
HETATM    4  C   UNK N   1      21.195  13.550   8.407  0.00  0.00     0.111 C 
BRANCH   4   5
HETATM    5  N   UNK N   1      21.701  12.278   7.909  0.00  0.00    -0.430 N 
HETATM    6  H   UNK N   1      22.597  12.240   7.422  0.00  0.00     0.149 HD
HETATM    7  H   UNK N   1      21.160  11.424   8.047  0.00  0.00     0.149 HD
ENDBRANCH   4   5
ENDBRANCH   3   4
ENDBRANCH   2   3
ENDBRANCH   1   2
BRANCH   1   8
HETATM    8  C   UNK N   1      24.166  12.176  10.723  0.00  0.00     0.163 C 
HETATM    9  O   UNK N   1      24.345  11.938   9.541  0.00  0.00    -0.648 OA
BRANCH   8  10
HETATM   10  O   UNK N   1      25.212  12.525  11.496  0.00  0.00    -0.775 OA
HETATM   11  H   UNK N   1      25.888  13.076  11.151  0.00  0.00     0.167 HD
ENDBRANCH   8  10
ENDBRANCH   1   8
BRANCH   1  12
HETATM   12  N   UNK N   1      22.721  11.662  12.716  0.00  0.00    -0.418 N 
HETATM   13  H   UNK N   1      21.853  11.276  13.089  0.00  0.00     0.150 HD
HETATM   14  H   UNK N   1      23.539  11.750  13.318  0.00  0.00     0.150 HD
ENDBRANCH   1  12
TORSDOF 7
ENDMDL
MODEL 8
REMARK VINA RESULT:      -4.0     11.149     11.854
REMARK  7 active torsions:
REMARK  status: ('A' for Active; 'I' for Inactive)
REMARK    1  A    between atoms: C_2  and  C_1 
REMARK    2  A    between atoms: N_7  and  C_1 
REMARK    3  A    between atoms: C_3  and  C_2 
REMARK    4  A    between atoms: C_4  and  C_3 
REMARK    5  A    between atoms: C_5  and  C_4 
REMARK    6  A    between atoms: C_4  and  N_8 
REMARK    7  A    between atoms: O_9  and  C_5 
ROOT
HETATM    1  C   UNK N   1      23.919  12.096  10.961  0.00  0.00     0.173 C 
ENDROOT
BRANCH   1   2
HETATM    2  C   UNK N   1      23.487  11.686   9.554  0.00  0.00     0.037 C 
BRANCH   2   3
HETATM    3  C   UNK N   1      22.849  12.785   8.712  0.00  0.00     0.021 C 
BRANCH   3   4
HETATM    4  C   UNK N   1      21.327  12.885   8.885  0.00  0.00     0.111 C 
BRANCH   4   5
HETATM    5  N   UNK N   1      20.931  13.771   9.971  0.00  0.00    -0.430 N 
HETATM    6  H   UNK N   1      21.138  13.517  10.938  0.00  0.00     0.149 HD
HETATM    7  H   UNK N   1      20.446  14.644   9.767  0.00  0.00     0.149 HD
ENDBRANCH   4   5
ENDBRANCH   3   4
ENDBRANCH   2   3
ENDBRANCH   1   2
BRANCH   1   8
HETATM    8  C   UNK N   1      23.152  11.948  12.250  0.00  0.00     0.163 C 
HETATM    9  O   UNK N   1      23.715  12.042  13.327  0.00  0.00    -0.648 OA
BRANCH   8  10
HETATM   10  O   UNK N   1      21.827  11.710  12.211  0.00  0.00    -0.775 OA
HETATM   11  H   UNK N   1      21.510  10.830  12.161  0.00  0.00     0.167 HD
ENDBRANCH   8  10
ENDBRANCH   1   8
BRANCH   1  12
HETATM   12  N   UNK N   1      25.234  12.700  11.054  0.00  0.00    -0.418 N 
HETATM   13  H   UNK N   1      26.054  12.191  10.724  0.00  0.00     0.150 HD
HETATM   14  H   UNK N   1      25.338  13.635  11.448  0.00  0.00     0.150 HD
ENDBRANCH   1  12
TORSDOF 7
ENDMDL
MODEL 9
REMARK VINA RESULT:      -3.9      2.217      3.182
REMARK  7 active torsions:
REMARK  status: ('A' for Active; 'I' for Inactive)
REMARK    1  A    between atoms: C_2  and  C_1 
REMARK    2  A    between atoms: N_7  and  C_1 
REMARK    3  A    between atoms: C_3  and  C_2 
REMARK    4  A    between atoms: C_4  and  C_3 
REMARK    5  A    between atoms: C_5  and  C_4 
REMARK    6  A    between atoms: C_4  and  N_8 
REMARK    7  A    between atoms: O_9  and  C_5 
ROOT
HETATM    1  C   UNK N   1      33.989  17.222   8.990  0.00  0.00     0.173 C 
ENDROOT
BRANCH   1   2
HETATM    2  C   UNK N   1      34.701  16.189   9.862  0.00  0.00     0.037 C 
BRANCH   2   3
HETATM    3  C   UNK N   1      33.856  15.000  10.302  0.00  0.00     0.021 C 
BRANCH   3   4
HETATM    4  C   UNK N   1      33.811  13.865   9.269  0.00  0.00     0.111 C 
BRANCH   4   5
HETATM    5  N   UNK N   1      32.493  13.257   9.142  0.00  0.00    -0.430 N 
HETATM    6  H   UNK N   1      32.407  12.274   8.881  0.00  0.00     0.149 HD
HETATM    7  H   UNK N   1      31.656  13.814   9.314  0.00  0.00     0.149 HD
ENDBRANCH   4   5
ENDBRANCH   3   4
ENDBRANCH   2   3
ENDBRANCH   1   2
BRANCH   1   8
HETATM    8  C   UNK N   1      34.602  18.251   8.076  0.00  0.00     0.163 C 
HETATM    9  O   UNK N   1      35.257  19.176   8.525  0.00  0.00    -0.648 OA
BRANCH   8  10
HETATM   10  O   UNK N   1      34.425  18.147   6.745  0.00  0.00    -0.775 OA
HETATM   11  H   UNK N   1      35.155  17.965   6.186  0.00  0.00     0.167 HD
ENDBRANCH   8  10
ENDBRANCH   1   8
BRANCH   1  12
HETATM   12  N   UNK N   1      32.540  17.197   9.059  0.00  0.00    -0.418 N 
HETATM   13  H   UNK N   1      32.006  18.043   8.858  0.00  0.00     0.150 HD
HETATM   14  H   UNK N   1      32.056  16.335   9.308  0.00  0.00     0.150 HD
ENDBRANCH   1  12
TORSDOF 7
ENDMDL
