MODEL 1
REMARK VINA RESULT:      -7.6      0.000      0.000
REMARK  5 active torsions:
REMARK  status: ('A' for Active; 'I' for Inactive)
REMARK    1  A    between atoms: C_4  and  O_21 
REMARK    2  A    between atoms: C_8  and  O_19 
REMARK    3  A    between atoms: N_12  and  C_22 
REMARK    4  A    between atoms: C_13  and  O_14 
REMARK    5  A    between atoms: C_22  and  C_23 
ROOT
HETATM    1  C   UNK N   1      31.666  17.670   8.131  0.00  0.00    -0.046 A 
HETATM    2  C   UNK N   1      31.101  16.911   7.122  0.00  0.00    -0.001 A 
HETATM    3  C   UNK N   1      29.415  18.485   8.616  0.00  0.00     0.040 A 
HETATM    4  C   UNK N   1      28.902  17.716   7.546  0.00  0.00     0.099 A 
HETATM    5  C   UNK N   1      29.796  16.942   6.809  0.00  0.00     0.110 A 
HETATM    6  C   UNK N   1      30.807  18.478   8.897  0.00  0.00     0.011 A 
HETATM    7  C   UNK N   1      30.761  15.881   5.082  0.00  0.00     0.174 C 
HETATM    8  C   UNK N   1      30.962  17.005   4.033  0.00  0.00     0.148 C 
HETATM    9  C   UNK N   1      32.404  17.435   3.764  0.00  0.00     0.037 C 
HETATM   10  C   UNK N   1      33.104  17.800   5.075  0.00  0.00     0.044 C 
HETATM   11  C   UNK N   1      33.929  16.723   7.273  0.00  0.00     0.262 C 
HETATM   12  N   UNK N   1      34.110  15.373   7.820  0.00  0.00     0.096 N 
HETATM   13  C   UNK N   1      33.214  16.529   5.907  0.00  0.00     0.103 C 
HETATM   14  C   UNK N   1      33.174  17.668   8.285  0.00  0.00     0.078 C 
HETATM   15  C   UNK N   1      31.812  15.984   6.243  0.00  0.00     0.054 C 
HETATM   16  C   UNK N   1      31.932  14.631   6.995  0.00  0.00     0.050 C 
HETATM   17  C   UNK N   1      32.859  14.733   8.221  0.00  0.00     0.274 C 
HETATM   18  O   UNK N   1      29.553  16.205   5.714  0.00  0.00    -0.339 OA
ENDROOT
BRANCH  12  19
HETATM   19  C   UNK N   1      35.176  15.294   8.803  0.00  0.00     0.277 C 
BRANCH  19  20
HETATM   20  C   UNK N   1      34.543  15.287  10.195  0.00  0.00     0.014 A 
HETATM   21  C   UNK N   1      35.101  14.157  11.047  0.00  0.00     0.006 A 
HETATM   22  C   UNK N   1      35.805  15.163  11.930  0.00  0.00     0.001 A 
HETATM   23  C   UNK N   1      35.238  16.292  11.090  0.00  0.00     0.006 A 
ENDBRANCH  19  20
ENDBRANCH  12  19
BRANCH  13  24
HETATM   24  O   UNK N   1      33.930  15.587   5.152  0.00  0.00    -0.386 OA
HETATM   25  H   UNK N   1      34.145  15.671   4.211  0.00  0.00     0.210 HD
ENDBRANCH  13  24
BRANCH   8  26
HETATM   26  O   UNK N   1      30.326  16.665   2.839  0.00  0.00    -0.393 OA
HETATM   27  H   UNK N   1      29.984  17.333   2.225  0.00  0.00     0.210 HD
ENDBRANCH   8  26
BRANCH   4  28
HETATM   28  O   UNK N   1      27.597  17.752   7.235  0.00  0.00    -0.358 OA
HETATM   29  H   UNK N   1      26.940  17.379   7.789  0.00  0.00     0.217 HD
ENDBRANCH   4  28
TORSDOF 5
ENDMDL
MODEL 2
REMARK VINA RESULT:      -7.4      8.889     11.484
REMARK  5 active torsions:
REMARK  status: ('A' for Active; 'I' for Inactive)
REMARK    1  A    between atoms: C_4  and  O_21 
REMARK    2  A    between atoms: C_8  and  O_19 
REMARK    3  A    between atoms: N_12  and  C_22 
REMARK    4  A    between atoms: C_13  and  O_14 
REMARK    5  A    between atoms: C_22  and  C_23 
ROOT
HETATM    1  C   UNK N   1      23.381  16.708   4.290  0.00  0.00    -0.046 A 
HETATM    2  C   UNK N   1      22.637  17.867   4.163  0.00  0.00    -0.001 A 
HETATM    3  C   UNK N   1      25.345  18.048   3.730  0.00  0.00     0.040 A 
HETATM    4  C   UNK N   1      24.526  19.191   3.578  0.00  0.00     0.099 A 
HETATM    5  C   UNK N   1      23.157  19.049   3.796  0.00  0.00     0.110 A 
HETATM    6  C   UNK N   1      24.767  16.796   4.068  0.00  0.00     0.011 A 
HETATM    7  C   UNK N   1      20.939  19.332   3.610  0.00  0.00     0.174 C 
HETATM    8  C   UNK N   1      20.664  19.072   2.107  0.00  0.00     0.148 C 
HETATM    9  C   UNK N   1      19.899  17.793   1.766  0.00  0.00     0.037 C 
HETATM   10  C   UNK N   1      20.581  16.579   2.401  0.00  0.00     0.044 C 
HETATM   11  C   UNK N   1      21.093  15.551   4.714  0.00  0.00     0.262 C 
HETATM   12  N   UNK N   1      20.706  15.775   6.112  0.00  0.00     0.096 N 
HETATM   13  C   UNK N   1      20.465  16.724   3.912  0.00  0.00     0.103 C 
HETATM   14  C   UNK N   1      22.656  15.404   4.556  0.00  0.00     0.078 C 
HETATM   15  C   UNK N   1      21.198  17.994   4.388  0.00  0.00     0.054 C 
HETATM   16  C   UNK N   1      20.982  18.195   5.912  0.00  0.00     0.050 C 
HETATM   17  C   UNK N   1      21.354  16.937   6.719  0.00  0.00     0.274 C 
HETATM   18  O   UNK N   1      22.189  19.964   3.634  0.00  0.00    -0.339 OA
ENDROOT
BRANCH  12  19
HETATM   19  C   UNK N   1      20.748  14.567   6.917  0.00  0.00     0.277 C 
BRANCH  19  20
HETATM   20  C   UNK N   1      21.239  14.941   8.316  0.00  0.00     0.014 A 
HETATM   21  C   UNK N   1      20.188  14.623   9.370  0.00  0.00     0.006 A 
HETATM   22  C   UNK N   1      21.062  13.516   9.915  0.00  0.00     0.001 A 
HETATM   23  C   UNK N   1      22.116  13.840   8.874  0.00  0.00     0.006 A 
ENDBRANCH  19  20
ENDBRANCH  12  19
BRANCH  13  24
HETATM   24  O   UNK N   1      19.100  16.808   4.228  0.00  0.00    -0.386 OA
HETATM   25  H   UNK N   1      18.598  16.142   4.722  0.00  0.00     0.210 HD
ENDBRANCH  13  24
BRANCH   8  26
HETATM   26  O   UNK N   1      20.039  20.180   1.535  0.00  0.00    -0.393 OA
HETATM   27  H   UNK N   1      19.084  20.208   1.368  0.00  0.00     0.210 HD
ENDBRANCH   8  26
BRANCH   4  28
HETATM   28  O   UNK N   1      25.050  20.371   3.208  0.00  0.00    -0.358 OA
HETATM   29  H   UNK N   1      24.984  21.137   3.743  0.00  0.00     0.217 HD
ENDBRANCH   4  28
TORSDOF 5
ENDMDL
MODEL 3
REMARK VINA RESULT:      -6.9      2.741      5.354
REMARK  5 active torsions:
REMARK  status: ('A' for Active; 'I' for Inactive)
REMARK    1  A    between atoms: C_4  and  O_21 
REMARK    2  A    between atoms: C_8  and  O_19 
REMARK    3  A    between atoms: N_12  and  C_22 
REMARK    4  A    between atoms: C_13  and  O_14 
REMARK    5  A    between atoms: C_22  and  C_23 
ROOT
HETATM    1  C   UNK N   1      31.203  16.158   6.738  0.00  0.00    -0.046 A 
HETATM    2  C   UNK N   1      32.164  17.011   7.250  0.00  0.00    -0.001 A 
HETATM    3  C   UNK N   1      29.600  17.277   8.204  0.00  0.00     0.040 A 
HETATM    4  C   UNK N   1      30.634  18.095   8.716  0.00  0.00     0.099 A 
HETATM    5  C   UNK N   1      31.921  17.916   8.211  0.00  0.00     0.110 A 
HETATM    6  C   UNK N   1      29.889  16.290   7.225  0.00  0.00     0.011 A 
HETATM    7  C   UNK N   1      34.159  17.808   8.098  0.00  0.00     0.174 C 
HETATM    8  C   UNK N   1      34.532  16.817   9.231  0.00  0.00     0.148 C 
HETATM    9  C   UNK N   1      35.069  15.454   8.794  0.00  0.00     0.037 C 
HETATM   10  C   UNK N   1      34.105  14.794   7.806  0.00  0.00     0.044 C 
HETATM   11  C   UNK N   1      33.170  15.092   5.417  0.00  0.00     0.262 C 
HETATM   12  N   UNK N   1      33.447  15.922   4.238  0.00  0.00     0.096 N 
HETATM   13  C   UNK N   1      34.091  15.642   6.542  0.00  0.00     0.103 C 
HETATM   14  C   UNK N   1      31.633  15.073   5.771  0.00  0.00     0.078 C 
HETATM   15  C   UNK N   1      33.569  17.060   6.851  0.00  0.00     0.054 C 
HETATM   16  C   UNK N   1      33.662  17.951   5.584  0.00  0.00     0.050 C 
HETATM   17  C   UNK N   1      32.975  17.299   4.368  0.00  0.00     0.274 C 
HETATM   18  O   UNK N   1      33.057  18.514   8.599  0.00  0.00    -0.339 OA
ENDROOT
BRANCH  12  19
HETATM   19  C   UNK N   1      33.091  15.273   2.988  0.00  0.00     0.277 C 
BRANCH  19  20
HETATM   20  C   UNK N   1      33.771  13.904   2.949  0.00  0.00     0.014 A 
HETATM   21  C   UNK N   1      32.934  12.898   2.173  0.00  0.00     0.006 A 
HETATM   22  C   UNK N   1      33.971  12.876   1.072  0.00  0.00     0.001 A 
HETATM   23  C   UNK N   1      34.813  13.869   1.851  0.00  0.00     0.006 A 
ENDBRANCH  19  20
ENDBRANCH  12  19
BRANCH  13  24
HETATM   24  O   UNK N   1      35.406  15.707   6.057  0.00  0.00    -0.386 OA
HETATM   25  H   UNK N   1      36.179  15.302   6.479  0.00  0.00     0.210 HD
ENDBRANCH  13  24
BRANCH   8  26
HETATM   26  O   UNK N   1      35.414  17.423  10.126  0.00  0.00    -0.393 OA
HETATM   27  H   UNK N   1      35.216  18.269  10.557  0.00  0.00     0.210 HD
ENDBRANCH   8  26
BRANCH   4  28
HETATM   28  O   UNK N   1      30.387  18.997   9.678  0.00  0.00    -0.358 OA
HETATM   29  H   UNK N   1      30.907  19.056  10.455  0.00  0.00     0.217 HD
ENDBRANCH   4  28
TORSDOF 5
ENDMDL
MODEL 4
REMARK VINA RESULT:      -6.8      7.442      9.736
REMARK  5 active torsions:
REMARK  status: ('A' for Active; 'I' for Inactive)
REMARK    1  A    between atoms: C_4  and  O_21 
REMARK    2  A    between atoms: C_8  and  O_19 
REMARK    3  A    between atoms: N_12  and  C_22 
REMARK    4  A    between atoms: C_13  and  O_14 
REMARK    5  A    between atoms: C_22  and  C_23 
ROOT
HETATM    1  C   UNK N   1      34.653  10.829  13.142  0.00  0.00    -0.046 A 
HETATM    2  C   UNK N   1      35.876  11.189  12.607  0.00  0.00    -0.001 A 
HETATM    3  C   UNK N   1      34.412   9.297  11.254  0.00  0.00     0.040 A 
HETATM    4  C   UNK N   1      35.655   9.734  10.737  0.00  0.00     0.099 A 
HETATM    5  C   UNK N   1      36.356  10.704  11.451  0.00  0.00     0.110 A 
HETATM    6  C   UNK N   1      33.899   9.862  12.452  0.00  0.00     0.011 A 
HETATM    7  C   UNK N   1      37.676  12.459  11.911  0.00  0.00     0.174 C 
HETATM    8  C   UNK N   1      37.051  13.610  11.080  0.00  0.00     0.148 C 
HETATM    9  C   UNK N   1      36.358  14.721  11.870  0.00  0.00     0.037 C 
HETATM   10  C   UNK N   1      35.319  14.128  12.824  0.00  0.00     0.044 C 
HETATM   11  C   UNK N   1      35.150  12.646  14.932  0.00  0.00     0.262 C 
HETATM   12  N   UNK N   1      36.059  12.078  15.937  0.00  0.00     0.096 N 
HETATM   13  C   UNK N   1      36.066  13.304  13.864  0.00  0.00     0.103 C 
HETATM   14  C   UNK N   1      34.150  11.563  14.369  0.00  0.00     0.078 C 
HETATM   15  C   UNK N   1      36.821  12.142  13.188  0.00  0.00     0.054 C 
HETATM   16  C   UNK N   1      37.669  11.374  14.237  0.00  0.00     0.050 C 
HETATM   17  C   UNK N   1      36.826  10.933  15.449  0.00  0.00     0.274 C 
HETATM   18  O   UNK N   1      37.500  11.319  11.116  0.00  0.00    -0.339 OA
ENDROOT
BRANCH  12  19
HETATM   19  C   UNK N   1      35.428  11.880  17.230  0.00  0.00     0.277 C 
BRANCH  19  20
HETATM   20  C   UNK N   1      35.807  10.489  17.739  0.00  0.00     0.014 A 
HETATM   21  C   UNK N   1      35.983  10.486  19.250  0.00  0.00     0.006 A 
HETATM   22  C   UNK N   1      34.736   9.644  19.400  0.00  0.00     0.001 A 
HETATM   23  C   UNK N   1      34.566   9.634  17.893  0.00  0.00     0.006 A 
ENDBRANCH  19  20
ENDBRANCH  12  19
BRANCH  13  24
HETATM   24  O   UNK N   1      36.974  14.157  14.511  0.00  0.00    -0.386 OA
HETATM   25  H   UNK N   1      36.820  14.598  15.360  0.00  0.00     0.210 HD
ENDBRANCH  13  24
BRANCH   8  26
HETATM   26  O   UNK N   1      38.003  14.149  10.216  0.00  0.00    -0.393 OA
HETATM   27  H   UNK N   1      38.276  15.079  10.259  0.00  0.00     0.210 HD
ENDBRANCH   8  26
BRANCH   4  28
HETATM   28  O   UNK N   1      36.129   9.247   9.580  0.00  0.00    -0.358 OA
HETATM   29  H   UNK N   1      37.043   9.249   9.373  0.00  0.00     0.217 HD
ENDBRANCH   4  28
TORSDOF 5
ENDMDL
MODEL 5
REMARK VINA RESULT:      -6.8      8.075     11.282
REMARK  5 active torsions:
REMARK  status: ('A' for Active; 'I' for Inactive)
REMARK    1  A    between atoms: C_4  and  O_21 
REMARK    2  A    between atoms: C_8  and  O_19 
REMARK    3  A    between atoms: N_12  and  C_22 
REMARK    4  A    between atoms: C_13  and  O_14 
REMARK    5  A    between atoms: C_22  and  C_23 
ROOT
HETATM    1  C   UNK N   1      22.480  15.943   3.113  0.00  0.00    -0.046 A 
HETATM    2  C   UNK N   1      21.304  16.329   3.730  0.00  0.00    -0.001 A 
HETATM    3  C   UNK N   1      21.139  14.379   1.801  0.00  0.00     0.040 A 
HETATM    4  C   UNK N   1      19.976  14.788   2.495  0.00  0.00     0.099 A 
HETATM    5  C   UNK N   1      20.110  15.772   3.473  0.00  0.00     0.110 A 
HETATM    6  C   UNK N   1      22.400  14.944   2.126  0.00  0.00     0.011 A 
HETATM    7  C   UNK N   1      19.782  16.953   5.353  0.00  0.00     0.174 C 
HETATM    8  C   UNK N   1      19.947  15.898   6.477  0.00  0.00     0.148 C 
HETATM    9  C   UNK N   1      21.191  16.029   7.356  0.00  0.00     0.037 C 
HETATM   10  C   UNK N   1      22.452  16.085   6.490  0.00  0.00     0.044 C 
HETATM   11  C   UNK N   1      23.626  17.598   4.758  0.00  0.00     0.262 C 
HETATM   12  N   UNK N   1      23.481  18.960   4.229  0.00  0.00     0.096 N 
HETATM   13  C   UNK N   1      22.397  17.373   5.681  0.00  0.00     0.103 C 
HETATM   14  C   UNK N   1      23.787  16.536   3.602  0.00  0.00     0.078 C 
HETATM   15  C   UNK N   1      21.169  17.370   4.748  0.00  0.00     0.054 C 
HETATM   16  C   UNK N   1      21.057  18.730   4.009  0.00  0.00     0.050 C 
HETATM   17  C   UNK N   1      22.368  19.108   3.293  0.00  0.00     0.274 C 
HETATM   18  O   UNK N   1      19.173  16.253   4.303  0.00  0.00    -0.339 OA
ENDROOT
BRANCH  12  19
HETATM   19  C   UNK N   1      24.736  19.533   3.777  0.00  0.00     0.277 C 
BRANCH  19  20
HETATM   20  C   UNK N   1      25.782  19.320   4.872  0.00  0.00     0.014 A 
HETATM   21  C   UNK N   1      27.107  18.860   4.283  0.00  0.00     0.006 A 
HETATM   22  C   UNK N   1      27.737  20.185   4.650  0.00  0.00     0.001 A 
HETATM   23  C   UNK N   1      26.420  20.640   5.250  0.00  0.00     0.006 A 
ENDBRANCH  19  20
ENDBRANCH  12  19
BRANCH  13  24
HETATM   24  O   UNK N   1      22.311  18.442   6.587  0.00  0.00    -0.386 OA
HETATM   25  H   UNK N   1      21.655  18.524   7.295  0.00  0.00     0.210 HD
ENDBRANCH  13  24
BRANCH   8  26
HETATM   26  O   UNK N   1      18.798  15.854   7.266  0.00  0.00    -0.393 OA
HETATM   27  H   UNK N   1      17.912  15.748   6.885  0.00  0.00     0.210 HD
ENDBRANCH   8  26
BRANCH   4  28
HETATM   28  O   UNK N   1      18.785  14.227   2.236  0.00  0.00    -0.358 OA
HETATM   29  H   UNK N   1      18.049  14.327   2.807  0.00  0.00     0.217 HD
ENDBRANCH   4  28
TORSDOF 5
ENDMDL
MODEL 6
REMARK VINA RESULT:      -6.8     12.879     15.717
REMARK  5 active torsions:
REMARK  status: ('A' for Active; 'I' for Inactive)
REMARK    1  A    between atoms: C_4  and  O_21 
REMARK    2  A    between atoms: C_8  and  O_19 
REMARK    3  A    between atoms: N_12  and  C_22 
REMARK    4  A    between atoms: C_13  and  O_14 
REMARK    5  A    between atoms: C_22  and  C_23 
ROOT
HETATM    1  C   UNK N   1      29.189  26.840  -4.360  0.00  0.00    -0.046 A 
HETATM    2  C   UNK N   1      27.835  26.783  -4.085  0.00  0.00    -0.001 A 
HETATM    3  C   UNK N   1      29.238  28.928  -3.093  0.00  0.00     0.040 A 
HETATM    4  C   UNK N   1      27.843  28.834  -2.879  0.00  0.00     0.099 A 
HETATM    5  C   UNK N   1      27.172  27.735  -3.411  0.00  0.00     0.110 A 
HETATM    6  C   UNK N   1      29.911  27.937  -3.855  0.00  0.00     0.011 A 
HETATM    7  C   UNK N   1      25.559  26.479  -4.336  0.00  0.00     0.174 C 
HETATM    8  C   UNK N   1      25.195  27.251  -5.630  0.00  0.00     0.148 C 
HETATM    9  C   UNK N   1      25.597  26.593  -6.950  0.00  0.00     0.037 C 
HETATM   10  C   UNK N   1      27.087  26.244  -6.939  0.00  0.00     0.044 C 
HETATM   11  C   UNK N   1      28.771  24.685  -5.752  0.00  0.00     0.262 C 
HETATM   12  N   UNK N   1      28.730  23.537  -4.839  0.00  0.00     0.096 N 
HETATM   13  C   UNK N   1      27.301  25.173  -5.877  0.00  0.00     0.103 C 
HETATM   14  C   UNK N   1      29.793  25.785  -5.266  0.00  0.00     0.078 C 
HETATM   15  C   UNK N   1      26.921  25.714  -4.484  0.00  0.00     0.054 C 
HETATM   16  C   UNK N   1      27.035  24.586  -3.425  0.00  0.00     0.050 C 
HETATM   17  C   UNK N   1      28.413  23.900  -3.458  0.00  0.00     0.274 C 
HETATM   18  O   UNK N   1      25.854  27.481  -3.402  0.00  0.00    -0.339 OA
ENDROOT
BRANCH  12  19
HETATM   19  C   UNK N   1      29.870  22.649  -4.987  0.00  0.00     0.277 C 
BRANCH  19  20
HETATM   20  C   UNK N   1      30.271  22.149  -3.598  0.00  0.00     0.014 A 
HETATM   21  C   UNK N   1      30.908  20.770  -3.674  0.00  0.00     0.006 A 
HETATM   22  C   UNK N   1      32.246  21.359  -3.288  0.00  0.00     0.001 A 
HETATM   23  C   UNK N   1      31.609  22.734  -3.199  0.00  0.00     0.006 A 
ENDBRANCH  19  20
ENDBRANCH  12  19
BRANCH  13  24
HETATM   24  O   UNK N   1      26.488  24.078  -6.207  0.00  0.00    -0.386 OA
HETATM   25  H   UNK N   1      25.869  24.045  -6.952  0.00  0.00     0.210 HD
ENDBRANCH  13  24
BRANCH   8  26
HETATM   26  O   UNK N   1      23.836  27.562  -5.637  0.00  0.00    -0.393 OA
HETATM   27  H   UNK N   1      23.216  27.167  -6.269  0.00  0.00     0.210 HD
ENDBRANCH   8  26
BRANCH   4  28
HETATM   28  O   UNK N   1      27.184  29.790  -2.205  0.00  0.00    -0.358 OA
HETATM   29  H   UNK N   1      26.480  29.594  -1.618  0.00  0.00     0.217 HD
ENDBRANCH   4  28
TORSDOF 5
ENDMDL
MODEL 7
REMARK VINA RESULT:      -6.7     14.969     17.477
REMARK  5 active torsions:
REMARK  status: ('A' for Active; 'I' for Inactive)
REMARK    1  A    between atoms: C_4  and  O_21 
REMARK    2  A    between atoms: C_8  and  O_19 
REMARK    3  A    between atoms: N_12  and  C_22 
REMARK    4  A    between atoms: C_13  and  O_14 
REMARK    5  A    between atoms: C_22  and  C_23 
ROOT
HETATM    1  C   UNK N   1      28.732  22.592  -6.035  0.00  0.00    -0.046 A 
HETATM    2  C   UNK N   1      28.309  22.464  -7.345  0.00  0.00    -0.001 A 
HETATM    3  C   UNK N   1      30.272  20.747  -6.477  0.00  0.00     0.040 A 
HETATM    4  C   UNK N   1      29.770  20.641  -7.796  0.00  0.00     0.099 A 
HETATM    5  C   UNK N   1      28.767  21.525  -8.187  0.00  0.00     0.110 A 
HETATM    6  C   UNK N   1      29.736  21.714  -5.586  0.00  0.00     0.011 A 
HETATM    7  C   UNK N   1      26.946  22.350  -9.207  0.00  0.00     0.174 C 
HETATM    8  C   UNK N   1      25.827  21.349  -8.819  0.00  0.00     0.148 C 
HETATM    9  C   UNK N   1      24.756  21.864  -7.859  0.00  0.00     0.037 C 
HETATM   10  C   UNK N   1      25.403  22.451  -6.602  0.00  0.00     0.044 C 
HETATM   11  C   UNK N   1      26.896  24.421  -5.852  0.00  0.00     0.262 C 
HETATM   12  N   UNK N   1      27.417  25.668  -6.425  0.00  0.00     0.096 N 
HETATM   13  C   UNK N   1      26.189  23.686  -7.024  0.00  0.00     0.103 C 
HETATM   14  C   UNK N   1      28.027  23.588  -5.135  0.00  0.00     0.078 C 
HETATM   15  C   UNK N   1      27.309  23.299  -8.010  0.00  0.00     0.054 C 
HETATM   16  C   UNK N   1      28.034  24.573  -8.521  0.00  0.00     0.050 C 
HETATM   17  C   UNK N   1      28.520  25.464  -7.363  0.00  0.00     0.274 C 
HETATM   18  O   UNK N   1      28.093  21.558  -9.347  0.00  0.00    -0.339 OA
ENDROOT
BRANCH  12  19
HETATM   19  C   UNK N   1      27.650  26.700  -5.430  0.00  0.00     0.277 C 
BRANCH  19  20
HETATM   20  C   UNK N   1      26.563  27.765  -5.583  0.00  0.00     0.014 A 
HETATM   21  C   UNK N   1      25.716  27.871  -4.323  0.00  0.00     0.006 A 
HETATM   22  C   UNK N   1      26.300  29.236  -4.038  0.00  0.00     0.001 A 
HETATM   23  C   UNK N   1      27.135  29.139  -5.300  0.00  0.00     0.006 A 
ENDBRANCH  19  20
ENDBRANCH  12  19
BRANCH  13  24
HETATM   24  O   UNK N   1      25.292  24.573  -7.638  0.00  0.00    -0.386 OA
HETATM   25  H   UNK N   1      25.235  25.524  -7.461  0.00  0.00     0.210 HD
ENDBRANCH  13  24
BRANCH   8  26
HETATM   26  O   UNK N   1      25.238  20.821  -9.967  0.00  0.00    -0.393 OA
HETATM   27  H   UNK N   1      24.502  21.259 -10.421  0.00  0.00     0.210 HD
ENDBRANCH   8  26
BRANCH   4  28
HETATM   28  O   UNK N   1      30.230  19.698  -8.634  0.00  0.00    -0.358 OA
HETATM   29  H   UNK N   1      29.664  19.076  -9.047  0.00  0.00     0.217 HD
ENDBRANCH   4  28
TORSDOF 5
ENDMDL
MODEL 8
REMARK VINA RESULT:      -6.7      2.903      5.983
REMARK  5 active torsions:
REMARK  status: ('A' for Active; 'I' for Inactive)
REMARK    1  A    between atoms: C_4  and  O_21 
REMARK    2  A    between atoms: C_8  and  O_19 
REMARK    3  A    between atoms: N_12  and  C_22 
REMARK    4  A    between atoms: C_13  and  O_14 
REMARK    5  A    between atoms: C_22  and  C_23 
ROOT
HETATM    1  C   UNK N   1      31.317  17.133   7.235  0.00  0.00    -0.046 A 
HETATM    2  C   UNK N   1      32.387  17.012   6.367  0.00  0.00    -0.001 A 
HETATM    3  C   UNK N   1      32.776  18.481   8.657  0.00  0.00     0.040 A 
HETATM    4  C   UNK N   1      33.844  18.289   7.748  0.00  0.00     0.099 A 
HETATM    5  C   UNK N   1      33.603  17.527   6.606  0.00  0.00     0.110 A 
HETATM    6  C   UNK N   1      31.513  17.883   8.409  0.00  0.00     0.011 A 
HETATM    7  C   UNK N   1      33.922  16.115   4.892  0.00  0.00     0.174 C 
HETATM    8  C   UNK N   1      34.420  14.817   5.579  0.00  0.00     0.148 C 
HETATM    9  C   UNK N   1      33.460  13.628   5.564  0.00  0.00     0.037 C 
HETATM   10  C   UNK N   1      32.096  14.037   6.125  0.00  0.00     0.044 C 
HETATM   11  C   UNK N   1      30.080  15.557   5.579  0.00  0.00     0.262 C 
HETATM   12  N   UNK N   1      29.596  16.354   4.446  0.00  0.00     0.096 N 
HETATM   13  C   UNK N   1      31.490  15.052   5.165  0.00  0.00     0.103 C 
HETATM   14  C   UNK N   1      30.041  16.374   6.929  0.00  0.00     0.078 C 
HETATM   15  C   UNK N   1      32.377  16.311   5.084  0.00  0.00     0.054 C 
HETATM   16  C   UNK N   1      31.813  17.293   4.022  0.00  0.00     0.050 C 
HETATM   17  C   UNK N   1      30.324  17.608   4.260  0.00  0.00     0.274 C 
HETATM   18  O   UNK N   1      34.474  17.151   5.658  0.00  0.00    -0.339 OA
ENDROOT
BRANCH  12  19
HETATM   19  C   UNK N   1      28.150  16.481   4.413  0.00  0.00     0.277 C 
BRANCH  19  20
HETATM   20  C   UNK N   1      27.801  17.969   4.364  0.00  0.00     0.014 A 
HETATM   21  C   UNK N   1      26.485  18.202   3.637  0.00  0.00     0.006 A 
HETATM   22  C   UNK N   1      25.832  18.613   4.938  0.00  0.00     0.001 A 
HETATM   23  C   UNK N   1      27.148  18.395   5.662  0.00  0.00     0.006 A 
ENDBRANCH  19  20
ENDBRANCH  12  19
BRANCH  13  24
HETATM   24  O   UNK N   1      31.399  14.444   3.903  0.00  0.00    -0.386 OA
HETATM   25  H   UNK N   1      31.729  14.824   3.074  0.00  0.00     0.210 HD
ENDBRANCH  13  24
BRANCH   8  26
HETATM   26  O   UNK N   1      35.661  14.447   5.061  0.00  0.00    -0.393 OA
HETATM   27  H   UNK N   1      36.340  15.098   4.826  0.00  0.00     0.210 HD
ENDBRANCH   8  26
BRANCH   4  28
HETATM   28  O   UNK N   1      35.059  18.805   7.993  0.00  0.00    -0.358 OA
HETATM   29  H   UNK N   1      35.847  18.381   7.718  0.00  0.00     0.217 HD
ENDBRANCH   4  28
TORSDOF 5
ENDMDL
MODEL 9
REMARK VINA RESULT:      -6.6     15.368     17.545
REMARK  5 active torsions:
REMARK  status: ('A' for Active; 'I' for Inactive)
REMARK    1  A    between atoms: C_4  and  O_21 
REMARK    2  A    between atoms: C_8  and  O_19 
REMARK    3  A    between atoms: N_12  and  C_22 
REMARK    4  A    between atoms: C_13  and  O_14 
REMARK    5  A    between atoms: C_22  and  C_23 
ROOT
HETATM    1  C   UNK N   1      28.293  27.943  -6.234  0.00  0.00    -0.046 A 
HETATM    2  C   UNK N   1      27.131  27.193  -6.277  0.00  0.00    -0.001 A 
HETATM    3  C   UNK N   1      28.391  27.715  -8.664  0.00  0.00     0.040 A 
HETATM    4  C   UNK N   1      27.220  26.921  -8.640  0.00  0.00     0.099 A 
HETATM    5  C   UNK N   1      26.623  26.673  -7.405  0.00  0.00     0.110 A 
HETATM    6  C   UNK N   1      28.941  28.211  -7.453  0.00  0.00     0.011 A 
HETATM    7  C   UNK N   1      25.509  25.632  -5.758  0.00  0.00     0.174 C 
HETATM    8  C   UNK N   1      26.283  24.300  -5.584  0.00  0.00     0.148 C 
HETATM    9  C   UNK N   1      27.084  24.143  -4.292  0.00  0.00     0.037 C 
HETATM   10  C   UNK N   1      28.026  25.334  -4.101  0.00  0.00     0.044 C 
HETATM   11  C   UNK N   1      27.975  27.877  -3.655  0.00  0.00     0.262 C 
HETATM   12  N   UNK N   1      26.985  28.894  -3.278  0.00  0.00     0.096 N 
HETATM   13  C   UNK N   1      27.166  26.572  -3.890  0.00  0.00     0.103 C 
HETATM   14  C   UNK N   1      28.852  28.340  -4.882  0.00  0.00     0.078 C 
HETATM   15  C   UNK N   1      26.293  26.839  -5.133  0.00  0.00     0.054 C 
HETATM   16  C   UNK N   1      25.339  28.034  -4.868  0.00  0.00     0.050 C 
HETATM   17  C   UNK N   1      26.099  29.281  -4.375  0.00  0.00     0.274 C 
HETATM   18  O   UNK N   1      25.566  25.892  -7.134  0.00  0.00    -0.339 OA
ENDROOT
BRANCH  12  19
HETATM   19  C   UNK N   1      27.561  30.006  -2.542  0.00  0.00     0.277 C 
BRANCH  19  20
HETATM   20  C   UNK N   1      28.539  29.440  -1.510  0.00  0.00     0.014 A 
HETATM   21  C   UNK N   1      29.825  30.251  -1.471  0.00  0.00     0.006 A 
HETATM   22  C   UNK N   1      29.466  30.767  -0.095  0.00  0.00     0.001 A 
HETATM   23  C   UNK N   1      28.189  29.948  -0.127  0.00  0.00     0.006 A 
ENDBRANCH  19  20
ENDBRANCH  12  19
BRANCH  13  24
HETATM   24  O   UNK N   1      26.351  26.338  -2.771  0.00  0.00    -0.386 OA
HETATM   25  H   UNK N   1      26.189  26.971  -2.055  0.00  0.00     0.210 HD
ENDBRANCH  13  24
BRANCH   8  26
HETATM   26  O   UNK N   1      25.419  23.219  -5.754  0.00  0.00    -0.393 OA
HETATM   27  H   UNK N   1      24.697  23.228  -6.402  0.00  0.00     0.210 HD
ENDBRANCH   8  26
BRANCH   4  28
HETATM   28  O   UNK N   1      26.716  26.402  -9.770  0.00  0.00    -0.358 OA
HETATM   29  H   UNK N   1      26.364  25.535  -9.810  0.00  0.00     0.217 HD
ENDBRANCH   4  28
TORSDOF 5
ENDMDL
