MODEL 1
REMARK VINA RESULT:      -6.4      0.000      0.000
REMARK  5 active torsions:
REMARK  status: ('A' for Active; 'I' for Inactive)
REMARK    1  A    between atoms: C_1  and  N_9 
REMARK    2  A    between atoms: C_4  and  C_7 
REMARK    3  A    between atoms: C_5  and  O_6 
REMARK    4  A    between atoms: C_7  and  O_8 
REMARK    5  A    between atoms: C_14  and  O_21 
ROOT
HETATM    1  N   UNK N   1      31.481  16.671   7.145  0.00  0.00    -0.300 N 
HETATM    2  N   UNK N   1      30.331  17.669   9.068  0.00  0.00    -0.337 N 
ATOM      3  HN  UNK N   1      31.190  17.580   9.607  1.00  0.00     0.168 HD
HETATM    4  C   UNK N   1      30.353  17.079   7.769  0.00  0.00     0.137 A 
HETATM    5  C   UNK N   1      29.292  16.861   6.921  0.00  0.00     0.085 A 
HETATM    6  C   UNK N   1      27.864  17.174   7.184  0.00  0.00     0.189 C 
HETATM    7  C   UNK N   1      29.363  18.306   9.653  0.00  0.00     0.177 C 
HETATM    8  C   UNK N   1      27.784  18.598   7.662  0.00  0.00     0.158 C 
HETATM    9  N   UNK N   1      28.107  18.646   9.065  0.00  0.00    -0.383 N 
HETATM   10  N   UNK N   1      29.752  16.331   5.771  0.00  0.00    -0.350 N 
ATOM     11  HN  UNK N   1      29.206  16.064   4.952  1.00  0.00     0.166 HD
HETATM   12  C   UNK N   1      31.091  16.228   5.931  0.00  0.00     0.187 A 
HETATM   13  H   UNK N   1      27.394  18.943   9.676  0.00  0.00     0.160 HD
ENDROOT
BRANCH   1  14
HETATM   14  C   UNK N   1      32.885  16.721   7.572  0.00  0.00     0.233 C 
HETATM   15  C   UNK N   1      33.579  18.037   7.307  0.00  0.00     0.088 C 
HETATM   16  C   UNK N   1      34.764  17.860   8.190  0.00  0.00     0.153 C 
HETATM   17  C   UNK N   1      34.177  17.121   9.371  0.00  0.00     0.176 C 
HETATM   18  O   UNK N   1      33.010  16.448   8.948  0.00  0.00    -0.356 OA
BRANCH  16  19
HETATM   19  O   UNK N   1      35.289  19.089   8.588  0.00  0.00    -0.393 OA
HETATM   20  H   UNK N   1      34.937  19.987   8.482  0.00  0.00     0.210 HD
ENDBRANCH  16  19
BRANCH  17  21
HETATM   21  C   UNK N   1      35.210  16.136   9.899  0.00  0.00     0.198 C 
BRANCH  21  22
HETATM   22  O   UNK N   1      36.231  16.817  10.560  0.00  0.00    -0.398 OA
HETATM   23  H   UNK N   1      36.533  17.718  10.366  0.00  0.00     0.209 HD
ENDBRANCH  21  22
ENDBRANCH  17  21
ENDBRANCH   1  14
BRANCH   6  24
HETATM   24  O   UNK N   1      27.113  17.026   6.016  0.00  0.00    -0.388 OA
HETATM   25  H   UNK N   1      26.450  17.691   5.769  0.00  0.00     0.210 HD
ENDBRANCH   6  24
TORSDOF 5
ENDMDL
MODEL 2
REMARK VINA RESULT:      -6.1      1.048      1.161
REMARK  5 active torsions:
REMARK  status: ('A' for Active; 'I' for Inactive)
REMARK    1  A    between atoms: C_1  and  N_9 
REMARK    2  A    between atoms: C_4  and  C_7 
REMARK    3  A    between atoms: C_5  and  O_6 
REMARK    4  A    between atoms: C_7  and  O_8 
REMARK    5  A    between atoms: C_14  and  O_21 
ROOT
HETATM    1  N   UNK N   1      31.276  17.072   6.802  0.00  0.00    -0.300 N 
HETATM    2  N   UNK N   1      29.850  17.577   8.732  0.00  0.00    -0.337 N 
ATOM      3  HN  UNK N   1      30.563  17.180   9.342  1.00  0.00     0.168 HD
HETATM    4  C   UNK N   1      30.088  17.439   7.333  0.00  0.00     0.137 A 
HETATM    5  C   UNK N   1      29.213  17.680   6.299  0.00  0.00     0.085 A 
HETATM    6  C   UNK N   1      27.800  18.124   6.413  0.00  0.00     0.189 C 
HETATM    7  C   UNK N   1      28.848  18.142   9.334  0.00  0.00     0.177 C 
HETATM    8  C   UNK N   1      27.762  19.312   7.334  0.00  0.00     0.158 C 
HETATM    9  N   UNK N   1      27.785  18.855   8.700  0.00  0.00    -0.383 N 
HETATM   10  N   UNK N   1      29.851  17.479   5.130  0.00  0.00    -0.350 N 
ATOM     11  HN  UNK N   1      29.467  17.581   4.190  1.00  0.00     0.166 HD
HETATM   12  C   UNK N   1      31.109  17.112   5.462  0.00  0.00     0.187 A 
HETATM   13  H   UNK N   1      26.992  19.054   9.249  0.00  0.00     0.160 HD
ENDROOT
BRANCH   1  14
HETATM   14  C   UNK N   1      32.556  16.751   7.446  0.00  0.00     0.233 C 
HETATM   15  C   UNK N   1      33.579  17.863   7.406  0.00  0.00     0.088 C 
HETATM   16  C   UNK N   1      34.516  17.357   8.445  0.00  0.00     0.153 C 
HETATM   17  C   UNK N   1      33.575  16.737   9.452  0.00  0.00     0.176 C 
HETATM   18  O   UNK N   1      32.373  16.396   8.796  0.00  0.00    -0.356 OA
BRANCH  16  19
HETATM   19  O   UNK N   1      35.243  18.398   9.022  0.00  0.00    -0.393 OA
HETATM   20  H   UNK N   1      34.978  19.062   9.677  0.00  0.00     0.210 HD
ENDBRANCH  16  19
BRANCH  17  21
HETATM   21  C   UNK N   1      34.236  15.503  10.049  0.00  0.00     0.198 C 
BRANCH  21  22
HETATM   22  O   UNK N   1      33.429  14.959  11.048  0.00  0.00    -0.398 OA
HETATM   23  H   UNK N   1      32.462  14.892  11.023  0.00  0.00     0.209 HD
ENDBRANCH  21  22
ENDBRANCH  17  21
ENDBRANCH   1  14
BRANCH   6  24
HETATM   24  O   UNK N   1      27.302  18.482   5.159  0.00  0.00    -0.388 OA
HETATM   25  H   UNK N   1      26.345  18.561   5.014  0.00  0.00     0.210 HD
ENDBRANCH   6  24
TORSDOF 5
ENDMDL
MODEL 3
REMARK VINA RESULT:      -6.0     13.567     15.131
REMARK  5 active torsions:
REMARK  status: ('A' for Active; 'I' for Inactive)
REMARK    1  A    between atoms: C_1  and  N_9 
REMARK    2  A    between atoms: C_4  and  C_7 
REMARK    3  A    between atoms: C_5  and  O_6 
REMARK    4  A    between atoms: C_7  and  O_8 
REMARK    5  A    between atoms: C_14  and  O_21 
ROOT
HETATM    1  N   UNK N   1      28.188  23.322  -5.532  0.00  0.00    -0.300 N 
HETATM    2  N   UNK N   1      28.751  21.748  -7.327  0.00  0.00    -0.337 N 
ATOM      3  HN  UNK N   1      29.710  21.724  -6.982  1.00  0.00     0.168 HD
HETATM    4  C   UNK N   1      27.890  22.689  -6.689  0.00  0.00     0.137 A 
HETATM    5  C   UNK N   1      26.632  23.085  -7.082  0.00  0.00     0.085 A 
HETATM    6  C   UNK N   1      25.892  22.632  -8.287  0.00  0.00     0.189 C 
HETATM    7  C   UNK N   1      28.478  20.917  -8.286  0.00  0.00     0.177 C 
HETATM    8  C   UNK N   1      25.929  21.129  -8.312  0.00  0.00     0.158 C 
HETATM    9  N   UNK N   1      27.189  20.694  -8.859  0.00  0.00    -0.383 N 
HETATM   10  N   UNK N   1      26.142  23.950  -6.172  0.00  0.00    -0.350 N 
ATOM     11  HN  UNK N   1      25.233  24.413  -6.187  1.00  0.00     0.166 HD
HETATM   12  C   UNK N   1      27.108  24.075  -5.234  0.00  0.00     0.187 A 
HETATM   13  H   UNK N   1      27.158  20.194  -9.706  0.00  0.00     0.160 HD
ENDROOT
BRANCH   1  14
HETATM   14  C   UNK N   1      29.369  23.226  -4.663  0.00  0.00     0.233 C 
HETATM   15  C   UNK N   1      29.175  23.781  -3.271  0.00  0.00     0.088 C 
HETATM   16  C   UNK N   1      30.360  23.170  -2.608  0.00  0.00     0.153 C 
HETATM   17  C   UNK N   1      30.436  21.815  -3.272  0.00  0.00     0.176 C 
HETATM   18  O   UNK N   1      29.797  21.891  -4.529  0.00  0.00    -0.356 OA
BRANCH  16  19
HETATM   19  O   UNK N   1      30.159  23.037  -1.234  0.00  0.00    -0.393 OA
HETATM   20  H   UNK N   1      30.713  22.621  -0.556  0.00  0.00     0.210 HD
ENDBRANCH  16  19
BRANCH  17  21
HETATM   21  C   UNK N   1      31.898  21.425  -3.431  0.00  0.00     0.198 C 
BRANCH  21  22
HETATM   22  O   UNK N   1      32.510  21.329  -2.182  0.00  0.00    -0.398 OA
HETATM   23  H   UNK N   1      32.278  21.846  -1.394  0.00  0.00     0.209 HD
ENDBRANCH  21  22
ENDBRANCH  17  21
ENDBRANCH   1  14
BRANCH   6  24
HETATM   24  O   UNK N   1      24.568  23.071  -8.236  0.00  0.00    -0.388 OA
HETATM   25  H   UNK N   1      24.063  23.016  -7.408  0.00  0.00     0.210 HD
ENDBRANCH   6  24
TORSDOF 5
ENDMDL
MODEL 4
REMARK VINA RESULT:      -5.8      6.628     11.107
REMARK  5 active torsions:
REMARK  status: ('A' for Active; 'I' for Inactive)
REMARK    1  A    between atoms: C_1  and  N_9 
REMARK    2  A    between atoms: C_4  and  C_7 
REMARK    3  A    between atoms: C_5  and  O_6 
REMARK    4  A    between atoms: C_7  and  O_8 
REMARK    5  A    between atoms: C_14  and  O_21 
ROOT
HETATM    1  N   UNK N   1      23.887  19.563   3.540  0.00  0.00    -0.300 N 
HETATM    2  N   UNK N   1      24.089  17.475   4.812  0.00  0.00    -0.337 N 
ATOM      3  HN  UNK N   1      23.087  17.508   4.992  1.00  0.00     0.168 HD
HETATM    4  C   UNK N   1      24.634  18.615   4.150  0.00  0.00     0.137 A 
HETATM    5  C   UNK N   1      25.960  18.937   3.973  0.00  0.00     0.085 A 
HETATM    6  C   UNK N   1      27.135  18.168   4.460  0.00  0.00     0.189 C 
HETATM    7  C   UNK N   1      24.697  16.401   5.212  0.00  0.00     0.177 C 
HETATM    8  C   UNK N   1      26.951  16.734   4.047  0.00  0.00     0.158 C 
HETATM    9  N   UNK N   1      26.070  16.080   4.981  0.00  0.00    -0.383 N 
HETATM   10  N   UNK N   1      26.043  20.069   3.248  0.00  0.00    -0.350 N 
ATOM     11  HN  UNK N   1      26.892  20.554   2.953  1.00  0.00     0.166 HD
HETATM   12  C   UNK N   1      24.766  20.430   2.993  0.00  0.00     0.187 A 
HETATM   13  H   UNK N   1      26.450  15.342   5.509  0.00  0.00     0.160 HD
ENDROOT
BRANCH   1  14
HETATM   14  C   UNK N   1      22.431  19.681   3.380  0.00  0.00     0.233 C 
HETATM   15  C   UNK N   1      21.989  20.694   2.350  0.00  0.00     0.088 C 
HETATM   16  C   UNK N   1      20.576  20.258   2.184  0.00  0.00     0.153 C 
HETATM   17  C   UNK N   1      20.687  18.756   2.301  0.00  0.00     0.176 C 
HETATM   18  O   UNK N   1      21.855  18.445   3.030  0.00  0.00    -0.356 OA
BRANCH  16  19
HETATM   19  O   UNK N   1      20.076  20.622   0.933  0.00  0.00    -0.393 OA
HETATM   20  H   UNK N   1      20.511  20.650   0.067  0.00  0.00     0.210 HD
ENDBRANCH  16  19
BRANCH  17  21
HETATM   21  C   UNK N   1      19.449  18.224   3.008  0.00  0.00     0.198 C 
BRANCH  21  22
HETATM   22  O   UNK N   1      18.296  18.657   2.353  0.00  0.00    -0.398 OA
HETATM   23  H   UNK N   1      18.028  18.413   1.454  0.00  0.00     0.209 HD
ENDBRANCH  21  22
ENDBRANCH  17  21
ENDBRANCH   1  14
BRANCH   6  24
HETATM   24  O   UNK N   1      28.310  18.674   3.900  0.00  0.00    -0.388 OA
HETATM   25  H   UNK N   1      28.830  18.137   3.280  0.00  0.00     0.210 HD
ENDBRANCH   6  24
TORSDOF 5
ENDMDL
MODEL 5
REMARK VINA RESULT:      -5.7      3.878      6.225
REMARK  5 active torsions:
REMARK  status: ('A' for Active; 'I' for Inactive)
REMARK    1  A    between atoms: C_1  and  N_9 
REMARK    2  A    between atoms: C_4  and  C_7 
REMARK    3  A    between atoms: C_5  and  O_6 
REMARK    4  A    between atoms: C_7  and  O_8 
REMARK    5  A    between atoms: C_14  and  O_21 
ROOT
HETATM    1  N   UNK N   1      35.080  15.081  10.926  0.00  0.00    -0.300 N 
HETATM    2  N   UNK N   1      33.460  14.303   9.257  0.00  0.00    -0.337 N 
ATOM      3  HN  UNK N   1      33.631  13.346   9.562  1.00  0.00     0.168 HD
HETATM    4  C   UNK N   1      34.298  15.296   9.844  0.00  0.00     0.137 A 
HETATM    5  C   UNK N   1      34.437  16.613   9.471  0.00  0.00     0.085 A 
HETATM    6  C   UNK N   1      33.752  17.296   8.343  0.00  0.00     0.189 C 
HETATM    7  C   UNK N   1      32.507  14.454   8.389  0.00  0.00     0.177 C 
HETATM    8  C   UNK N   1      32.281  17.001   8.452  0.00  0.00     0.158 C 
HETATM    9  N   UNK N   1      32.015  15.699   7.894  0.00  0.00    -0.383 N 
HETATM   10  N   UNK N   1      35.289  17.221  10.319  0.00  0.00    -0.350 N 
ATOM     11  HN  UNK N   1      35.588  18.197  10.301  1.00  0.00     0.166 HD
HETATM   12  C   UNK N   1      35.665  16.267  11.200  0.00  0.00     0.187 A 
HETATM   13  H   UNK N   1      31.438  15.666   7.097  0.00  0.00     0.160 HD
ENDROOT
BRANCH   1  14
HETATM   14  C   UNK N   1      35.270  13.879  11.749  0.00  0.00     0.233 C 
HETATM   15  C   UNK N   1      36.667  13.305  11.715  0.00  0.00     0.088 C 
HETATM   16  C   UNK N   1      36.583  12.416  12.906  0.00  0.00     0.153 C 
HETATM   17  C   UNK N   1      35.728  13.226  13.853  0.00  0.00     0.176 C 
HETATM   18  O   UNK N   1      34.948  14.128  13.097  0.00  0.00    -0.356 OA
BRANCH  16  19
HETATM   19  O   UNK N   1      37.844  12.183  13.455  0.00  0.00    -0.393 OA
HETATM   20  H   UNK N   1      38.140  12.195  14.379  0.00  0.00     0.210 HD
ENDBRANCH  16  19
BRANCH  17  21
HETATM   21  C   UNK N   1      34.842  12.280  14.650  0.00  0.00     0.198 C 
BRANCH  21  22
HETATM   22  O   UNK N   1      34.126  12.987  15.614  0.00  0.00    -0.398 OA
HETATM   23  H   UNK N   1      34.311  12.997  16.566  0.00  0.00     0.209 HD
ENDBRANCH  21  22
ENDBRANCH  17  21
ENDBRANCH   1  14
BRANCH   6  24
HETATM   24  O   UNK N   1      33.964  18.674   8.411  0.00  0.00    -0.388 OA
HETATM   25  H   UNK N   1      33.938  19.134   9.266  0.00  0.00     0.210 HD
ENDBRANCH   6  24
TORSDOF 5
ENDMDL
MODEL 6
REMARK VINA RESULT:      -5.7      5.129      9.450
REMARK  5 active torsions:
REMARK  status: ('A' for Active; 'I' for Inactive)
REMARK    1  A    between atoms: C_1  and  N_9 
REMARK    2  A    between atoms: C_4  and  C_7 
REMARK    3  A    between atoms: C_5  and  O_6 
REMARK    4  A    between atoms: C_7  and  O_8 
REMARK    5  A    between atoms: C_14  and  O_21 
ROOT
HETATM    1  N   UNK N   1      25.907  19.510   4.191  0.00  0.00    -0.300 N 
HETATM    2  N   UNK N   1      25.796  17.437   5.498  0.00  0.00    -0.337 N 
ATOM      3  HN  UNK N   1      24.824  17.647   5.717  1.00  0.00     0.168 HD
HETATM    4  C   UNK N   1      26.503  18.455   4.791  0.00  0.00     0.137 A 
HETATM    5  C   UNK N   1      27.856  18.538   4.556  0.00  0.00     0.085 A 
HETATM    6  C   UNK N   1      28.898  17.583   5.013  0.00  0.00     0.189 C 
HETATM    7  C   UNK N   1      26.225  16.279   5.897  0.00  0.00     0.177 C 
HETATM    8  C   UNK N   1      28.450  16.197   4.638  0.00  0.00     0.158 C 
HETATM    9  N   UNK N   1      27.509  15.720   5.620  0.00  0.00    -0.383 N 
HETATM   10  N   UNK N   1      28.104  19.628   3.805  0.00  0.00    -0.350 N 
ATOM     11  HN  UNK N   1      29.010  19.952   3.466  1.00  0.00     0.166 HD
HETATM   12  C   UNK N   1      26.899  20.202   3.592  0.00  0.00     0.187 A 
HETATM   13  H   UNK N   1      27.777  14.934   6.148  0.00  0.00     0.160 HD
ENDROOT
BRANCH   1  14
HETATM   14  C   UNK N   1      24.489  19.878   4.086  0.00  0.00     0.233 C 
HETATM   15  C   UNK N   1      24.125  20.641   2.833  0.00  0.00     0.088 C 
HETATM   16  C   UNK N   1      22.647  20.479   2.881  0.00  0.00     0.153 C 
HETATM   17  C   UNK N   1      22.494  19.075   3.420  0.00  0.00     0.176 C 
HETATM   18  O   UNK N   1      23.661  18.740   4.142  0.00  0.00    -0.356 OA
BRANCH  16  19
HETATM   19  O   UNK N   1      22.084  20.583   1.608  0.00  0.00    -0.393 OA
HETATM   20  H   UNK N   1      21.259  20.217   1.254  0.00  0.00     0.210 HD
ENDBRANCH  16  19
BRANCH  17  21
HETATM   21  C   UNK N   1      21.268  19.024   4.319  0.00  0.00     0.198 C 
BRANCH  21  22
HETATM   22  O   UNK N   1      20.508  20.183   4.165  0.00  0.00    -0.398 OA
HETATM   23  H   UNK N   1      19.558  20.268   4.343  0.00  0.00     0.209 HD
ENDBRANCH  21  22
ENDBRANCH  17  21
ENDBRANCH   1  14
BRANCH   6  24
HETATM   24  O   UNK N   1      30.118  17.867   4.396  0.00  0.00    -0.388 OA
HETATM   25  H   UNK N   1      30.522  17.229   3.786  0.00  0.00     0.210 HD
ENDBRANCH   6  24
TORSDOF 5
ENDMDL
MODEL 7
REMARK VINA RESULT:      -5.6      9.746     11.645
REMARK  5 active torsions:
REMARK  status: ('A' for Active; 'I' for Inactive)
REMARK    1  A    between atoms: C_1  and  N_9 
REMARK    2  A    between atoms: C_4  and  C_7 
REMARK    3  A    between atoms: C_5  and  O_6 
REMARK    4  A    between atoms: C_7  and  O_8 
REMARK    5  A    between atoms: C_14  and  O_21 
ROOT
HETATM    1  N   UNK N   1      22.247  17.180   4.975  0.00  0.00    -0.300 N 
HETATM    2  N   UNK N   1      20.267  17.497   3.562  0.00  0.00    -0.337 N 
ATOM      3  HN  UNK N   1      19.963  16.556   3.806  1.00  0.00     0.168 HD
HETATM    4  C   UNK N   1      21.559  17.871   4.038  0.00  0.00     0.137 A 
HETATM    5  C   UNK N   1      22.302  18.975   3.688  0.00  0.00     0.085 A 
HETATM    6  C   UNK N   1      21.929  20.024   2.706  0.00  0.00     0.189 C 
HETATM    7  C   UNK N   1      19.427  18.195   2.862  0.00  0.00     0.177 C 
HETATM    8  C   UNK N   1      20.539  20.493   3.037  0.00  0.00     0.158 C 
HETATM    9  N   UNK N   1      19.582  19.565   2.489  0.00  0.00    -0.383 N 
HETATM   10  N   UNK N   1      23.441  18.982   4.409  0.00  0.00    -0.350 N 
ATOM     11  HN  UNK N   1      24.190  19.674   4.374  1.00  0.00     0.166 HD
HETATM   12  C   UNK N   1      23.382  17.880   5.189  0.00  0.00     0.187 A 
HETATM   13  H   UNK N   1      18.977  19.910   1.793  0.00  0.00     0.160 HD
ENDROOT
BRANCH   1  14
HETATM   14  C   UNK N   1      21.896  15.964   5.720  0.00  0.00     0.233 C 
HETATM   15  C   UNK N   1      21.312  16.210   7.092  0.00  0.00     0.088 C 
HETATM   16  C   UNK N   1      20.737  14.861   7.347  0.00  0.00     0.153 C 
HETATM   17  C   UNK N   1      20.244  14.458   5.976  0.00  0.00     0.176 C 
HETATM   18  O   UNK N   1      20.975  15.175   5.005  0.00  0.00    -0.356 OA
BRANCH  16  19
HETATM   19  O   UNK N   1      19.679  14.925   8.253  0.00  0.00    -0.393 OA
HETATM   20  H   UNK N   1      18.999  15.605   8.379  0.00  0.00     0.210 HD
ENDBRANCH  16  19
BRANCH  17  21
HETATM   21  C   UNK N   1      20.441  12.958   5.804  0.00  0.00     0.198 C 
BRANCH  21  22
HETATM   22  O   UNK N   1      20.695  12.361   7.038  0.00  0.00    -0.398 OA
HETATM   23  H   UNK N   1      21.252  12.726   7.743  0.00  0.00     0.209 HD
ENDBRANCH  21  22
ENDBRANCH  17  21
ENDBRANCH   1  14
BRANCH   6  24
HETATM   24  O   UNK N   1      22.819  21.097   2.782  0.00  0.00    -0.388 OA
HETATM   25  H   UNK N   1      23.635  21.097   2.256  0.00  0.00     0.210 HD
ENDBRANCH   6  24
TORSDOF 5
ENDMDL
MODEL 8
REMARK VINA RESULT:      -5.6      3.034      6.454
REMARK  5 active torsions:
REMARK  status: ('A' for Active; 'I' for Inactive)
REMARK    1  A    between atoms: C_1  and  N_9 
REMARK    2  A    between atoms: C_4  and  C_7 
REMARK    3  A    between atoms: C_5  and  O_6 
REMARK    4  A    between atoms: C_7  and  O_8 
REMARK    5  A    between atoms: C_14  and  O_21 
ROOT
HETATM    1  N   UNK N   1      33.534  17.252   7.549  0.00  0.00    -0.300 N 
HETATM    2  N   UNK N   1      33.595  14.811   7.782  0.00  0.00    -0.337 N 
ATOM      3  HN  UNK N   1      32.806  14.747   7.141  1.00  0.00     0.168 HD
HETATM    4  C   UNK N   1      33.970  16.132   8.168  0.00  0.00     0.137 A 
HETATM    5  C   UNK N   1      34.839  16.506   9.167  0.00  0.00     0.085 A 
HETATM    6  C   UNK N   1      35.572  15.604  10.093  0.00  0.00     0.189 C 
HETATM    7  C   UNK N   1      34.125  13.680   8.135  0.00  0.00     0.177 C 
HETATM    8  C   UNK N   1      36.250  14.547   9.267  0.00  0.00     0.158 C 
HETATM    9  N   UNK N   1      35.296  13.518   8.937  0.00  0.00    -0.383 N 
HETATM   10  N   UNK N   1      34.955  17.848   9.166  0.00  0.00    -0.350 N 
ATOM     11  HN  UNK N   1      35.529  18.419   9.788  1.00  0.00     0.166 HD
HETATM   12  C   UNK N   1      34.153  18.280   8.168  0.00  0.00     0.187 A 
HETATM   13  H   UNK N   1      35.469  12.618   9.297  0.00  0.00     0.160 HD
ENDROOT
BRANCH   1  14
HETATM   14  C   UNK N   1      32.640  17.424   6.396  0.00  0.00     0.233 C 
HETATM   15  C   UNK N   1      33.344  17.544   5.065  0.00  0.00     0.088 C 
HETATM   16  C   UNK N   1      32.184  17.300   4.164  0.00  0.00     0.153 C 
HETATM   17  C   UNK N   1      31.399  16.257   4.926  0.00  0.00     0.176 C 
HETATM   18  O   UNK N   1      31.725  16.359   6.296  0.00  0.00    -0.356 OA
BRANCH  16  19
HETATM   19  O   UNK N   1      32.598  16.802   2.928  0.00  0.00    -0.393 OA
HETATM   20  H   UNK N   1      32.122  16.738   2.086  0.00  0.00     0.210 HD
ENDBRANCH  16  19
BRANCH  17  21
HETATM   21  C   UNK N   1      29.913  16.499   4.703  0.00  0.00     0.198 C 
BRANCH  21  22
HETATM   22  O   UNK N   1      29.714  17.228   3.532  0.00  0.00    -0.398 OA
HETATM   23  H   UNK N   1      28.857  17.507   3.175  0.00  0.00     0.209 HD
ENDBRANCH  21  22
ENDBRANCH  17  21
ENDBRANCH   1  14
BRANCH   6  24
HETATM   24  O   UNK N   1      36.526  16.324  10.815  0.00  0.00    -0.388 OA
HETATM   25  H   UNK N   1      36.557  17.292  10.759  0.00  0.00     0.210 HD
ENDBRANCH   6  24
TORSDOF 5
ENDMDL
MODEL 9
REMARK VINA RESULT:      -5.5      2.141      6.620
REMARK  5 active torsions:
REMARK  status: ('A' for Active; 'I' for Inactive)
REMARK    1  A    between atoms: C_1  and  N_9 
REMARK    2  A    between atoms: C_4  and  C_7 
REMARK    3  A    between atoms: C_5  and  O_6 
REMARK    4  A    between atoms: C_7  and  O_8 
REMARK    5  A    between atoms: C_14  and  O_21 
ROOT
HETATM    1  N   UNK N   1      29.758  17.880   7.557  0.00  0.00    -0.300 N 
HETATM    2  N   UNK N   1      31.311  17.209   5.781  0.00  0.00    -0.337 N 
ATOM      3  HN  UNK N   1      30.531  17.199   5.126  1.00  0.00     0.168 HD
HETATM    4  C   UNK N   1      30.966  17.434   7.147  0.00  0.00     0.137 A 
HETATM    5  C   UNK N   1      31.768  17.289   8.256  0.00  0.00     0.085 A 
HETATM    6  C   UNK N   1      33.183  16.839   8.279  0.00  0.00     0.189 C 
HETATM    7  C   UNK N   1      32.485  17.019   5.261  0.00  0.00     0.177 C 
HETATM    8  C   UNK N   1      33.942  17.652   7.266  0.00  0.00     0.158 C 
HETATM    9  N   UNK N   1      33.731  17.093   5.955  0.00  0.00    -0.383 N 
HETATM   10  N   UNK N   1      31.071  17.654   9.350  0.00  0.00    -0.350 N 
ATOM     11  HN  UNK N   1      31.396  17.658  10.317  1.00  0.00     0.166 HD
HETATM   12  C   UNK N   1      29.849  18.014   8.897  0.00  0.00     0.187 A 
HETATM   13  H   UNK N   1      34.521  16.730   5.493  0.00  0.00     0.160 HD
ENDROOT
BRANCH   1  14
HETATM   14  C   UNK N   1      28.560  18.246   6.789  0.00  0.00     0.233 C 
HETATM   15  C   UNK N   1      27.886  19.521   7.240  0.00  0.00     0.088 C 
HETATM   16  C   UNK N   1      27.026  19.765   6.049  0.00  0.00     0.153 C 
HETATM   17  C   UNK N   1      27.913  19.308   4.914  0.00  0.00     0.176 C 
HETATM   18  O   UNK N   1      28.854  18.386   5.419  0.00  0.00    -0.356 OA
BRANCH  16  19
HETATM   19  O   UNK N   1      26.713  21.118   5.919  0.00  0.00    -0.393 OA
HETATM   20  H   UNK N   1      27.046  21.889   6.403  0.00  0.00     0.210 HD
ENDBRANCH  16  19
BRANCH  17  21
HETATM   21  C   UNK N   1      27.046  18.665   3.841  0.00  0.00     0.198 C 
BRANCH  21  22
HETATM   22  O   UNK N   1      26.125  19.587   3.348  0.00  0.00    -0.398 OA
HETATM   23  H   UNK N   1      25.404  19.996   3.852  0.00  0.00     0.209 HD
ENDBRANCH  21  22
ENDBRANCH  17  21
ENDBRANCH   1  14
BRANCH   6  24
HETATM   24  O   UNK N   1      33.732  17.033   9.548  0.00  0.00    -0.388 OA
HETATM   25  H   UNK N   1      33.475  17.801  10.083  0.00  0.00     0.210 HD
ENDBRANCH   6  24
TORSDOF 5
ENDMDL
