MODEL 1
REMARK VINA RESULT:      -7.9      0.000      0.000
REMARK  12 active torsions:
REMARK  status: ('A' for Active; 'I' for Inactive)
REMARK    1  A    between atoms: C_6  and  C_3 
REMARK    2  A    between atoms: C_10  and  C_3 
REMARK    3  A    between atoms: C_12  and  C_6 
REMARK    4  A    between atoms: C_8  and  C_7 
REMARK    5  A    between atoms: C_13  and  C_7 
REMARK    6  A    between atoms: C_14  and  C_8 
REMARK    7  A    between atoms: C_17  and  C_11 
REMARK    8  A    between atoms: C_19  and  C_13 
REMARK    9  A    between atoms: C_13  and  N_24 
REMARK   10  A    between atoms: O_29  and  C_14 
REMARK       I    between atoms: N_24  and  C_17 
REMARK   11  A    between atoms: O_31  and  C_18 
REMARK   12  A    between atoms: O_33  and  C_19 
ROOT
HETATM    1  C   UNK N   1      27.825  19.648   4.564  0.00  0.00     0.008 A 
HETATM    2  C   UNK N   1      27.286  17.404   3.835  0.00  0.00     0.008 A 
HETATM    3  C   UNK N   1      26.546  20.078   4.207  0.00  0.00     0.017 A 
HETATM    4  C   UNK N   1      26.003  17.828   3.506  0.00  0.00     0.017 A 
HETATM    5  C   UNK N   1      28.186  18.307   4.396  0.00  0.00    -0.058 A 
HETATM    6  C   UNK N   1      25.629  19.166   3.676  0.00  0.00     0.032 A 
ENDROOT
BRANCH   5   7
HETATM    7  C   UNK N   1      29.450  17.815   4.993  0.00  0.00     0.043 C 
BRANCH   7   8
HETATM    8  C   UNK N   1      29.220  16.802   6.085  0.00  0.00     0.045 C 
BRANCH   8   9
HETATM    9  C   UNK N   1      30.107  17.168   7.224  0.00  0.00    -0.024 A 
HETATM   10  C   UNK N   1      29.793  18.046   8.256  0.00  0.00     0.098 A 
HETATM   11  N   UNK N   1      30.845  18.132   9.112  0.00  0.00    -0.350 N 
HETATM   12  C   UNK N   1      31.794  17.319   8.611  0.00  0.00     0.136 A 
HETATM   13  H   UNK N   1      30.901  18.676   9.929  0.00  0.00     0.166 HD
HETATM   14  C   UNK N   1      31.386  16.719   7.465  0.00  0.00     0.067 A 
HETATM   15  N   UNK N   1      33.014  17.092   9.150  0.00  0.00    -0.176 N 
HETATM   16  C   UNK N   1      32.245  15.843   6.806  0.00  0.00     0.170 A 
HETATM   17  N   UNK N   1      33.475  15.616   7.347  0.00  0.00    -0.170 N 
HETATM   18  C   UNK N   1      33.862  16.230   8.510  0.00  0.00     0.679 A 
ATOM     19  HN  UNK N   1      34.120  14.980   6.878  1.00  0.00     0.186 HD
HETATM   20  N   UNK N   1      35.016  15.990   9.001  0.00  0.00    -0.234 N 
HETATM   21  H   UNK N   1      35.274  16.371   9.871  0.00  0.00     0.174 HD
ATOM     22  HN  UNK N   1      35.673  15.401   8.489  1.00  0.00     0.174 HD
HETATM   23  H   UNK N   1      33.286  17.538   9.984  0.00  0.00     0.186 HD
BRANCH  16  24
HETATM   24  O   UNK N   1      31.886  15.227   5.668  0.00  0.00    -0.345 OA
HETATM   25  H   UNK N   1      31.824  14.293   5.625  0.00  0.00     0.219 HD
ENDBRANCH  16  24
ENDBRANCH   8   9
ENDBRANCH   7   8
ENDBRANCH   5   7
BRANCH   6  26
HETATM   26  C   UNK N   1      24.208  19.454   3.826  0.00  0.00     0.252 C 
HETATM   27  N   UNK N   1      23.312  18.523   4.244  0.00  0.00    -0.343 N 
HETATM   28  H   UNK N   1      23.627  17.631   4.515  0.00  0.00     0.163 HD
HETATM   29  O   UNK N   1      23.839  20.587   3.558  0.00  0.00    -0.268 OA
BRANCH  27  30
HETATM   30  C   UNK N   1      21.892  18.832   4.293  0.00  0.00     0.183 C 
BRANCH  30  31
HETATM   31  C   UNK N   1      21.263  18.470   2.953  0.00  0.00     0.046 C 
BRANCH  31  32
HETATM   32  C   UNK N   1      20.284  19.547   2.512  0.00  0.00     0.112 C 
BRANCH  32  33
HETATM   33  C   UNK N   1      21.013  20.648   1.821  0.00  0.00     0.139 C 
HETATM   34  O   UNK N   1      21.242  20.567   0.626  0.00  0.00    -0.650 OA
BRANCH  33  35
HETATM   35  O   UNK N   1      21.399  21.741   2.507  0.00  0.00    -0.776 OA
HETATM   36  H   UNK N   1      22.287  21.838   2.790  0.00  0.00     0.167 HD
ENDBRANCH  33  35
ENDBRANCH  32  33
ENDBRANCH  31  32
ENDBRANCH  30  31
BRANCH  30  37
HETATM   37  C   UNK N   1      21.246  18.157   5.477  0.00  0.00     0.163 C 
HETATM   38  O   UNK N   1      20.637  17.111   5.314  0.00  0.00    -0.648 OA
BRANCH  37  39
HETATM   39  O   UNK N   1      21.362  18.670   6.717  0.00  0.00    -0.775 OA
HETATM   40  H   UNK N   1      20.704  18.947   7.325  0.00  0.00     0.167 HD
ENDBRANCH  37  39
ENDBRANCH  30  37
ENDBRANCH  27  30
ENDBRANCH   6  26
TORSDOF 12
ENDMDL
MODEL 2
REMARK VINA RESULT:      -7.7      2.715     10.510
REMARK  12 active torsions:
REMARK  status: ('A' for Active; 'I' for Inactive)
REMARK    1  A    between atoms: C_6  and  C_3 
REMARK    2  A    between atoms: C_10  and  C_3 
REMARK    3  A    between atoms: C_12  and  C_6 
REMARK    4  A    between atoms: C_8  and  C_7 
REMARK    5  A    between atoms: C_13  and  C_7 
REMARK    6  A    between atoms: C_14  and  C_8 
REMARK    7  A    between atoms: C_17  and  C_11 
REMARK    8  A    between atoms: C_19  and  C_13 
REMARK    9  A    between atoms: C_13  and  N_24 
REMARK   10  A    between atoms: O_29  and  C_14 
REMARK       I    between atoms: N_24  and  C_17 
REMARK   11  A    between atoms: O_31  and  C_18 
REMARK   12  A    between atoms: O_33  and  C_19 
ROOT
HETATM    1  C   UNK N   1      27.165  18.107   3.608  0.00  0.00     0.008 A 
HETATM    2  C   UNK N   1      27.342  20.180   4.845  0.00  0.00     0.008 A 
HETATM    3  C   UNK N   1      28.017  17.482   4.519  0.00  0.00     0.017 A 
HETATM    4  C   UNK N   1      28.170  19.548   5.768  0.00  0.00     0.017 A 
HETATM    5  C   UNK N   1      26.813  19.449   3.783  0.00  0.00    -0.058 A 
HETATM    6  C   UNK N   1      28.523  18.204   5.605  0.00  0.00     0.032 A 
ENDROOT
BRANCH   5   7
HETATM    7  C   UNK N   1      25.731  20.032   2.955  0.00  0.00     0.043 C 
BRANCH   7   8
HETATM    8  C   UNK N   1      24.545  20.471   3.775  0.00  0.00     0.045 C 
BRANCH   8   9
HETATM    9  C   UNK N   1      23.540  19.374   3.727  0.00  0.00    -0.024 A 
HETATM   10  C   UNK N   1      23.746  18.058   4.129  0.00  0.00     0.098 A 
HETATM   11  N   UNK N   1      22.606  17.344   3.940  0.00  0.00    -0.350 N 
HETATM   12  C   UNK N   1      21.711  18.209   3.426  0.00  0.00     0.136 A 
HETATM   13  H   UNK N   1      22.463  16.391   4.138  0.00  0.00     0.166 HD
HETATM   14  C   UNK N   1      22.241  19.449   3.279  0.00  0.00     0.067 A 
HETATM   15  N   UNK N   1      20.432  17.925   3.089  0.00  0.00    -0.176 N 
HETATM   16  C   UNK N   1      21.454  20.473   2.756  0.00  0.00     0.170 A 
HETATM   17  N   UNK N   1      20.167  20.187   2.413  0.00  0.00    -0.170 N 
HETATM   18  C   UNK N   1      19.652  18.927   2.578  0.00  0.00     0.679 A 
ATOM     19  HN  UNK N   1      19.576  20.923   2.027  1.00  0.00     0.186 HD
HETATM   20  N   UNK N   1      18.439  18.690   2.259  0.00  0.00    -0.234 N 
HETATM   21  H   UNK N   1      18.042  17.807   2.440  0.00  0.00     0.174 HD
ATOM     22  HN  UNK N   1      17.879  19.418   1.816  1.00  0.00     0.174 HD
HETATM   23  H   UNK N   1      20.070  17.017   3.207  0.00  0.00     0.186 HD
BRANCH  16  24
HETATM   24  O   UNK N   1      21.935  21.715   2.591  0.00  0.00    -0.345 OA
HETATM   25  H   UNK N   1      21.361  22.455   2.568  0.00  0.00     0.219 HD
ENDBRANCH  16  24
ENDBRANCH   8   9
ENDBRANCH   7   8
ENDBRANCH   5   7
BRANCH   6  26
HETATM   26  C   UNK N   1      28.921  17.463   6.795  0.00  0.00     0.252 C 
HETATM   27  N   UNK N   1      30.052  17.747   7.491  0.00  0.00    -0.343 N 
HETATM   28  H   UNK N   1      30.605  18.518   7.227  0.00  0.00     0.163 HD
HETATM   29  O   UNK N   1      28.187  16.556   7.157  0.00  0.00    -0.268 OA
BRANCH  27  30
HETATM   30  C   UNK N   1      30.454  16.924   8.619  0.00  0.00     0.183 C 
BRANCH  30  31
HETATM   31  C   UNK N   1      31.966  16.737   8.579  0.00  0.00     0.046 C 
BRANCH  31  32
HETATM   32  C   UNK N   1      32.647  17.986   8.043  0.00  0.00     0.112 C 
BRANCH  32  33
HETATM   33  C   UNK N   1      34.019  18.104   8.612  0.00  0.00     0.139 C 
HETATM   34  O   UNK N   1      34.412  17.282   9.423  0.00  0.00    -0.650 OA
BRANCH  33  35
HETATM   35  O   UNK N   1      34.835  19.101   8.217  0.00  0.00    -0.776 OA
HETATM   36  H   UNK N   1      35.736  18.931   8.024  0.00  0.00     0.167 HD
ENDBRANCH  33  35
ENDBRANCH  32  33
ENDBRANCH  31  32
ENDBRANCH  30  31
BRANCH  30  37
HETATM   37  C   UNK N   1      29.943  17.513   9.911  0.00  0.00     0.163 C 
HETATM   38  O   UNK N   1      29.753  18.718   9.989  0.00  0.00    -0.648 OA
BRANCH  37  39
HETATM   39  O   UNK N   1      29.658  16.728  10.967  0.00  0.00    -0.775 OA
HETATM   40  H   UNK N   1      28.863  16.291  11.203  0.00  0.00     0.167 HD
ENDBRANCH  37  39
ENDBRANCH  30  37
ENDBRANCH  27  30
ENDBRANCH   6  26
TORSDOF 12
ENDMDL
MODEL 3
REMARK VINA RESULT:      -7.6      1.553      2.142
REMARK  12 active torsions:
REMARK  status: ('A' for Active; 'I' for Inactive)
REMARK    1  A    between atoms: C_6  and  C_3 
REMARK    2  A    between atoms: C_10  and  C_3 
REMARK    3  A    between atoms: C_12  and  C_6 
REMARK    4  A    between atoms: C_8  and  C_7 
REMARK    5  A    between atoms: C_13  and  C_7 
REMARK    6  A    between atoms: C_14  and  C_8 
REMARK    7  A    between atoms: C_17  and  C_11 
REMARK    8  A    between atoms: C_19  and  C_13 
REMARK    9  A    between atoms: C_13  and  N_24 
REMARK   10  A    between atoms: O_29  and  C_14 
REMARK       I    between atoms: N_24  and  C_17 
REMARK   11  A    between atoms: O_31  and  C_18 
REMARK   12  A    between atoms: O_33  and  C_19 
ROOT
HETATM    1  C   UNK N   1      27.037  19.443   3.943  0.00  0.00     0.008 A 
HETATM    2  C   UNK N   1      26.990  17.107   4.576  0.00  0.00     0.008 A 
HETATM    3  C   UNK N   1      25.649  19.440   3.804  0.00  0.00     0.017 A 
HETATM    4  C   UNK N   1      25.604  17.113   4.464  0.00  0.00     0.017 A 
HETATM    5  C   UNK N   1      27.703  18.282   4.349  0.00  0.00    -0.058 A 
HETATM    6  C   UNK N   1      24.926  18.271   4.066  0.00  0.00     0.032 A 
ENDROOT
BRANCH   5   7
HETATM    7  C   UNK N   1      29.136  18.358   4.720  0.00  0.00     0.043 C 
BRANCH   7   8
HETATM    8  C   UNK N   1      29.589  17.171   5.530  0.00  0.00     0.045 C 
BRANCH   8   9
HETATM    9  C   UNK N   1      31.064  17.285   5.700  0.00  0.00    -0.024 A 
HETATM   10  C   UNK N   1      31.997  17.435   4.678  0.00  0.00     0.098 A 
HETATM   11  N   UNK N   1      33.244  17.504   5.210  0.00  0.00    -0.350 N 
HETATM   12  C   UNK N   1      33.081  17.396   6.543  0.00  0.00     0.136 A 
HETATM   13  H   UNK N   1      34.092  17.611   4.723  0.00  0.00     0.166 HD
HETATM   14  C   UNK N   1      31.775  17.259   6.879  0.00  0.00     0.067 A 
HETATM   15  N   UNK N   1      34.067  17.423   7.470  0.00  0.00    -0.176 N 
HETATM   16  C   UNK N   1      31.421  17.130   8.220  0.00  0.00     0.170 A 
HETATM   17  N   UNK N   1      32.413  17.154   9.154  0.00  0.00    -0.170 N 
HETATM   18  C   UNK N   1      33.726  17.301   8.790  0.00  0.00     0.679 A 
ATOM     19  HN  UNK N   1      32.174  17.059  10.141  1.00  0.00     0.186 HD
HETATM   20  N   UNK N   1      34.635  17.332   9.687  0.00  0.00    -0.234 N 
HETATM   21  H   UNK N   1      35.571  17.507   9.439  0.00  0.00     0.174 HD
ATOM     22  HN  UNK N   1      34.388  17.173  10.664  1.00  0.00     0.174 HD
HETATM   23  H   UNK N   1      35.008  17.526   7.201  0.00  0.00     0.186 HD
BRANCH  16  24
HETATM   24  O   UNK N   1      30.141  16.990   8.600  0.00  0.00    -0.345 OA
HETATM   25  H   UNK N   1      29.835  16.188   8.976  0.00  0.00     0.219 HD
ENDBRANCH  16  24
ENDBRANCH   8   9
ENDBRANCH   7   8
ENDBRANCH   5   7
BRANCH   6  26
HETATM   26  C   UNK N   1      23.528  18.401   4.455  0.00  0.00     0.252 C 
HETATM   27  N   UNK N   1      22.560  18.798   3.589  0.00  0.00    -0.343 N 
HETATM   28  H   UNK N   1      22.786  18.950   2.643  0.00  0.00     0.163 HD
HETATM   29  O   UNK N   1      23.247  18.136   5.614  0.00  0.00    -0.268 OA
BRANCH  27  30
HETATM   30  C   UNK N   1      21.195  18.998   4.046  0.00  0.00     0.183 C 
BRANCH  30  31
HETATM   31  C   UNK N   1      20.587  20.170   3.284  0.00  0.00     0.046 C 
BRANCH  31  32
HETATM   32  C   UNK N   1      21.538  20.656   2.201  0.00  0.00     0.112 C 
BRANCH  32  33
HETATM   33  C   UNK N   1      20.994  20.319   0.855  0.00  0.00     0.139 C 
HETATM   34  O   UNK N   1      21.114  21.112  -0.064  0.00  0.00    -0.650 OA
BRANCH  33  35
HETATM   35  O   UNK N   1      20.391  19.133   0.644  0.00  0.00    -0.776 OA
HETATM   36  H   UNK N   1      20.881  18.397   0.336  0.00  0.00     0.167 HD
ENDBRANCH  33  35
ENDBRANCH  32  33
ENDBRANCH  31  32
ENDBRANCH  30  31
BRANCH  30  37
HETATM   37  C   UNK N   1      20.406  17.718   3.933  0.00  0.00     0.163 C 
HETATM   38  O   UNK N   1      19.554  17.611   3.064  0.00  0.00    -0.648 OA
BRANCH  37  39
HETATM   39  O   UNK N   1      20.653  16.676   4.749  0.00  0.00    -0.775 OA
HETATM   40  H   UNK N   1      21.432  16.438   5.213  0.00  0.00     0.167 HD
ENDBRANCH  37  39
ENDBRANCH  30  37
ENDBRANCH  27  30
ENDBRANCH   6  26
TORSDOF 12
ENDMDL
MODEL 4
REMARK VINA RESULT:      -7.6      1.482      2.985
REMARK  12 active torsions:
REMARK  status: ('A' for Active; 'I' for Inactive)
REMARK    1  A    between atoms: C_6  and  C_3 
REMARK    2  A    between atoms: C_10  and  C_3 
REMARK    3  A    between atoms: C_12  and  C_6 
REMARK    4  A    between atoms: C_8  and  C_7 
REMARK    5  A    between atoms: C_13  and  C_7 
REMARK    6  A    between atoms: C_14  and  C_8 
REMARK    7  A    between atoms: C_17  and  C_11 
REMARK    8  A    between atoms: C_19  and  C_13 
REMARK    9  A    between atoms: C_13  and  N_24 
REMARK   10  A    between atoms: O_29  and  C_14 
REMARK       I    between atoms: N_24  and  C_17 
REMARK   11  A    between atoms: O_31  and  C_18 
REMARK   12  A    between atoms: O_33  and  C_19 
ROOT
HETATM    1  C   UNK N   1      26.661  20.426   6.340  0.00  0.00     0.008 A 
HETATM    2  C   UNK N   1      27.879  19.347   4.549  0.00  0.00     0.008 A 
HETATM    3  C   UNK N   1      25.642  20.768   5.450  0.00  0.00     0.017 A 
HETATM    4  C   UNK N   1      26.850  19.665   3.669  0.00  0.00     0.017 A 
HETATM    5  C   UNK N   1      27.768  19.698   5.892  0.00  0.00    -0.058 A 
HETATM    6  C   UNK N   1      25.734  20.386   4.108  0.00  0.00     0.032 A 
ENDROOT
BRANCH   5   7
HETATM    7  C   UNK N   1      28.719  19.139   6.882  0.00  0.00     0.043 C 
BRANCH   7   8
HETATM    8  C   UNK N   1      28.601  17.643   7.020  0.00  0.00     0.045 C 
BRANCH   8   9
HETATM    9  C   UNK N   1      29.902  17.054   6.602  0.00  0.00    -0.024 A 
HETATM   10  C   UNK N   1      30.196  16.522   5.350  0.00  0.00     0.098 A 
HETATM   11  N   UNK N   1      31.479  16.078   5.337  0.00  0.00    -0.350 N 
HETATM   12  C   UNK N   1      31.968  16.331   6.566  0.00  0.00     0.136 A 
HETATM   13  H   UNK N   1      31.954  15.658   4.585  0.00  0.00     0.166 HD
HETATM   14  C   UNK N   1      31.042  16.919   7.362  0.00  0.00     0.067 A 
HETATM   15  N   UNK N   1      33.222  16.057   6.996  0.00  0.00    -0.176 N 
HETATM   16  C   UNK N   1      31.375  17.250   8.674  0.00  0.00     0.170 A 
HETATM   17  N   UNK N   1      32.636  16.971   9.109  0.00  0.00    -0.170 N 
HETATM   18  C   UNK N   1      33.558  16.382   8.282  0.00  0.00     0.679 A 
ATOM     19  HN  UNK N   1      32.899  17.204  10.067  1.00  0.00     0.186 HD
HETATM   20  N   UNK N   1      34.736  16.143   8.712  0.00  0.00    -0.234 N 
HETATM   21  H   UNK N   1      35.423  15.786   8.104  0.00  0.00     0.174 HD
ATOM     22  HN  UNK N   1      34.966  16.323   9.690  1.00  0.00     0.174 HD
HETATM   23  H   UNK N   1      33.877  15.631   6.398  0.00  0.00     0.186 HD
BRANCH  16  24
HETATM   24  O   UNK N   1      30.491  17.831   9.500  0.00  0.00    -0.345 OA
HETATM   25  H   UNK N   1      30.761  18.179  10.327  0.00  0.00     0.219 HD
ENDBRANCH  16  24
ENDBRANCH   8   9
ENDBRANCH   7   8
ENDBRANCH   5   7
BRANCH   6  26
HETATM   26  C   UNK N   1      24.499  20.245   3.348  0.00  0.00     0.252 C 
HETATM   27  N   UNK N   1      23.393  19.642   3.853  0.00  0.00    -0.343 N 
HETATM   28  H   UNK N   1      23.390  19.335   4.789  0.00  0.00     0.163 HD
HETATM   29  O   UNK N   1      24.490  20.698   2.213  0.00  0.00    -0.268 OA
BRANCH  27  30
HETATM   30  C   UNK N   1      22.213  19.446   3.027  0.00  0.00     0.183 C 
BRANCH  30  31
HETATM   31  C   UNK N   1      21.561  18.121   3.406  0.00  0.00     0.046 C 
BRANCH  31  32
HETATM   32  C   UNK N   1      22.206  17.544   4.657  0.00  0.00     0.112 C 
BRANCH  32  33
HETATM   33  C   UNK N   1      21.258  17.626   5.804  0.00  0.00     0.139 C 
HETATM   34  O   UNK N   1      20.366  16.802   5.913  0.00  0.00    -0.650 OA
BRANCH  33  35
HETATM   35  O   UNK N   1      21.397  18.594   6.731  0.00  0.00    -0.776 OA
HETATM   36  H   UNK N   1      22.153  18.620   7.283  0.00  0.00     0.167 HD
ENDBRANCH  33  35
ENDBRANCH  32  33
ENDBRANCH  31  32
ENDBRANCH  30  31
BRANCH  30  37
HETATM   37  C   UNK N   1      21.291  20.635   3.131  0.00  0.00     0.163 C 
HETATM   38  O   UNK N   1      20.309  20.573   3.854  0.00  0.00    -0.648 OA
BRANCH  37  39
HETATM   39  O   UNK N   1      21.555  21.778   2.468  0.00  0.00    -0.775 OA
HETATM   40  H   UNK N   1      22.159  22.468   2.663  0.00  0.00     0.167 HD
ENDBRANCH  37  39
ENDBRANCH  30  37
ENDBRANCH  27  30
ENDBRANCH   6  26
TORSDOF 12
ENDMDL
MODEL 5
REMARK VINA RESULT:      -7.6      2.719     10.063
REMARK  12 active torsions:
REMARK  status: ('A' for Active; 'I' for Inactive)
REMARK    1  A    between atoms: C_6  and  C_3 
REMARK    2  A    between atoms: C_10  and  C_3 
REMARK    3  A    between atoms: C_12  and  C_6 
REMARK    4  A    between atoms: C_8  and  C_7 
REMARK    5  A    between atoms: C_13  and  C_7 
REMARK    6  A    between atoms: C_14  and  C_8 
REMARK    7  A    between atoms: C_17  and  C_11 
REMARK    8  A    between atoms: C_19  and  C_13 
REMARK    9  A    between atoms: C_13  and  N_24 
REMARK   10  A    between atoms: O_29  and  C_14 
REMARK       I    between atoms: N_24  and  C_17 
REMARK   11  A    between atoms: O_31  and  C_18 
REMARK   12  A    between atoms: O_33  and  C_19 
ROOT
HETATM    1  C   UNK N   1      25.585  18.120   3.370  0.00  0.00     0.008 A 
HETATM    2  C   UNK N   1      26.682  20.227   3.835  0.00  0.00     0.008 A 
HETATM    3  C   UNK N   1      26.446  17.469   4.255  0.00  0.00     0.017 A 
HETATM    4  C   UNK N   1      27.521  19.581   4.738  0.00  0.00     0.017 A 
HETATM    5  C   UNK N   1      25.692  19.501   3.177  0.00  0.00    -0.058 A 
HETATM    6  C   UNK N   1      27.418  18.201   4.943  0.00  0.00     0.032 A 
ENDROOT
BRANCH   5   7
HETATM    7  C   UNK N   1      24.631  20.214   2.425  0.00  0.00     0.043 C 
BRANCH   7   8
HETATM    8  C   UNK N   1      23.518  20.702   3.316  0.00  0.00     0.045 C 
BRANCH   8   9
HETATM    9  C   UNK N   1      22.256  20.077   2.833  0.00  0.00    -0.024 A 
HETATM   10  C   UNK N   1      21.530  20.461   1.709  0.00  0.00     0.098 A 
HETATM   11  N   UNK N   1      20.438  19.664   1.583  0.00  0.00    -0.350 N 
HETATM   12  C   UNK N   1      20.489  18.803   2.617  0.00  0.00     0.136 A 
HETATM   13  H   UNK N   1      19.750  19.707   0.881  0.00  0.00     0.166 HD
HETATM   14  C   UNK N   1      21.575  19.023   3.399  0.00  0.00     0.067 A 
HETATM   15  N   UNK N   1      19.596  17.820   2.880  0.00  0.00    -0.176 N 
HETATM   16  C   UNK N   1      21.786  18.224   4.520  0.00  0.00     0.170 A 
HETATM   17  N   UNK N   1      20.886  17.236   4.788  0.00  0.00    -0.170 N 
HETATM   18  C   UNK N   1      19.800  17.029   3.978  0.00  0.00     0.679 A 
ATOM     19  HN  UNK N   1      21.022  16.641   5.605  1.00  0.00     0.186 HD
HETATM   20  N   UNK N   1      18.979  16.088   4.245  0.00  0.00    -0.234 N 
HETATM   21  H   UNK N   1      18.236  15.888   3.630  0.00  0.00     0.174 HD
ATOM     22  HN  UNK N   1      19.093  15.542   5.099  1.00  0.00     0.174 HD
HETATM   23  H   UNK N   1      18.817  17.679   2.295  0.00  0.00     0.186 HD
BRANCH  16  24
HETATM   24  O   UNK N   1      22.845  18.405   5.325  0.00  0.00    -0.345 OA
HETATM   25  H   UNK N   1      23.562  17.802   5.321  0.00  0.00     0.219 HD
ENDBRANCH  16  24
ENDBRANCH   8   9
ENDBRANCH   7   8
ENDBRANCH   5   7
BRANCH   6  26
HETATM   26  C   UNK N   1      27.908  17.671   6.209  0.00  0.00     0.252 C 
HETATM   27  N   UNK N   1      28.971  18.203   6.865  0.00  0.00    -0.343 N 
HETATM   28  H   UNK N   1      29.403  19.015   6.513  0.00  0.00     0.163 HD
HETATM   29  O   UNK N   1      27.317  16.708   6.675  0.00  0.00    -0.268 OA
BRANCH  27  30
HETATM   30  C   UNK N   1      29.478  17.586   8.079  0.00  0.00     0.183 C 
BRANCH  30  31
HETATM   31  C   UNK N   1      30.999  17.679   8.081  0.00  0.00     0.046 C 
BRANCH  31  32
HETATM   32  C   UNK N   1      31.569  17.185   6.760  0.00  0.00     0.112 C 
BRANCH  32  33
HETATM   33  C   UNK N   1      33.058  17.198   6.809  0.00  0.00     0.139 C 
HETATM   34  O   UNK N   1      33.686  17.876   6.013  0.00  0.00    -0.650 OA
BRANCH  33  35
HETATM   35  O   UNK N   1      33.712  16.481   7.744  0.00  0.00    -0.776 OA
HETATM   36  H   UNK N   1      34.302  16.900   8.339  0.00  0.00     0.167 HD
ENDBRANCH  33  35
ENDBRANCH  32  33
ENDBRANCH  31  32
ENDBRANCH  30  31
BRANCH  30  37
HETATM   37  C   UNK N   1      28.825  18.195   9.294  0.00  0.00     0.163 C 
HETATM   38  O   UNK N   1      29.517  18.744  10.138  0.00  0.00    -0.648 OA
BRANCH  37  39
HETATM   39  O   UNK N   1      27.486  18.178   9.445  0.00  0.00    -0.775 OA
HETATM   40  H   UNK N   1      26.943  18.573  10.098  0.00  0.00     0.167 HD
ENDBRANCH  37  39
ENDBRANCH  30  37
ENDBRANCH  27  30
ENDBRANCH   6  26
TORSDOF 12
ENDMDL
MODEL 6
REMARK VINA RESULT:      -7.5      4.730     12.267
REMARK  12 active torsions:
REMARK  status: ('A' for Active; 'I' for Inactive)
REMARK    1  A    between atoms: C_6  and  C_3 
REMARK    2  A    between atoms: C_10  and  C_3 
REMARK    3  A    between atoms: C_12  and  C_6 
REMARK    4  A    between atoms: C_8  and  C_7 
REMARK    5  A    between atoms: C_13  and  C_7 
REMARK    6  A    between atoms: C_14  and  C_8 
REMARK    7  A    between atoms: C_17  and  C_11 
REMARK    8  A    between atoms: C_19  and  C_13 
REMARK    9  A    between atoms: C_13  and  N_24 
REMARK   10  A    between atoms: O_29  and  C_14 
REMARK       I    between atoms: N_24  and  C_17 
REMARK   11  A    between atoms: O_31  and  C_18 
REMARK   12  A    between atoms: O_33  and  C_19 
ROOT
HETATM    1  C   UNK N   1      33.528  17.807   7.914  0.00  0.00     0.008 A 
HETATM    2  C   UNK N   1      32.335  15.785   8.502  0.00  0.00     0.008 A 
HETATM    3  C   UNK N   1      34.532  17.489   8.830  0.00  0.00     0.017 A 
HETATM    4  C   UNK N   1      33.350  15.456   9.395  0.00  0.00     0.017 A 
HETATM    5  C   UNK N   1      32.442  16.944   7.737  0.00  0.00    -0.058 A 
HETATM    6  C   UNK N   1      34.445  16.309   9.575  0.00  0.00     0.032 A 
ENDROOT
BRANCH   5   7
HETATM    7  C   UNK N   1      31.513  17.168   6.603  0.00  0.00     0.043 C 
BRANCH   7   8
HETATM    8  C   UNK N   1      30.194  16.463   6.787  0.00  0.00     0.045 C 
BRANCH   8   9
HETATM    9  C   UNK N   1      29.245  17.443   7.386  0.00  0.00    -0.024 A 
HETATM   10  C   UNK N   1      28.910  17.540   8.732  0.00  0.00     0.098 A 
HETATM   11  N   UNK N   1      28.017  18.549   8.904  0.00  0.00    -0.350 N 
HETATM   12  C   UNK N   1      27.804  19.064   7.679  0.00  0.00     0.136 A 
HETATM   13  H   UNK N   1      27.610  18.843   9.750  0.00  0.00     0.166 HD
HETATM   14  C   UNK N   1      28.528  18.419   6.731  0.00  0.00     0.067 A 
HETATM   15  N   UNK N   1      26.985  20.100   7.381  0.00  0.00    -0.176 N 
HETATM   16  C   UNK N   1      28.429  18.819   5.400  0.00  0.00     0.170 A 
HETATM   17  N   UNK N   1      27.601  19.860   5.100  0.00  0.00    -0.170 N 
HETATM   18  C   UNK N   1      26.885  20.501   6.077  0.00  0.00     0.679 A 
ATOM     19  HN  UNK N   1      27.513  20.167   4.131  1.00  0.00     0.186 HD
HETATM   20  N   UNK N   1      26.127  21.481   5.769  0.00  0.00    -0.234 N 
HETATM   21  H   UNK N   1      25.664  21.991   6.473  0.00  0.00     0.174 HD
ATOM     22  HN  UNK N   1      26.000  21.736   4.789  1.00  0.00     0.174 HD
HETATM   23  H   UNK N   1      26.471  20.553   8.088  0.00  0.00     0.186 HD
BRANCH  16  24
HETATM   24  O   UNK N   1      29.125  18.210   4.428  0.00  0.00    -0.345 OA
HETATM   25  H   UNK N   1      29.566  18.706   3.767  0.00  0.00     0.219 HD
ENDBRANCH  16  24
ENDBRANCH   8   9
ENDBRANCH   7   8
ENDBRANCH   5   7
BRANCH   6  26
HETATM   26  C   UNK N   1      35.680  15.722  10.077  0.00  0.00     0.252 C 
HETATM   27  N   UNK N   1      36.006  14.419   9.879  0.00  0.00    -0.343 N 
HETATM   28  H   UNK N   1      35.423  13.850   9.326  0.00  0.00     0.163 HD
HETATM   29  O   UNK N   1      36.433  16.457  10.698  0.00  0.00    -0.268 OA
BRANCH  27  30
HETATM   30  C   UNK N   1      37.207  13.856  10.475  0.00  0.00     0.183 C 
BRANCH  30  31
HETATM   31  C   UNK N   1      36.807  12.724  11.414  0.00  0.00     0.046 C 
BRANCH  31  32
HETATM   32  C   UNK N   1      36.700  13.227  12.845  0.00  0.00     0.112 C 
BRANCH  32  33
HETATM   33  C   UNK N   1      35.267  13.368  13.231  0.00  0.00     0.139 C 
HETATM   34  O   UNK N   1      34.959  13.418  14.410  0.00  0.00    -0.650 OA
BRANCH  33  35
HETATM   35  O   UNK N   1      34.315  13.464  12.282  0.00  0.00    -0.776 OA
HETATM   36  H   UNK N   1      33.915  14.288  12.091  0.00  0.00     0.167 HD
ENDBRANCH  33  35
ENDBRANCH  32  33
ENDBRANCH  31  32
ENDBRANCH  30  31
BRANCH  30  37
HETATM   37  C   UNK N   1      38.187  13.447   9.404  0.00  0.00     0.163 C 
HETATM   38  O   UNK N   1      37.869  13.547   8.228  0.00  0.00    -0.648 OA
BRANCH  37  39
HETATM   39  O   UNK N   1      39.420  13.010   9.722  0.00  0.00    -0.775 OA
HETATM   40  H   UNK N   1      39.942  13.164  10.486  0.00  0.00     0.167 HD
ENDBRANCH  37  39
ENDBRANCH  30  37
ENDBRANCH  27  30
ENDBRANCH   6  26
TORSDOF 12
ENDMDL
MODEL 7
REMARK VINA RESULT:      -7.5      3.965      9.239
REMARK  12 active torsions:
REMARK  status: ('A' for Active; 'I' for Inactive)
REMARK    1  A    between atoms: C_6  and  C_3 
REMARK    2  A    between atoms: C_10  and  C_3 
REMARK    3  A    between atoms: C_12  and  C_6 
REMARK    4  A    between atoms: C_8  and  C_7 
REMARK    5  A    between atoms: C_13  and  C_7 
REMARK    6  A    between atoms: C_14  and  C_8 
REMARK    7  A    between atoms: C_17  and  C_11 
REMARK    8  A    between atoms: C_19  and  C_13 
REMARK    9  A    between atoms: C_13  and  N_24 
REMARK   10  A    between atoms: O_29  and  C_14 
REMARK       I    between atoms: N_24  and  C_17 
REMARK   11  A    between atoms: O_31  and  C_18 
REMARK   12  A    between atoms: O_33  and  C_19 
ROOT
HETATM    1  C   UNK N   1      23.625  14.654   3.721  0.00  0.00     0.008 A 
HETATM    2  C   UNK N   1      24.302  14.512   1.401  0.00  0.00     0.008 A 
HETATM    3  C   UNK N   1      24.857  15.219   4.053  0.00  0.00     0.017 A 
HETATM    4  C   UNK N   1      25.519  15.101   1.729  0.00  0.00     0.017 A 
HETATM    5  C   UNK N   1      23.342  14.320   2.392  0.00  0.00    -0.058 A 
HETATM    6  C   UNK N   1      25.810  15.445   3.054  0.00  0.00     0.032 A 
ENDROOT
BRANCH   5   7
HETATM    7  C   UNK N   1      21.958  13.946   2.016  0.00  0.00     0.043 C 
BRANCH   7   8
HETATM    8  C   UNK N   1      20.919  14.706   2.799  0.00  0.00     0.045 C 
BRANCH   8   9
HETATM    9  C   UNK N   1      20.574  15.924   2.015  0.00  0.00    -0.024 A 
HETATM   10  C   UNK N   1      20.073  15.948   0.717  0.00  0.00     0.098 A 
HETATM   11  N   UNK N   1      19.879  17.235   0.330  0.00  0.00    -0.350 N 
HETATM   12  C   UNK N   1      20.257  17.994   1.377  0.00  0.00     0.136 A 
HETATM   13  H   UNK N   1      19.533  17.549  -0.535  0.00  0.00     0.166 HD
HETATM   14  C   UNK N   1      20.687  17.236   2.416  0.00  0.00     0.067 A 
HETATM   15  N   UNK N   1      20.225  19.346   1.433  0.00  0.00    -0.176 N 
HETATM   16  C   UNK N   1      21.122  17.858   3.585  0.00  0.00     0.170 A 
HETATM   17  N   UNK N   1      21.092  19.219   3.641  0.00  0.00    -0.170 N 
HETATM   18  C   UNK N   1      20.646  19.963   2.579  0.00  0.00     0.679 A 
ATOM     19  HN  UNK N   1      21.407  19.693   4.487  1.00  0.00     0.186 HD
HETATM   20  N   UNK N   1      20.617  21.237   2.664  0.00  0.00    -0.234 N 
HETATM   21  H   UNK N   1      20.233  21.774   1.933  0.00  0.00     0.174 HD
ATOM     22  HN  UNK N   1      20.994  21.699   3.491  1.00  0.00     0.174 HD
HETATM   23  H   UNK N   1      19.906  19.873   0.666  0.00  0.00     0.186 HD
BRANCH  16  24
HETATM   24  O   UNK N   1      21.557  17.150   4.639  0.00  0.00    -0.345 OA
HETATM   25  H   UNK N   1      21.765  16.240   4.555  0.00  0.00     0.219 HD
ENDBRANCH  16  24
ENDBRANCH   8   9
ENDBRANCH   7   8
ENDBRANCH   5   7
BRANCH   6  26
HETATM   26  C   UNK N   1      26.803  16.488   3.277  0.00  0.00     0.252 C 
HETATM   27  N   UNK N   1      26.504  17.669   3.875  0.00  0.00    -0.343 N 
HETATM   28  H   UNK N   1      25.598  17.819   4.231  0.00  0.00     0.163 HD
HETATM   29  O   UNK N   1      27.942  16.261   2.898  0.00  0.00    -0.268 OA
BRANCH  27  30
HETATM   30  C   UNK N   1      27.507  18.714   3.995  0.00  0.00     0.183 C 
BRANCH  30  31
HETATM   31  C   UNK N   1      26.835  20.068   3.799  0.00  0.00     0.046 C 
BRANCH  31  32
HETATM   32  C   UNK N   1      25.327  19.946   3.958  0.00  0.00     0.112 C 
BRANCH  32  33
HETATM   33  C   UNK N   1      24.637  20.657   2.845  0.00  0.00     0.139 C 
HETATM   34  O   UNK N   1      25.122  20.648   1.727  0.00  0.00    -0.650 OA
BRANCH  33  35
HETATM   35  O   UNK N   1      23.468  21.291   3.066  0.00  0.00    -0.776 OA
HETATM   36  H   UNK N   1      23.378  21.889   3.781  0.00  0.00     0.167 HD
ENDBRANCH  33  35
ENDBRANCH  32  33
ENDBRANCH  31  32
ENDBRANCH  30  31
BRANCH  30  37
HETATM   37  C   UNK N   1      28.253  18.583   5.300  0.00  0.00     0.163 C 
HETATM   38  O   UNK N   1      27.967  19.318   6.233  0.00  0.00    -0.648 OA
BRANCH  37  39
HETATM   39  O   UNK N   1      29.203  17.643   5.464  0.00  0.00    -0.775 OA
HETATM   40  H   UNK N   1      30.003  17.498   4.997  0.00  0.00     0.167 HD
ENDBRANCH  37  39
ENDBRANCH  30  37
ENDBRANCH  27  30
ENDBRANCH   6  26
TORSDOF 12
ENDMDL
MODEL 8
REMARK VINA RESULT:      -7.5      4.901     12.090
REMARK  12 active torsions:
REMARK  status: ('A' for Active; 'I' for Inactive)
REMARK    1  A    between atoms: C_6  and  C_3 
REMARK    2  A    between atoms: C_10  and  C_3 
REMARK    3  A    between atoms: C_12  and  C_6 
REMARK    4  A    between atoms: C_8  and  C_7 
REMARK    5  A    between atoms: C_13  and  C_7 
REMARK    6  A    between atoms: C_14  and  C_8 
REMARK    7  A    between atoms: C_17  and  C_11 
REMARK    8  A    between atoms: C_19  and  C_13 
REMARK    9  A    between atoms: C_13  and  N_24 
REMARK   10  A    between atoms: O_29  and  C_14 
REMARK       I    between atoms: N_24  and  C_17 
REMARK   11  A    between atoms: O_31  and  C_18 
REMARK   12  A    between atoms: O_33  and  C_19 
ROOT
HETATM    1  C   UNK N   1      33.125  17.373   6.201  0.00  0.00     0.008 A 
HETATM    2  C   UNK N   1      31.492  16.942   7.936  0.00  0.00     0.008 A 
HETATM    3  C   UNK N   1      34.128  17.485   7.165  0.00  0.00     0.017 A 
HETATM    4  C   UNK N   1      32.498  17.027   8.892  0.00  0.00     0.017 A 
HETATM    5  C   UNK N   1      31.812  17.082   6.587  0.00  0.00    -0.058 A 
HETATM    6  C   UNK N   1      33.816  17.311   8.517  0.00  0.00     0.032 A 
ENDROOT
BRANCH   5   7
HETATM    7  C   UNK N   1      30.811  16.733   5.551  0.00  0.00     0.043 C 
BRANCH   7   8
HETATM    8  C   UNK N   1      29.398  16.772   6.074  0.00  0.00     0.045 C 
BRANCH   8   9
HETATM    9  C   UNK N   1      28.761  18.007   5.541  0.00  0.00    -0.024 A 
HETATM   10  C   UNK N   1      28.797  18.442   4.220  0.00  0.00     0.098 A 
HETATM   11  N   UNK N   1      28.106  19.606   4.107  0.00  0.00    -0.350 N 
HETATM   12  C   UNK N   1      27.653  19.885   5.344  0.00  0.00     0.136 A 
HETATM   13  H   UNK N   1      27.966  20.136   3.291  0.00  0.00     0.166 HD
HETATM   14  C   UNK N   1      28.031  18.941   6.241  0.00  0.00     0.067 A 
HETATM   15  N   UNK N   1      26.905  20.957   5.695  0.00  0.00    -0.176 N 
HETATM   16  C   UNK N   1      27.651  19.071   7.575  0.00  0.00     0.170 A 
HETATM   17  N   UNK N   1      26.901  20.152   7.930  0.00  0.00    -0.170 N 
HETATM   18  C   UNK N   1      26.525  21.089   7.003  0.00  0.00     0.679 A 
ATOM     19  HN  UNK N   1      26.614  20.266   8.903  1.00  0.00     0.186 HD
HETATM   20  N   UNK N   1      25.812  22.086   7.361  0.00  0.00    -0.234 N 
HETATM   21  H   UNK N   1      25.479  22.724   6.689  0.00  0.00     0.174 HD
ATOM     22  HN  UNK N   1      25.586  22.220   8.347  1.00  0.00     0.174 HD
HETATM   23  H   UNK N   1      26.641  21.627   5.024  0.00  0.00     0.186 HD
BRANCH  16  24
HETATM   24  O   UNK N   1      28.003  18.163   8.500  0.00  0.00    -0.345 OA
HETATM   25  H   UNK N   1      28.065  18.396   9.405  0.00  0.00     0.219 HD
ENDBRANCH  16  24
ENDBRANCH   8   9
ENDBRANCH   7   8
ENDBRANCH   5   7
BRANCH   6  26
HETATM   26  C   UNK N   1      34.880  16.885   9.417  0.00  0.00     0.252 C 
HETATM   27  N   UNK N   1      35.215  15.580   9.589  0.00  0.00    -0.343 N 
HETATM   28  H   UNK N   1      34.771  14.888   9.049  0.00  0.00     0.163 HD
HETATM   29  O   UNK N   1      35.476  17.759  10.027  0.00  0.00    -0.268 OA
BRANCH  27  30
HETATM   30  C   UNK N   1      36.223  15.197  10.565  0.00  0.00     0.183 C 
BRANCH  30  31
HETATM   31  C   UNK N   1      35.542  14.463  11.714  0.00  0.00     0.046 C 
BRANCH  31  32
HETATM   32  C   UNK N   1      36.571  13.772  12.594  0.00  0.00     0.112 C 
BRANCH  32  33
HETATM   33  C   UNK N   1      36.170  13.874  14.026  0.00  0.00     0.139 C 
HETATM   34  O   UNK N   1      35.043  13.556  14.364  0.00  0.00    -0.650 OA
BRANCH  33  35
HETATM   35  O   UNK N   1      37.056  14.294  14.950  0.00  0.00    -0.776 OA
HETATM   36  H   UNK N   1      37.701  13.708  15.294  0.00  0.00     0.167 HD
ENDBRANCH  33  35
ENDBRANCH  32  33
ENDBRANCH  31  32
ENDBRANCH  30  31
BRANCH  30  37
HETATM   37  C   UNK N   1      37.326  14.410   9.903  0.00  0.00     0.163 C 
HETATM   38  O   UNK N   1      37.041  13.523   9.112  0.00  0.00    -0.648 OA
BRANCH  37  39
HETATM   39  O   UNK N   1      38.621  14.695  10.140  0.00  0.00    -0.775 OA
HETATM   40  H   UNK N   1      39.232  14.301  10.731  0.00  0.00     0.167 HD
ENDBRANCH  37  39
ENDBRANCH  30  37
ENDBRANCH  27  30
ENDBRANCH   6  26
TORSDOF 12
ENDMDL
MODEL 9
REMARK VINA RESULT:      -7.4      4.564     12.581
REMARK  12 active torsions:
REMARK  status: ('A' for Active; 'I' for Inactive)
REMARK    1  A    between atoms: C_6  and  C_3 
REMARK    2  A    between atoms: C_10  and  C_3 
REMARK    3  A    between atoms: C_12  and  C_6 
REMARK    4  A    between atoms: C_8  and  C_7 
REMARK    5  A    between atoms: C_13  and  C_7 
REMARK    6  A    between atoms: C_14  and  C_8 
REMARK    7  A    between atoms: C_17  and  C_11 
REMARK    8  A    between atoms: C_19  and  C_13 
REMARK    9  A    between atoms: C_13  and  N_24 
REMARK   10  A    between atoms: O_29  and  C_14 
REMARK       I    between atoms: N_24  and  C_17 
REMARK   11  A    between atoms: O_31  and  C_18 
REMARK   12  A    between atoms: O_33  and  C_19 
ROOT
HETATM    1  C   UNK N   1      32.110  16.013   8.917  0.00  0.00     0.008 A 
HETATM    2  C   UNK N   1      33.355  18.024   8.403  0.00  0.00     0.008 A 
HETATM    3  C   UNK N   1      33.300  15.339   9.194  0.00  0.00     0.017 A 
HETATM    4  C   UNK N   1      34.538  17.358   8.706  0.00  0.00     0.017 A 
HETATM    5  C   UNK N   1      32.138  17.360   8.542  0.00  0.00    -0.058 A 
HETATM    6  C   UNK N   1      34.521  16.012   9.089  0.00  0.00     0.032 A 
ENDROOT
BRANCH   5   7
HETATM    7  C   UNK N   1      30.870  18.125   8.482  0.00  0.00     0.043 C 
BRANCH   7   8
HETATM    8  C   UNK N   1      29.704  17.281   8.035  0.00  0.00     0.045 C 
BRANCH   8   9
HETATM    9  C   UNK N   1      29.459  17.586   6.599  0.00  0.00    -0.024 A 
HETATM   10  C   UNK N   1      30.137  17.034   5.517  0.00  0.00     0.098 A 
HETATM   11  N   UNK N   1      29.642  17.549   4.362  0.00  0.00    -0.350 N 
HETATM   12  C   UNK N   1      28.673  18.409   4.728  0.00  0.00     0.136 A 
HETATM   13  H   UNK N   1      29.932  17.338   3.446  0.00  0.00     0.166 HD
HETATM   14  C   UNK N   1      28.534  18.462   6.076  0.00  0.00     0.067 A 
HETATM   15  N   UNK N   1      27.904  19.146   3.893  0.00  0.00    -0.176 N 
HETATM   16  C   UNK N   1      27.576  19.305   6.635  0.00  0.00     0.170 A 
HETATM   17  N   UNK N   1      26.803  20.050   5.794  0.00  0.00    -0.170 N 
HETATM   18  C   UNK N   1      26.959  19.974   4.434  0.00  0.00     0.679 A 
ATOM     19  HN  UNK N   1      26.097  20.675   6.184  1.00  0.00     0.186 HD
HETATM   20  N   UNK N   1      26.213  20.674   3.670  0.00  0.00    -0.234 N 
HETATM   21  H   UNK N   1      26.270  20.572   2.692  0.00  0.00     0.174 HD
ATOM     22  HN  UNK N   1      25.555  21.341   4.074  1.00  0.00     0.174 HD
HETATM   23  H   UNK N   1      28.023  19.088   2.918  0.00  0.00     0.186 HD
BRANCH  16  24
HETATM   24  O   UNK N   1      27.402  19.392   7.963  0.00  0.00    -0.345 OA
HETATM   25  H   UNK N   1      26.591  19.690   8.324  0.00  0.00     0.219 HD
ENDBRANCH  16  24
ENDBRANCH   8   9
ENDBRANCH   7   8
ENDBRANCH   5   7
BRANCH   6  26
HETATM   26  C   UNK N   1      35.645  15.521   9.876  0.00  0.00     0.252 C 
HETATM   27  N   UNK N   1      36.008  14.213   9.898  0.00  0.00    -0.343 N 
HETATM   28  H   UNK N   1      35.539  13.568   9.321  0.00  0.00     0.163 HD
HETATM   29  O   UNK N   1      36.268  16.344  10.530  0.00  0.00    -0.268 OA
BRANCH  27  30
HETATM   30  C   UNK N   1      37.080  13.757  10.767  0.00  0.00     0.183 C 
BRANCH  30  31
HETATM   31  C   UNK N   1      36.690  12.411  11.366  0.00  0.00     0.046 C 
BRANCH  31  32
HETATM   32  C   UNK N   1      36.763  12.458  12.885  0.00  0.00     0.112 C 
BRANCH  32  33
HETATM   33  C   UNK N   1      36.142  13.716  13.387  0.00  0.00     0.139 C 
HETATM   34  O   UNK N   1      34.972  13.956  13.139  0.00  0.00    -0.650 OA
BRANCH  33  35
HETATM   35  O   UNK N   1      36.862  14.578  14.131  0.00  0.00    -0.776 OA
HETATM   36  H   UNK N   1      36.724  15.502  14.058  0.00  0.00     0.167 HD
ENDBRANCH  33  35
ENDBRANCH  32  33
ENDBRANCH  31  32
ENDBRANCH  30  31
BRANCH  30  37
HETATM   37  C   UNK N   1      38.392  13.739  10.022  0.00  0.00     0.163 C 
HETATM   38  O   UNK N   1      38.876  12.670   9.682  0.00  0.00    -0.648 OA
BRANCH  37  39
HETATM   39  O   UNK N   1      39.018  14.885   9.691  0.00  0.00    -0.775 OA
HETATM   40  H   UNK N   1      39.637  15.066   9.011  0.00  0.00     0.167 HD
ENDBRANCH  37  39
ENDBRANCH  30  37
ENDBRANCH  27  30
ENDBRANCH   6  26
TORSDOF 12
ENDMDL
