REMARK  8 active torsions:
REMARK  status: ('A' for Active; 'I' for Inactive)
REMARK    1  A    between atoms: C_2  and  C_1 
REMARK    2  A    between atoms: C_9  and  C_1 
REMARK    3  A    between atoms: C_16  and  C_2 
REMARK    4  A    between atoms: N_22  and  C_9 
REMARK    5  A    between atoms: C_17  and  C_11 
REMARK    6  A    between atoms: C_17  and  C_14 
REMARK    7  A    between atoms: O_24  and  C_15 
REMARK    8  A    between atoms: O_25  and  C_16 
ROOT
HETATM    1  C   UNK N   1       0.679   0.407   0.029  0.00  0.00     0.051 C 
HETATM    2  N   UNK N   1      -0.562   0.798  -0.006  0.00  0.00    -0.388 N 
ATOM      3  HN  UNK N   1      -1.254   0.051   0.050  1.00  0.00     0.159 HD
ENDROOT
BRANCH   1   4
HETATM    4  C   UNK N   1       1.807   1.432  -0.026  0.00  0.00    -0.009 A 
HETATM    5  C   UNK N   1       3.124   1.077  -0.345  0.00  0.00     0.015 A 
HETATM    6  C   UNK N   1       4.149   2.026  -0.398  0.00  0.00     0.024 A 
HETATM    7  C   UNK N   1       3.870   3.367  -0.143  0.00  0.00     0.034 A 
HETATM    8  C   UNK N   1       2.567   3.756   0.160  0.00  0.00     0.024 A 
HETATM    9 Cl   UNK N   1       5.150   4.560  -0.205  0.00  0.00    -0.084 Cl
HETATM   10  C   UNK N   1       1.552   2.798   0.214  0.00  0.00     0.015 A 
ENDBRANCH   1   4
BRANCH   1  11
HETATM   11  C   UNK N   1       0.832  -1.113   0.090  0.00  0.00     0.027 A 
HETATM   12  C   UNK N   1      -0.379  -1.837  -0.013  0.00  0.00     0.058 A 
HETATM   13  C   UNK N   1      -0.430  -3.225   0.040  0.00  0.00     0.117 A 
HETATM   14  C   UNK N   1       0.741  -3.952   0.192  0.00  0.00     0.045 A 
HETATM   15  F   UNK N   1      -1.623  -3.861  -0.052  0.00  0.00    -0.206 F 
HETATM   16  C   UNK N   1       1.956  -3.283   0.309  0.00  0.00     0.040 A 
HETATM   17  C   UNK N   1       2.025  -1.883   0.271  0.00  0.00     0.078 A 
BRANCH  17  18
HETATM   18  O   UNK N   1       3.228  -1.331   0.442  0.00  0.00    -0.360 OA
HETATM   19  H   UNK N   1       3.986  -1.868   0.562  0.00  0.00     0.217 HD
ENDBRANCH  17  18
ENDBRANCH   1  11
BRANCH   2  20
HETATM   20  C   UNK N   1      -1.107   2.128  -0.111  0.00  0.00     0.120 C 
BRANCH  20  21
HETATM   21  C   UNK N   1      -2.517   2.046  -0.688  0.00  0.00     0.027 C 
BRANCH  21  22
HETATM   22  C   UNK N   1      -3.314   0.933  -0.016  0.00  0.00     0.085 C 
BRANCH  22  23
HETATM   23  C   UNK N   1      -4.762   1.264   0.043  0.00  0.00     0.108 C 
HETATM   24  N   UNK N   1      -5.621   0.481  -0.495  0.00  0.00    -0.384 N 
HETATM   25  H   UNK N   1      -6.472   0.752  -0.909  0.00  0.00     0.157 HD
ATOM     26  HN  UNK N   1      -5.403  -0.515  -0.495  1.00  0.00     0.157 HD
BRANCH  23  27
HETATM   27  O   UNK N   1      -5.173   2.361   0.706  0.00  0.00    -0.350 OA
HETATM   28  H   UNK N   1      -4.654   2.990   1.167  0.00  0.00     0.219 HD
ENDBRANCH  23  27
ENDBRANCH  22  23
ENDBRANCH  21  22
ENDBRANCH  20  21
ENDBRANCH   2  20
TORSDOF 8
