REMARK  5 active torsions:
REMARK  status: ('A' for Active; 'I' for Inactive)
REMARK    1  A    between atoms: C_2  and  C_1 
REMARK    2  A    between atoms: O_4  and  C_1 
REMARK    3  A    between atoms: C_3  and  C_2 
REMARK    4  A    between atoms: C_2  and  N_6 
REMARK    5  A    between atoms: O_7  and  C_3 
ROOT
HETATM    1  C   UNK N   1      -0.181  -0.560  -0.000  0.00  0.00     0.197 C 
ENDROOT
BRANCH   1   2
HETATM    2  C   UNK N   1       0.927   0.468   0.000  0.00  0.00     0.165 C 
HETATM    3  O   UNK N   1       0.683   1.659   0.000  0.00  0.00    -0.648 OA
BRANCH   2   4
HETATM    4  O   UNK N   1       2.212   0.050   0.000  0.00  0.00    -0.775 OA
HETATM    5  H   UNK N   1       2.407  -0.867  -0.000  0.00  0.00     0.167 HD
ENDBRANCH   2   4
ENDBRANCH   1   2
BRANCH   1   6
HETATM    6  C   UNK N   1      -1.701  -0.354   0.000  0.00  0.00     0.199 C 
BRANCH   6   7
HETATM    7  O   UNK N   1      -2.077   0.988  -0.000  0.00  0.00    -0.398 OA
HETATM    8  H   UNK N   1      -1.399   1.681  -0.000  0.00  0.00     0.209 HD
ENDBRANCH   6   7
ENDBRANCH   1   6
BRANCH   1   9
HETATM    9  N   UNK N   1       0.247  -1.944   0.000  0.00  0.00    -0.416 N 
HETATM   10  H   UNK N   1      -0.446  -2.692   0.000  0.00  0.00     0.150 HD
HETATM   11  H   UNK N   1       1.242  -2.170   0.000  0.00  0.00     0.150 HD
ENDBRANCH   1   9
TORSDOF 5
