REMARK  12 active torsions:
REMARK  status: ('A' for Active; 'I' for Inactive)
REMARK    1  A    between atoms: C_6  and  O_21 
REMARK    2  A    between atoms: C_7  and  O_27 
REMARK    3  A    between atoms: C_9  and  O_26 
REMARK    4  A    between atoms: C_13  and  C_25 
REMARK    5  A    between atoms: C_14  and  O_19 
REMARK    6  A    between atoms: C_15  and  O_18 
REMARK    7  A    between atoms: C_30  and  O_26 
REMARK    8  A    between atoms: C_32  and  O_27 
REMARK    9  A    between atoms: C_31  and  O_42 
REMARK   10  A    between atoms: C_36  and  N_46 
REMARK   11  A    between atoms: C_40  and  O_48 
REMARK   12  A    between atoms: C_41  and  O_47 
ROOT
HETATM    1  N   UNK N   1      -3.342   3.861   0.373  0.00  0.00     0.091 N 
HETATM    2  C   UNK N   1      -2.478   3.898  -0.803  0.00  0.00     0.277 C 
HETATM    3  C   UNK N   1      -4.621   3.170   0.104  0.00  0.00     0.250 C 
HETATM    4  C   UNK N   1      -1.103   3.326  -0.476  0.00  0.00     0.013 C 
HETATM    5  C   UNK N   1      -1.225   1.817  -0.216  0.00  0.00     0.046 C 
HETATM    6  C   UNK N   1       0.070   1.098   0.173  0.00  0.00     0.081 C 
HETATM    7  C   UNK N   1      -0.049  -0.458   0.066  0.00  0.00     0.165 C 
HETATM    8  C   UNK N   1      -1.482  -1.024   0.321  0.00  0.00     0.043 C 
HETATM    9  C   UNK N   1      -1.691  -2.564   0.252  0.00  0.00     0.144 C 
HETATM   10  C   UNK N   1      -3.133  -3.037   0.578  0.00  0.00     0.111 C 
HETATM   11  C   UNK N   1      -4.264  -2.033   0.435  0.00  0.00     0.265 C 
HETATM   12  O   UNK N   1      -4.395  -1.326  -0.724  0.00  0.00    -0.312 OA
HETATM   13  C   UNK N   1      -5.479  -0.539  -1.115  0.00  0.00     0.168 C 
HETATM   14  C   UNK N   1      -5.718   0.814  -0.377  0.00  0.00     0.108 C 
HETATM   15  C   UNK N   1      -4.426   1.675  -0.331  0.00  0.00     0.187 C 
HETATM   16  C   UNK N   1      -3.598   5.262   0.695  0.00  0.00     0.310 C 
HETATM   17  C   UNK N   1      -5.517   3.296   1.338  0.00  0.00     0.045 C 
HETATM   18  C   UNK N   1      -3.143  -3.747   1.924  0.00  0.00     0.023 C 
HETATM   19  C   UNK N   1      -0.466   4.101   0.671  0.00  0.00     0.012 C 
HETATM   20  C   UNK N   1       0.429   1.422   1.614  0.00  0.00     0.049 C 
HETATM   21  C   UNK N   1      -6.246   0.568   1.028  0.00  0.00     0.051 C 
HETATM   22  O   UNK N   1      -5.056  -1.886   1.349  0.00  0.00    -0.265 OA
HETATM   23  C   UNK N   1      -1.949  -0.541   1.692  0.00  0.00     0.015 C 
ENDROOT
BRANCH   7  24
HETATM   24  O   UNK N   1       0.584  -0.963  -1.088  0.00  0.00    -0.350 OA
BRANCH  24  25
HETATM   25  C   UNK N   1       1.839  -1.516  -0.699  0.00  0.00     0.291 C 
HETATM   26  C   UNK N   1       2.843  -0.538  -0.043  0.00  0.00     0.206 C 
HETATM   27  C   UNK N   1       3.982  -1.245   0.691  0.00  0.00     0.257 C 
HETATM   28  C   UNK N   1       3.485  -2.392   1.586  0.00  0.00     0.070 C 
HETATM   29  C   UNK N   1       2.057  -2.834   1.272  0.00  0.00     0.122 C 
HETATM   30  O   UNK N   1       1.711  -2.795  -0.100  0.00  0.00    -0.354 OA
HETATM   31  C   UNK N   1       1.012  -2.244   2.199  0.00  0.00     0.040 C 
BRANCH  26  32
HETATM   32  O   UNK N   1       3.355   0.359  -0.983  0.00  0.00    -0.388 OA
HETATM   33  H   UNK N   1       4.072   0.362  -1.636  0.00  0.00     0.210 HD
ENDBRANCH  26  32
BRANCH  27  34
HETATM   34  N   UNK N   1       5.102  -1.616  -0.187  0.00  0.00     0.087 N 
HETATM   35  C   UNK N   1       6.257  -1.948   0.634  0.00  0.00     0.310 C 
HETATM   36  C   UNK N   1       4.790  -2.767  -1.023  0.00  0.00     0.310 C 
ENDBRANCH  27  34
ENDBRANCH  24  25
ENDBRANCH   7  24
BRANCH   6  37
HETATM   37  O   UNK N   1       1.087   1.577  -0.651  0.00  0.00    -0.388 OA
HETATM   38  H   UNK N   1       1.730   1.130  -1.225  0.00  0.00     0.210 HD
ENDBRANCH   6  37
BRANCH   9  39
HETATM   39  O   UNK N   1      -1.265  -3.163  -0.950  0.00  0.00    -0.355 OA
BRANCH  39  40
HETATM   40  C   UNK N   1      -0.855  -4.461  -0.577  0.00  0.00     0.263 C 
HETATM   41  C   UNK N   1       0.455  -4.892  -1.239  0.00  0.00     0.101 C 
HETATM   42  C   UNK N   1       0.932  -6.201  -0.560  0.00  0.00     0.089 C 
HETATM   43  C   UNK N   1      -0.227  -7.217  -0.628  0.00  0.00     0.181 C 
HETATM   44  C   UNK N   1       1.247  -5.967   0.926  0.00  0.00     0.049 C 
HETATM   45  C   UNK N   1      -1.516  -6.557  -0.090  0.00  0.00     0.152 C 
HETATM   46  O   UNK N   1      -1.847  -5.420  -0.859  0.00  0.00    -0.354 OA
HETATM   47  C   UNK N   1      -2.671  -7.541  -0.084  0.00  0.00     0.042 C 
BRANCH  42  48
HETATM   48  O   UNK N   1       2.057  -6.758  -1.218  0.00  0.00    -0.383 OA
HETATM   49  C   UNK N   1       3.135  -5.854  -1.184  0.00  0.00     0.202 C 
ENDBRANCH  42  48
BRANCH  43  50
HETATM   50  O   UNK N   1      -0.424  -7.641  -1.947  0.00  0.00    -0.390 OA
HETATM   51  H   UNK N   1      -0.747  -7.670  -2.861  0.00  0.00     0.210 HD
ENDBRANCH  43  50
ENDBRANCH  39  40
ENDBRANCH   9  39
BRANCH  13  52
HETATM   52  C   UNK N   1      -6.732  -1.359  -1.463  0.00  0.00     0.031 C 
HETATM   53  C   UNK N   1      -7.467  -1.917  -0.257  0.00  0.00     0.007 C 
ENDBRANCH  13  52
BRANCH  15  54
HETATM   54  O   UNK N   1      -3.840   1.655  -1.601  0.00  0.00    -0.390 OA
HETATM   55  H   UNK N   1      -3.649   1.297  -2.482  0.00  0.00     0.210 HD
ENDBRANCH  15  54
BRANCH  14  56
HETATM   56  O   UNK N   1      -6.690   1.520  -1.091  0.00  0.00    -0.385 OA
HETATM   57  H   UNK N   1      -6.603   2.349  -1.586  0.00  0.00     0.210 HD
ENDBRANCH  14  56
TORSDOF 12
