REMARK  0 active torsions:
REMARK  status: ('A' for Active; 'I' for Inactive)
ROOT
HETATM    1  N   UNK N   1      16.425  -5.204  -0.000  0.00  0.00    -0.439 N 
HETATM    2  H   UNK N   1      17.445  -5.204  -0.000  0.00  0.00     0.146 HD
HETATM    3  H   UNK N   1      15.915  -4.320  -0.000  0.00  0.00     0.146 HD
HETATM    4  H   UNK N   1      15.915  -6.087  -0.000  0.00  0.00     0.146 HD
ENDROOT
TORSDOF 0
