MODEL 1
REMARK VINA RESULT:      -5.1      0.000      0.000
REMARK  4 active torsions:
REMARK  status: ('A' for Active; 'I' for Inactive)
REMARK    1  A    between atoms: C_2  and  N_11 
REMARK    2  A    between atoms: C_10  and  N_12 
REMARK    3  A    between atoms: N_11  and  C_13 
REMARK    4  A    between atoms: C_13  and  C_14 
ROOT
HETATM    1  C   UNK N   1      23.447  18.095   4.913  0.00  0.00     0.073 A 
HETATM    2  C   UNK N   1      24.664  18.987   4.670  0.00  0.00     0.081 A 
HETATM    3  C   UNK N   1      24.682  20.175   3.681  0.00  0.00     0.031 A 
HETATM    4  C   UNK N   1      23.403  20.476   2.897  0.00  0.00     0.060 A 
HETATM    5  C   UNK N   1      22.245  19.579   3.169  0.00  0.00     0.024 A 
HETATM    6  C   UNK N   1      22.283  18.513   4.079  0.00  0.00     0.011 A 
HETATM    7  S   UNK N   1      20.784  17.815   4.041  0.00  0.00    -0.057 SA
HETATM    8  N   UNK N   1      21.040  19.751   2.523  0.00  0.00    -0.340 N 
ATOM      9  HN  UNK N   1      20.858  20.482   1.835  1.00  0.00     0.168 HD
HETATM   10  C   UNK N   1      20.125  18.830   2.916  0.00  0.00     0.142 A 
ENDROOT
BRANCH   2  11
HETATM   11  N   UNK N   1      25.871  18.663   5.443  0.00  0.00    -0.417 N 
HETATM   12  H   UNK N   1      25.925  17.936   6.156  0.00  0.00     0.153 HD
BRANCH  11  13
HETATM   13  C   UNK N   1      26.982  19.524   5.050  0.00  0.00     0.113 C 
BRANCH  13  14
HETATM   14  C   UNK N   1      27.553  20.256   6.241  0.00  0.00     0.015 C 
HETATM   15  C   UNK N   1      26.908  21.625   6.316  0.00  0.00     0.006 C 
ENDBRANCH  13  14
ENDBRANCH  11  13
ENDBRANCH   2  11
BRANCH  10  16
HETATM   16  N   UNK N   1      18.808  18.771   2.419  0.00  0.00    -0.380 N 
HETATM   17  H   UNK N   1      18.632  18.363   1.541  0.00  0.00     0.158 HD
HETATM   18  H   UNK N   1      18.065  19.136   2.951  0.00  0.00     0.158 HD
ENDBRANCH  10  16
TORSDOF 4
ENDMDL
MODEL 2
REMARK VINA RESULT:      -5.0      5.729      9.028
REMARK  4 active torsions:
REMARK  status: ('A' for Active; 'I' for Inactive)
REMARK    1  A    between atoms: C_2  and  N_11 
REMARK    2  A    between atoms: C_10  and  N_12 
REMARK    3  A    between atoms: N_11  and  C_13 
REMARK    4  A    between atoms: C_13  and  C_14 
ROOT
HETATM    1  C   UNK N   1      29.328  17.576   6.445  0.00  0.00     0.073 A 
HETATM    2  C   UNK N   1      28.271  18.327   7.255  0.00  0.00     0.081 A 
HETATM    3  C   UNK N   1      28.398  18.641   8.763  0.00  0.00     0.031 A 
HETATM    4  C   UNK N   1      29.659  18.171   9.490  0.00  0.00     0.060 A 
HETATM    5  C   UNK N   1      30.660  17.444   8.658  0.00  0.00     0.024 A 
HETATM    6  C   UNK N   1      30.493  17.186   7.290  0.00  0.00     0.011 A 
HETATM    7  S   UNK N   1      31.845  16.365   6.804  0.00  0.00    -0.057 SA
HETATM    8  N   UNK N   1      31.835  16.973   9.201  0.00  0.00    -0.340 N 
ATOM      9  HN  UNK N   1      32.098  17.084  10.181  1.00  0.00     0.168 HD
HETATM   10  C   UNK N   1      32.599  16.345   8.274  0.00  0.00     0.142 A 
ENDROOT
BRANCH   2  11
HETATM   11  N   UNK N   1      27.075  18.760   6.518  0.00  0.00    -0.417 N 
HETATM   12  H   UNK N   1      26.125  18.444   6.717  0.00  0.00     0.153 HD
BRANCH  11  13
HETATM   13  C   UNK N   1      27.432  19.703   5.463  0.00  0.00     0.113 C 
BRANCH  13  14
HETATM   14  C   UNK N   1      27.612  21.097   6.016  0.00  0.00     0.015 C 
HETATM   15  C   UNK N   1      26.398  21.440   6.856  0.00  0.00     0.006 C 
ENDBRANCH  13  14
ENDBRANCH  11  13
ENDBRANCH   2  11
BRANCH  10  16
HETATM   16  N   UNK N   1      33.853  15.766   8.551  0.00  0.00    -0.380 N 
HETATM   17  H   UNK N   1      34.205  15.771   9.470  0.00  0.00     0.158 HD
HETATM   18  H   UNK N   1      34.377  15.356   7.825  0.00  0.00     0.158 HD
ENDBRANCH  10  16
TORSDOF 4
ENDMDL
MODEL 3
REMARK VINA RESULT:      -4.9      6.316      9.929
REMARK  4 active torsions:
REMARK  status: ('A' for Active; 'I' for Inactive)
REMARK    1  A    between atoms: C_2  and  N_11 
REMARK    2  A    between atoms: C_10  and  N_12 
REMARK    3  A    between atoms: N_11  and  C_13 
REMARK    4  A    between atoms: C_13  and  C_14 
ROOT
HETATM    1  C   UNK N   1      30.447  17.207   6.072  0.00  0.00     0.073 A 
HETATM    2  C   UNK N   1      30.713  17.374   4.576  0.00  0.00     0.081 A 
HETATM    3  C   UNK N   1      32.120  17.557   3.963  0.00  0.00     0.031 A 
HETATM    4  C   UNK N   1      33.320  17.573   4.911  0.00  0.00     0.060 A 
HETATM    5  C   UNK N   1      33.009  17.407   6.359  0.00  0.00     0.024 A 
HETATM    6  C   UNK N   1      31.711  17.244   6.863  0.00  0.00     0.011 A 
HETATM    7  S   UNK N   1      31.863  17.100   8.504  0.00  0.00    -0.057 SA
HETATM    8  N   UNK N   1      34.007  17.405   7.309  0.00  0.00    -0.340 N 
ATOM      9  HN  UNK N   1      34.999  17.513   7.099  1.00  0.00     0.168 HD
HETATM   10  C   UNK N   1      33.508  17.241   8.560  0.00  0.00     0.142 A 
ENDROOT
BRANCH   2  11
HETATM   11  N   UNK N   1      29.533  17.353   3.701  0.00  0.00    -0.417 N 
HETATM   12  H   UNK N   1      29.565  17.254   2.685  0.00  0.00     0.153 HD
BRANCH  11  13
HETATM   13  C   UNK N   1      28.307  17.493   4.481  0.00  0.00     0.113 C 
BRANCH  13  14
HETATM   14  C   UNK N   1      27.489  18.670   4.005  0.00  0.00     0.015 C 
HETATM   15  C   UNK N   1      27.997  19.918   4.699  0.00  0.00     0.006 C 
ENDBRANCH  13  14
ENDBRANCH  11  13
ENDBRANCH   2  11
BRANCH  10  16
HETATM   16  N   UNK N   1      34.301  17.200   9.723  0.00  0.00    -0.380 N 
HETATM   17  H   UNK N   1      35.114  16.646   9.745  0.00  0.00     0.158 HD
HETATM   18  H   UNK N   1      34.043  17.726  10.514  0.00  0.00     0.158 HD
ENDBRANCH  10  16
TORSDOF 4
ENDMDL
MODEL 4
REMARK VINA RESULT:      -4.7      5.134      7.691
REMARK  4 active torsions:
REMARK  status: ('A' for Active; 'I' for Inactive)
REMARK    1  A    between atoms: C_2  and  N_11 
REMARK    2  A    between atoms: C_10  and  N_12 
REMARK    3  A    between atoms: N_11  and  C_13 
REMARK    4  A    between atoms: C_13  and  C_14 
ROOT
HETATM    1  C   UNK N   1      30.374  16.985   7.191  0.00  0.00     0.073 A 
HETATM    2  C   UNK N   1      30.495  17.010   8.714  0.00  0.00     0.081 A 
HETATM    3  C   UNK N   1      29.530  17.779   9.646  0.00  0.00     0.031 A 
HETATM    4  C   UNK N   1      28.384  18.562   9.004  0.00  0.00     0.060 A 
HETATM    5  C   UNK N   1      28.308  18.507   7.517  0.00  0.00     0.024 A 
HETATM    6  C   UNK N   1      29.212  17.792   6.718  0.00  0.00     0.011 A 
HETATM    7  S   UNK N   1      28.732  18.024   5.152  0.00  0.00    -0.057 SA
HETATM    8  N   UNK N   1      27.320  19.173   6.826  0.00  0.00    -0.340 N 
ATOM      9  HN  UNK N   1      26.591  19.734   7.267  1.00  0.00     0.168 HD
HETATM   10  C   UNK N   1      27.434  18.990   5.487  0.00  0.00     0.142 A 
ENDROOT
BRANCH   2  11
HETATM   11  N   UNK N   1      31.609  16.244   9.289  0.00  0.00    -0.417 N 
HETATM   12  H   UNK N   1      31.576  15.753  10.182  0.00  0.00     0.153 HD
BRANCH  11  13
HETATM   13  C   UNK N   1      32.773  16.283   8.408  0.00  0.00     0.113 C 
BRANCH  13  14
HETATM   14  C   UNK N   1      33.834  17.212   8.947  0.00  0.00     0.015 C 
HETATM   15  C   UNK N   1      34.002  18.363   7.975  0.00  0.00     0.006 C 
ENDBRANCH  13  14
ENDBRANCH  11  13
ENDBRANCH   2  11
BRANCH  10  16
HETATM   16  N   UNK N   1      26.559  19.555   4.539  0.00  0.00    -0.380 N 
HETATM   17  H   UNK N   1      26.343  20.514   4.579  0.00  0.00     0.158 HD
HETATM   18  H   UNK N   1      26.162  18.990   3.837  0.00  0.00     0.158 HD
ENDBRANCH  10  16
TORSDOF 4
ENDMDL
MODEL 5
REMARK VINA RESULT:      -4.7     11.485     12.380
REMARK  4 active torsions:
REMARK  status: ('A' for Active; 'I' for Inactive)
REMARK    1  A    between atoms: C_2  and  N_11 
REMARK    2  A    between atoms: C_10  and  N_12 
REMARK    3  A    between atoms: N_11  and  C_13 
REMARK    4  A    between atoms: C_13  and  C_14 
ROOT
HETATM    1  C   UNK N   1      27.022  26.046  -3.745  0.00  0.00     0.073 A 
HETATM    2  C   UNK N   1      26.238  27.354  -3.647  0.00  0.00     0.081 A 
HETATM    3  C   UNK N   1      25.161  27.795  -4.665  0.00  0.00     0.031 A 
HETATM    4  C   UNK N   1      24.864  26.866  -5.843  0.00  0.00     0.060 A 
HETATM    5  C   UNK N   1      25.654  25.604  -5.895  0.00  0.00     0.024 A 
HETATM    6  C   UNK N   1      26.621  25.252  -4.942  0.00  0.00     0.011 A 
HETATM    7  S   UNK N   1      27.224  23.785  -5.412  0.00  0.00    -0.057 SA
HETATM    8  N   UNK N   1      25.475  24.688  -6.908  0.00  0.00    -0.340 N 
ATOM      9  HN  UNK N   1      24.810  24.803  -7.673  1.00  0.00     0.168 HD
HETATM   10  C   UNK N   1      26.292  23.615  -6.765  0.00  0.00     0.142 A 
ENDROOT
BRANCH   2  11
HETATM   11  N   UNK N   1      26.554  28.217  -2.501  0.00  0.00    -0.417 N 
HETATM   12  H   UNK N   1      26.062  28.198  -1.607  0.00  0.00     0.153 HD
BRANCH  11  13
HETATM   13  C   UNK N   1      27.669  29.104  -2.814  0.00  0.00     0.113 C 
BRANCH  13  14
HETATM   14  C   UNK N   1      27.190  30.514  -3.067  0.00  0.00     0.015 C 
HETATM   15  C   UNK N   1      27.414  30.840  -4.530  0.00  0.00     0.006 C 
ENDBRANCH  13  14
ENDBRANCH  11  13
ENDBRANCH   2  11
BRANCH  10  16
HETATM   16  N   UNK N   1      26.321  22.526  -7.657  0.00  0.00    -0.380 N 
HETATM   17  H   UNK N   1      27.070  21.888  -7.631  0.00  0.00     0.158 HD
HETATM   18  H   UNK N   1      25.591  22.402  -8.306  0.00  0.00     0.158 HD
ENDBRANCH  10  16
TORSDOF 4
ENDMDL
MODEL 6
REMARK VINA RESULT:      -4.6      7.502     10.367
REMARK  4 active torsions:
REMARK  status: ('A' for Active; 'I' for Inactive)
REMARK    1  A    between atoms: C_2  and  N_11 
REMARK    2  A    between atoms: C_10  and  N_12 
REMARK    3  A    between atoms: N_11  and  C_13 
REMARK    4  A    between atoms: C_13  and  C_14 
ROOT
HETATM    1  C   UNK N   1      32.288  17.302   5.201  0.00  0.00     0.073 A 
HETATM    2  C   UNK N   1      30.773  17.309   5.004  0.00  0.00     0.081 A 
HETATM    3  C   UNK N   1      29.750  17.290   6.163  0.00  0.00     0.031 A 
HETATM    4  C   UNK N   1      30.288  17.262   7.595  0.00  0.00     0.060 A 
HETATM    5  C   UNK N   1      31.772  17.256   7.734  0.00  0.00     0.024 A 
HETATM    6  C   UNK N   1      32.656  17.274   6.646  0.00  0.00     0.011 A 
HETATM    7  S   UNK N   1      34.181  17.259   7.286  0.00  0.00    -0.057 SA
HETATM    8  N   UNK N   1      32.374  17.232   8.974  0.00  0.00    -0.340 N 
ATOM      9  HN  UNK N   1      31.865  17.217   9.858  1.00  0.00     0.168 HD
HETATM   10  C   UNK N   1      33.726  17.230   8.874  0.00  0.00     0.142 A 
ENDROOT
BRANCH   2  11
HETATM   11  N   UNK N   1      30.299  17.336   3.614  0.00  0.00    -0.417 N 
HETATM   12  H   UNK N   1      30.830  17.710   2.826  0.00  0.00     0.153 HD
BRANCH  11  13
HETATM   13  C   UNK N   1      28.964  16.755   3.511  0.00  0.00     0.113 C 
BRANCH  13  14
HETATM   14  C   UNK N   1      28.964  15.544   2.609  0.00  0.00     0.015 C 
HETATM   15  C   UNK N   1      27.527  15.186   2.288  0.00  0.00     0.006 C 
ENDBRANCH  13  14
ENDBRANCH  11  13
ENDBRANCH   2  11
BRANCH  10  16
HETATM   16  N   UNK N   1      34.595  17.208   9.982  0.00  0.00    -0.380 N 
HETATM   17  H   UNK N   1      35.481  17.631   9.921  0.00  0.00     0.158 HD
HETATM   18  H   UNK N   1      34.315  16.769  10.818  0.00  0.00     0.158 HD
ENDBRANCH  10  16
TORSDOF 4
ENDMDL
MODEL 7
REMARK VINA RESULT:      -4.6      4.041      5.707
REMARK  4 active torsions:
REMARK  status: ('A' for Active; 'I' for Inactive)
REMARK    1  A    between atoms: C_2  and  N_11 
REMARK    2  A    between atoms: C_10  and  N_12 
REMARK    3  A    between atoms: N_11  and  C_13 
REMARK    4  A    between atoms: C_13  and  C_14 
ROOT
HETATM    1  C   UNK N   1      21.359  17.765   5.933  0.00  0.00     0.073 A 
HETATM    2  C   UNK N   1      20.660  16.569   6.579  0.00  0.00     0.081 A 
HETATM    3  C   UNK N   1      19.596  15.701   5.868  0.00  0.00     0.031 A 
HETATM    4  C   UNK N   1      19.220  16.061   4.430  0.00  0.00     0.060 A 
HETATM    5  C   UNK N   1      19.928  17.234   3.845  0.00  0.00     0.024 A 
HETATM    6  C   UNK N   1      20.888  17.988   4.535  0.00  0.00     0.011 A 
HETATM    7  S   UNK N   1      21.388  19.171   3.493  0.00  0.00    -0.057 SA
HETATM    8  N   UNK N   1      19.674  17.654   2.557  0.00  0.00    -0.340 N 
ATOM      9  HN  UNK N   1      19.003  17.207   1.931  1.00  0.00     0.168 HD
HETATM   10  C   UNK N   1      20.423  18.734   2.225  0.00  0.00     0.142 A 
ENDROOT
BRANCH   2  11
HETATM   11  N   UNK N   1      21.051  16.258   7.961  0.00  0.00    -0.417 N 
HETATM   12  H   UNK N   1      22.012  16.130   8.277  0.00  0.00     0.153 HD
BRANCH  11  13
HETATM   13  C   UNK N   1      19.875  16.157   8.820  0.00  0.00     0.113 C 
BRANCH  13  14
HETATM   14  C   UNK N   1      19.222  17.505   9.012  0.00  0.00     0.015 C 
HETATM   15  C   UNK N   1      17.723  17.301   9.112  0.00  0.00     0.006 C 
ENDBRANCH  13  14
ENDBRANCH  11  13
ENDBRANCH   2  11
BRANCH  10  16
HETATM   16  N   UNK N   1      20.368  19.372   0.971  0.00  0.00    -0.380 N 
HETATM   17  H   UNK N   1      19.523  19.767   0.656  0.00  0.00     0.158 HD
HETATM   18  H   UNK N   1      21.174  19.424   0.408  0.00  0.00     0.158 HD
ENDBRANCH  10  16
TORSDOF 4
ENDMDL
MODEL 8
REMARK VINA RESULT:      -4.6     17.678     20.543
REMARK  4 active torsions:
REMARK  status: ('A' for Active; 'I' for Inactive)
REMARK    1  A    between atoms: C_2  and  N_11 
REMARK    2  A    between atoms: C_10  and  N_12 
REMARK    3  A    between atoms: N_11  and  C_13 
REMARK    4  A    between atoms: C_13  and  C_14 
ROOT
HETATM    1  C   UNK N   1      43.600  23.548   2.017  0.00  0.00     0.073 A 
HETATM    2  C   UNK N   1      44.796  23.169   2.889  0.00  0.00     0.081 A 
HETATM    3  C   UNK N   1      44.832  21.935   3.819  0.00  0.00     0.031 A 
HETATM    4  C   UNK N   1      43.594  21.038   3.870  0.00  0.00     0.060 A 
HETATM    5  C   UNK N   1      42.454  21.450   3.003  0.00  0.00     0.024 A 
HETATM    6  C   UNK N   1      42.475  22.582   2.176  0.00  0.00     0.011 A 
HETATM    7  S   UNK N   1      41.007  22.629   1.416  0.00  0.00    -0.057 SA
HETATM    8  N   UNK N   1      41.285  20.721   2.964  0.00  0.00    -0.340 N 
ATOM      9  HN  UNK N   1      41.120  19.874   3.508  1.00  0.00     0.168 HD
HETATM   10  C   UNK N   1      40.382  21.268   2.113  0.00  0.00     0.142 A 
ENDROOT
BRANCH   2  11
HETATM   11  N   UNK N   1      45.964  24.057   2.810  0.00  0.00    -0.417 N 
HETATM   12  H   UNK N   1      46.888  23.835   3.182  0.00  0.00     0.153 HD
BRANCH  11  13
HETATM   13  C   UNK N   1      45.623  25.301   2.126  0.00  0.00     0.113 C 
BRANCH  13  14
HETATM   14  C   UNK N   1      46.717  25.716   1.171  0.00  0.00     0.015 C 
HETATM   15  C   UNK N   1      46.839  24.656   0.094  0.00  0.00     0.006 C 
ENDBRANCH  13  14
ENDBRANCH  11  13
ENDBRANCH   2  11
BRANCH  10  16
HETATM   16  N   UNK N   1      39.101  20.732   1.877  0.00  0.00    -0.380 N 
HETATM   17  H   UNK N   1      38.380  21.310   1.540  0.00  0.00     0.158 HD
HETATM   18  H   UNK N   1      38.928  19.778   2.049  0.00  0.00     0.158 HD
ENDBRANCH  10  16
TORSDOF 4
ENDMDL
MODEL 9
REMARK VINA RESULT:      -4.6     13.447     15.830
REMARK  4 active torsions:
REMARK  status: ('A' for Active; 'I' for Inactive)
REMARK    1  A    between atoms: C_2  and  N_11 
REMARK    2  A    between atoms: C_10  and  N_12 
REMARK    3  A    between atoms: N_11  and  C_13 
REMARK    4  A    between atoms: C_13  and  C_14 
ROOT
HETATM    1  C   UNK N   1      34.937  12.656  11.337  0.00  0.00     0.073 A 
HETATM    2  C   UNK N   1      35.543  12.321  12.699  0.00  0.00     0.081 A 
HETATM    3  C   UNK N   1      36.178  13.366  13.645  0.00  0.00     0.031 A 
HETATM    4  C   UNK N   1      36.201  14.826  13.189  0.00  0.00     0.060 A 
HETATM    5  C   UNK N   1      35.599  15.102  11.854  0.00  0.00     0.024 A 
HETATM    6  C   UNK N   1      35.035  14.113  11.035  0.00  0.00     0.011 A 
HETATM    7  S   UNK N   1      34.503  14.886   9.673  0.00  0.00    -0.057 SA
HETATM    8  N   UNK N   1      35.562  16.378  11.337  0.00  0.00    -0.340 N 
ATOM      9  HN  UNK N   1      35.932  17.201  11.813  1.00  0.00     0.168 HD
HETATM   10  C   UNK N   1      34.973  16.407  10.115  0.00  0.00     0.142 A 
ENDROOT
BRANCH   2  11
HETATM   11  N   UNK N   1      35.500  10.907  13.099  0.00  0.00    -0.417 N 
HETATM   12  H   UNK N   1      36.321  10.324  13.259  0.00  0.00     0.153 HD
BRANCH  11  13
HETATM   13  C   UNK N   1      34.120  10.450  13.234  0.00  0.00     0.113 C 
BRANCH  13  14
HETATM   14  C   UNK N   1      33.572  10.769  14.605  0.00  0.00     0.015 C 
HETATM   15  C   UNK N   1      34.550  10.257  15.643  0.00  0.00     0.006 C 
ENDBRANCH  13  14
ENDBRANCH  11  13
ENDBRANCH   2  11
BRANCH  10  16
HETATM   16  N   UNK N   1      34.800  17.579   9.354  0.00  0.00    -0.380 N 
HETATM   17  H   UNK N   1      35.391  17.761   8.588  0.00  0.00     0.158 HD
HETATM   18  H   UNK N   1      34.088  18.218   9.589  0.00  0.00     0.158 HD
ENDBRANCH  10  16
TORSDOF 4
ENDMDL
