REMARK  5 active torsions:
REMARK  status: ('A' for Active; 'I' for Inactive)
REMARK    1  A    between atoms: C_5  and  C_1 
REMARK    2  A    between atoms: C_7  and  N_2 
REMARK    3  A    between atoms: O_11  and  C_5 
REMARK    4  A    between atoms: C_10  and  C_7 
REMARK    5  A    between atoms: C_15  and  O_11 
ROOT
HETATM    1  C   UNK N   1      10.133  -8.186  -0.072  0.00  0.00     0.127 A 
HETATM    2  N   UNK N   1       9.065  -9.014  -0.051  0.00  0.00    -0.328 N 
HETATM    3  N   UNK N   1       8.339  -6.904  -0.071  0.00  0.00    -0.360 N 
ATOM      4  HN  UNK N   1       7.714  -6.098  -0.073  1.00  0.00     0.166 HD
HETATM    5  C   UNK N   1       7.984  -8.206  -0.048  0.00  0.00     0.184 A 
HETATM    6  C   UNK N   1       9.685  -6.883  -0.092  0.00  0.00     0.125 A 
ENDROOT
BRANCH   2   7
HETATM    7  C   UNK N   1       9.097 -10.495  -0.084  0.00  0.00     0.120 C 
HETATM    8  C   UNK N   1       9.769 -10.942  -1.379  0.00  0.00     0.038 C 
BRANCH   7   9
HETATM    9  C   UNK N   1       7.771 -11.237   0.035  0.00  0.00    -0.035 A 
HETATM   10  C   UNK N   1       7.790 -12.642  -0.000  0.00  0.00     0.009 A 
HETATM   11  C   UNK N   1       6.601 -13.374   0.059  0.00  0.00     0.001 A 
HETATM   12  C   UNK N   1       5.378 -12.711   0.163  0.00  0.00     0.000 A 
HETATM   13  C   UNK N   1       5.343 -11.317   0.216  0.00  0.00     0.001 A 
HETATM   14  C   UNK N   1       6.532 -10.585   0.150  0.00  0.00     0.009 A 
ENDBRANCH   7   9
ENDBRANCH   2   7
BRANCH   1  15
HETATM   15  C   UNK N   1      11.560  -8.571  -0.078  0.00  0.00     0.311 C 
HETATM   16  O   UNK N   1      11.890  -9.739   0.083  0.00  0.00    -0.258 OA
BRANCH  15  17
HETATM   17  O   UNK N   1      12.501  -7.612  -0.251  0.00  0.00    -0.317 OA
BRANCH  17  18
HETATM   18  C   UNK N   1      13.848  -7.886  -0.249  0.00  0.00     0.175 C 
HETATM   19  C   UNK N   1      14.519  -7.063   0.830  0.00  0.00     0.034 C 
ENDBRANCH  17  18
ENDBRANCH  15  17
ENDBRANCH   1  15
TORSDOF 5
