MODEL 1
REMARK VINA RESULT:      -4.8      0.000      0.000
REMARK  3 active torsions:
REMARK  status: ('A' for Active; 'I' for Inactive)
REMARK    1  A    between atoms: C_1  and  C_4 
REMARK    2  A    between atoms: C_4  and  C_7 
REMARK    3  A    between atoms: C_7  and  N_10 
ROOT
HETATM    1  C   UNK N   1      35.311  12.619  17.183  0.00  0.00    -0.056 A 
HETATM    2  C   UNK N   1      35.160  13.389  18.346  0.00  0.00     0.007 A 
HETATM    3  C   UNK N   1      35.469  11.235  17.298  0.00  0.00     0.007 A 
HETATM    4  C   UNK N   1      35.168  12.781  19.604  0.00  0.00     0.001 A 
HETATM    5  C   UNK N   1      35.477  10.623  18.556  0.00  0.00     0.001 A 
HETATM    6  C   UNK N   1      35.326  11.398  19.709  0.00  0.00     0.000 A 
ENDROOT
BRANCH   1   7
HETATM    7  C   UNK N   1      35.310  13.219  15.803  0.00  0.00     0.062 C 
BRANCH   7   8
HETATM    8  C   UNK N   1      36.599  13.847  15.256  0.00  0.00     0.074 C 
HETATM    9  C   UNK N   1      37.259  15.142  15.698  0.00  0.00     0.032 C 
BRANCH   8  10
HETATM   10  N   UNK N   1      37.264  13.119  14.194  0.00  0.00    -0.426 N 
HETATM   11  H   UNK N   1      38.190  13.408  13.880  0.00  0.00     0.150 HD
HETATM   12  H   UNK N   1      36.806  12.317  13.761  0.00  0.00     0.150 HD
ENDBRANCH   8  10
ENDBRANCH   7   8
ENDBRANCH   1   7
TORSDOF 3
ENDMDL
MODEL 2
REMARK VINA RESULT:      -4.8      0.126      1.533
REMARK  3 active torsions:
REMARK  status: ('A' for Active; 'I' for Inactive)
REMARK    1  A    between atoms: C_1  and  C_4 
REMARK    2  A    between atoms: C_4  and  C_7 
REMARK    3  A    between atoms: C_7  and  N_10 
ROOT
HETATM    1  C   UNK N   1      35.365  12.575  17.257  0.00  0.00    -0.056 A 
HETATM    2  C   UNK N   1      35.554  11.193  17.404  0.00  0.00     0.007 A 
HETATM    3  C   UNK N   1      35.177  13.362  18.398  0.00  0.00     0.007 A 
HETATM    4  C   UNK N   1      35.554  10.608  18.673  0.00  0.00     0.001 A 
HETATM    5  C   UNK N   1      35.176  12.779  19.670  0.00  0.00     0.001 A 
HETATM    6  C   UNK N   1      35.365  11.402  19.806  0.00  0.00     0.000 A 
ENDROOT
BRANCH   1   7
HETATM    7  C   UNK N   1      35.356  13.259  15.917  0.00  0.00     0.062 C 
BRANCH   7   8
HETATM    8  C   UNK N   1      36.654  13.879  15.381  0.00  0.00     0.074 C 
HETATM    9  C   UNK N   1      37.283  15.202  15.782  0.00  0.00     0.032 C 
BRANCH   8  10
HETATM   10  N   UNK N   1      37.361  13.111  14.375  0.00  0.00    -0.426 N 
HETATM   11  H   UNK N   1      37.128  13.228  13.389  0.00  0.00     0.150 HD
HETATM   12  H   UNK N   1      38.090  12.455  14.652  0.00  0.00     0.150 HD
ENDBRANCH   8  10
ENDBRANCH   7   8
ENDBRANCH   1   7
TORSDOF 3
ENDMDL
MODEL 3
REMARK VINA RESULT:      -4.7     26.463     28.456
REMARK  3 active torsions:
REMARK  status: ('A' for Active; 'I' for Inactive)
REMARK    1  A    between atoms: C_1  and  C_4 
REMARK    2  A    between atoms: C_4  and  C_7 
REMARK    3  A    between atoms: C_7  and  N_10 
ROOT
HETATM    1  C   UNK N   1      25.880  27.468  -5.349  0.00  0.00    -0.056 A 
HETATM    2  C   UNK N   1      25.590  28.192  -4.183  0.00  0.00     0.007 A 
HETATM    3  C   UNK N   1      26.889  27.927  -6.202  0.00  0.00     0.007 A 
HETATM    4  C   UNK N   1      26.299  29.355  -3.875  0.00  0.00     0.001 A 
HETATM    5  C   UNK N   1      27.601  29.092  -5.897  0.00  0.00     0.001 A 
HETATM    6  C   UNK N   1      27.305  29.805  -4.733  0.00  0.00     0.000 A 
ENDROOT
BRANCH   1   7
HETATM    7  C   UNK N   1      25.150  26.209  -5.731  0.00  0.00     0.062 C 
BRANCH   7   8
HETATM    8  C   UNK N   1      25.667  24.857  -5.222  0.00  0.00     0.074 C 
HETATM    9  C   UNK N   1      26.490  24.590  -3.973  0.00  0.00     0.032 C 
BRANCH   8  10
HETATM   10  N   UNK N   1      25.331  23.700  -6.028  0.00  0.00    -0.426 N 
HETATM   11  H   UNK N   1      24.377  23.573  -6.364  0.00  0.00     0.150 HD
HETATM   12  H   UNK N   1      26.048  23.013  -6.258  0.00  0.00     0.150 HD
ENDBRANCH   8  10
ENDBRANCH   7   8
ENDBRANCH   1   7
TORSDOF 3
ENDMDL
MODEL 4
REMARK VINA RESULT:      -4.6      1.703      2.826
REMARK  3 active torsions:
REMARK  status: ('A' for Active; 'I' for Inactive)
REMARK    1  A    between atoms: C_1  and  C_4 
REMARK    2  A    between atoms: C_4  and  C_7 
REMARK    3  A    between atoms: C_7  and  N_10 
ROOT
HETATM    1  C   UNK N   1      35.595  12.244  16.622  0.00  0.00    -0.056 A 
HETATM    2  C   UNK N   1      35.763  11.084  17.393  0.00  0.00     0.007 A 
HETATM    3  C   UNK N   1      35.263  13.444  17.260  0.00  0.00     0.007 A 
HETATM    4  C   UNK N   1      35.601  11.125  18.780  0.00  0.00     0.001 A 
HETATM    5  C   UNK N   1      35.099  13.487  18.648  0.00  0.00     0.001 A 
HETATM    6  C   UNK N   1      35.269  12.327  19.407  0.00  0.00     0.000 A 
ENDROOT
BRANCH   1   7
HETATM    7  C   UNK N   1      35.757  12.259  15.126  0.00  0.00     0.062 C 
BRANCH   7   8
HETATM    8  C   UNK N   1      34.604  11.767  14.240  0.00  0.00     0.074 C 
HETATM    9  C   UNK N   1      33.517  10.771  14.604  0.00  0.00     0.032 C 
BRANCH   8  10
HETATM   10  N   UNK N   1      34.548  12.317  12.900  0.00  0.00    -0.426 N 
HETATM   11  H   UNK N   1      34.821  11.744  12.103  0.00  0.00     0.150 HD
HETATM   12  H   UNK N   1      34.236  13.277  12.756  0.00  0.00     0.150 HD
ENDBRANCH   8  10
ENDBRANCH   7   8
ENDBRANCH   1   7
TORSDOF 3
ENDMDL
MODEL 5
REMARK VINA RESULT:      -4.6     14.564     15.823
REMARK  3 active torsions:
REMARK  status: ('A' for Active; 'I' for Inactive)
REMARK    1  A    between atoms: C_1  and  C_4 
REMARK    2  A    between atoms: C_4  and  C_7 
REMARK    3  A    between atoms: C_7  and  N_10 
ROOT
HETATM    1  C   UNK N   1      21.983  12.841   9.684  0.00  0.00    -0.056 A 
HETATM    2  C   UNK N   1      20.791  13.394  10.176  0.00  0.00     0.007 A 
HETATM    3  C   UNK N   1      22.552  13.373   8.523  0.00  0.00     0.007 A 
HETATM    4  C   UNK N   1      20.179  14.462   9.515  0.00  0.00     0.001 A 
HETATM    5  C   UNK N   1      21.942  14.442   7.859  0.00  0.00     0.001 A 
HETATM    6  C   UNK N   1      20.755  14.986   8.356  0.00  0.00     0.000 A 
ENDROOT
BRANCH   1   7
HETATM    7  C   UNK N   1      22.685  11.692  10.355  0.00  0.00     0.062 C 
BRANCH   7   8
HETATM    8  C   UNK N   1      23.600  11.967  11.556  0.00  0.00     0.074 C 
HETATM    9  C   UNK N   1      23.248  11.870  13.030  0.00  0.00     0.032 C 
BRANCH   8  10
HETATM   10  N   UNK N   1      24.958  12.368  11.246  0.00  0.00    -0.426 N 
HETATM   11  H   UNK N   1      25.667  11.660  11.054  0.00  0.00     0.150 HD
HETATM   12  H   UNK N   1      25.206  13.356  11.219  0.00  0.00     0.150 HD
ENDBRANCH   8  10
ENDBRANCH   7   8
ENDBRANCH   1   7
TORSDOF 3
ENDMDL
MODEL 6
REMARK VINA RESULT:      -4.4     11.336     12.772
REMARK  3 active torsions:
REMARK  status: ('A' for Active; 'I' for Inactive)
REMARK    1  A    between atoms: C_1  and  C_4 
REMARK    2  A    between atoms: C_4  and  C_7 
REMARK    3  A    between atoms: C_7  and  N_10 
ROOT
HETATM    1  C   UNK N   1      30.665  17.357   7.328  0.00  0.00    -0.056 A 
HETATM    2  C   UNK N   1      31.486  17.771   8.388  0.00  0.00     0.007 A 
HETATM    3  C   UNK N   1      31.240  17.118   6.075  0.00  0.00     0.007 A 
HETATM    4  C   UNK N   1      32.859  17.942   8.196  0.00  0.00     0.001 A 
HETATM    5  C   UNK N   1      32.614  17.288   5.881  0.00  0.00     0.001 A 
HETATM    6  C   UNK N   1      33.423  17.700   6.942  0.00  0.00     0.000 A 
ENDROOT
BRANCH   1   7
HETATM    7  C   UNK N   1      29.182  17.157   7.476  0.00  0.00     0.062 C 
BRANCH   7   8
HETATM    8  C   UNK N   1      28.286  18.368   7.773  0.00  0.00     0.074 C 
HETATM    9  C   UNK N   1      27.903  19.492   6.826  0.00  0.00     0.032 C 
BRANCH   8  10
HETATM   10  N   UNK N   1      27.743  18.446   9.115  0.00  0.00    -0.426 N 
HETATM   11  H   UNK N   1      27.484  19.351   9.507  0.00  0.00     0.150 HD
HETATM   12  H   UNK N   1      27.619  17.598   9.666  0.00  0.00     0.150 HD
ENDBRANCH   8  10
ENDBRANCH   7   8
ENDBRANCH   1   7
TORSDOF 3
ENDMDL
MODEL 7
REMARK VINA RESULT:      -4.3     13.548     15.298
REMARK  3 active torsions:
REMARK  status: ('A' for Active; 'I' for Inactive)
REMARK    1  A    between atoms: C_1  and  C_4 
REMARK    2  A    between atoms: C_4  and  C_7 
REMARK    3  A    between atoms: C_7  and  N_10 
ROOT
HETATM    1  C   UNK N   1      28.071  18.987   6.083  0.00  0.00    -0.056 A 
HETATM    2  C   UNK N   1      27.643  20.261   6.485  0.00  0.00     0.007 A 
HETATM    3  C   UNK N   1      27.790  18.553   4.784  0.00  0.00     0.007 A 
HETATM    4  C   UNK N   1      26.945  21.087   5.600  0.00  0.00     0.001 A 
HETATM    5  C   UNK N   1      27.092  19.377   3.896  0.00  0.00     0.001 A 
HETATM    6  C   UNK N   1      26.669  20.644   4.305  0.00  0.00     0.000 A 
ENDROOT
BRANCH   1   7
HETATM    7  C   UNK N   1      28.825  18.056   6.993  0.00  0.00     0.062 C 
BRANCH   7   8
HETATM    8  C   UNK N   1      28.856  18.341   8.501  0.00  0.00     0.074 C 
HETATM    9  C   UNK N   1      30.045  18.781   9.337  0.00  0.00     0.032 C 
BRANCH   8  10
HETATM   10  N   UNK N   1      27.603  18.169   9.209  0.00  0.00    -0.426 N 
HETATM   11  H   UNK N   1      27.119  18.980   9.593  0.00  0.00     0.150 HD
HETATM   12  H   UNK N   1      27.205  17.237   9.323  0.00  0.00     0.150 HD
ENDBRANCH   8  10
ENDBRANCH   7   8
ENDBRANCH   1   7
TORSDOF 3
ENDMDL
MODEL 8
REMARK VINA RESULT:      -4.2      1.757      2.901
REMARK  3 active torsions:
REMARK  status: ('A' for Active; 'I' for Inactive)
REMARK    1  A    between atoms: C_1  and  C_4 
REMARK    2  A    between atoms: C_4  and  C_7 
REMARK    3  A    between atoms: C_7  and  N_10 
ROOT
HETATM    1  C   UNK N   1      35.299  11.254  17.247  0.00  0.00    -0.056 A 
HETATM    2  C   UNK N   1      35.157  12.596  16.862  0.00  0.00     0.007 A 
HETATM    3  C   UNK N   1      35.398  10.942  18.606  0.00  0.00     0.007 A 
HETATM    4  C   UNK N   1      35.115  13.609  17.824  0.00  0.00     0.001 A 
HETATM    5  C   UNK N   1      35.356  11.954  19.571  0.00  0.00     0.001 A 
HETATM    6  C   UNK N   1      35.215  13.287  19.179  0.00  0.00     0.000 A 
ENDROOT
BRANCH   1   7
HETATM    7  C   UNK N   1      35.349  10.123  16.256  0.00  0.00     0.062 C 
BRANCH   7   8
HETATM    8  C   UNK N   1      35.103  10.416  14.769  0.00  0.00     0.074 C 
HETATM    9  C   UNK N   1      33.769  10.623  14.074  0.00  0.00     0.032 C 
BRANCH   8  10
HETATM   10  N   UNK N   1      36.283  10.505  13.931  0.00  0.00    -0.426 N 
HETATM   11  H   UNK N   1      36.541   9.723  13.330  0.00  0.00     0.150 HD
HETATM   12  H   UNK N   1      36.855  11.348  13.943  0.00  0.00     0.150 HD
ENDBRANCH   8  10
ENDBRANCH   7   8
ENDBRANCH   1   7
TORSDOF 3
ENDMDL
MODEL 9
REMARK VINA RESULT:      -4.1     10.734     12.080
REMARK  3 active torsions:
REMARK  status: ('A' for Active; 'I' for Inactive)
REMARK    1  A    between atoms: C_1  and  C_4 
REMARK    2  A    between atoms: C_4  and  C_7 
REMARK    3  A    between atoms: C_7  and  N_10 
ROOT
HETATM    1  C   UNK N   1      31.246  17.958   8.155  0.00  0.00    -0.056 A 
HETATM    2  C   UNK N   1      30.785  17.147   7.107  0.00  0.00     0.007 A 
HETATM    3  C   UNK N   1      32.622  18.152   8.311  0.00  0.00     0.007 A 
HETATM    4  C   UNK N   1      31.687  16.539   6.231  0.00  0.00     0.001 A 
HETATM    5  C   UNK N   1      33.528  17.545   7.435  0.00  0.00     0.001 A 
HETATM    6  C   UNK N   1      33.060  16.739   6.395  0.00  0.00     0.000 A 
ENDROOT
BRANCH   1   7
HETATM    7  C   UNK N   1      30.321  18.637   9.128  0.00  0.00     0.062 C 
BRANCH   7   8
HETATM    8  C   UNK N   1      29.063  17.900   9.607  0.00  0.00     0.074 C 
HETATM    9  C   UNK N   1      28.990  16.682  10.511  0.00  0.00     0.032 C 
BRANCH   8  10
HETATM   10  N   UNK N   1      27.796  18.430   9.142  0.00  0.00    -0.426 N 
HETATM   11  H   UNK N   1      26.980  18.409   9.753  0.00  0.00     0.150 HD
HETATM   12  H   UNK N   1      27.721  18.824   8.205  0.00  0.00     0.150 HD
ENDBRANCH   8  10
ENDBRANCH   7   8
ENDBRANCH   1   7
TORSDOF 3
ENDMDL
