REMARK  13 active torsions:
REMARK  status: ('A' for Active; 'I' for Inactive)
REMARK    1  A    between atoms: C_16  and  C_3 
REMARK    2  A    between atoms: C_25  and  C_4 
REMARK    3  A    between atoms: C_17  and  C_15 
REMARK    4  A    between atoms: C_21  and  C_15 
REMARK    5  A    between atoms: C_30  and  C_16 
REMARK    6  A    between atoms: C_30  and  C_17 
REMARK    7  A    between atoms: C_25  and  C_22 
REMARK    8  A    between atoms: C_31  and  C_23 
REMARK    9  A    between atoms: N_37  and  C_24 
REMARK   10  A    between atoms: C_25  and  C_28 
REMARK   11  A    between atoms: O_38  and  C_26 
REMARK   12  A    between atoms: S_43  and  C_27 
REMARK   13  A    between atoms: S_43  and  N_37 
ROOT
HETATM    1  C   UNK N   1      -4.106   8.711  -0.125  0.00  0.00     0.060 C 
ENDROOT
BRANCH   1   2
HETATM    2  C   UNK N   1      -4.160   9.416  -1.502  0.00  0.00     0.010 C 
HETATM    3  C   UNK N   1      -3.345  10.688  -1.662  0.00  0.00     0.006 C 
ENDBRANCH   1   2
BRANCH   1   4
HETATM    4  C   UNK N   1      -5.462   8.024  -0.137  0.00  0.00    -0.047 A 
HETATM    5  C   UNK N   1      -5.739   6.946  -1.004  0.00  0.00     0.008 A 
HETATM    6  C   UNK N   1      -7.037   6.432  -1.103  0.00  0.00     0.003 A 
HETATM    7  C   UNK N   1      -8.088   7.051  -0.417  0.00  0.00     0.030 A 
HETATM    8  C   UNK N   1      -7.834   8.167   0.389  0.00  0.00     0.043 A 
HETATM    9  C   UNK N   1      -6.520   8.621   0.529  0.00  0.00     0.038 A 
BRANCH   8  10
HETATM   10  N   UNK N   1      -8.930   8.934   0.910  0.00  0.00    -0.279 N 
HETATM   11  H   UNK N   1      -9.754   8.440   1.126  0.00  0.00     0.179 HD
BRANCH  10  12
HETATM   12  S   UNK N   1      -8.948  10.709   1.207  0.00  0.00     0.278 S 
HETATM   13  O   UNK N   1      -7.746  10.330   2.085  0.00  0.00    -0.199 OA
HETATM   14  O   UNK N   1      -8.576  10.599  -0.284  0.00  0.00    -0.199 OA
BRANCH  12  15
HETATM   15  C   UNK N   1      -7.544  11.841   0.728  0.00  0.00     0.149 A 
HETATM   16  C   UNK N   1      -7.762  13.226   0.734  0.00  0.00     0.044 A 
HETATM   17  C   UNK N   1      -6.739  14.093   0.325  0.00  0.00     0.020 A 
HETATM   18  C   UNK N   1      -5.508  13.580  -0.101  0.00  0.00     0.063 A 
HETATM   19  C   UNK N   1      -5.317  12.204  -0.079  0.00  0.00     0.105 A 
HETATM   20  N   UNK N   1      -6.310  11.378   0.328  0.00  0.00    -0.355 N 
ATOM     21  HN  UNK N   1      -6.137  10.372   0.339  1.00  0.00     0.166 HD
BRANCH  18  22
HETATM   22  C   UNK N   1      -4.412  14.489  -0.586  0.00  0.00     0.418 C 
HETATM   23  F   UNK N   1      -3.979  15.288   0.454  0.00  0.00    -0.166 F 
HETATM   24  F   UNK N   1      -3.333  13.763  -1.066  0.00  0.00    -0.166 F 
HETATM   25  F   UNK N   1      -4.889  15.288  -1.609  0.00  0.00    -0.166 F 
ENDBRANCH  18  22
ENDBRANCH  12  15
ENDBRANCH  10  12
ENDBRANCH   8  10
ENDBRANCH   1   4
BRANCH   1  26
HETATM   26  C   UNK N   1      -2.922   7.722  -0.065  0.00  0.00     0.055 C 
HETATM   27  C   UNK N   1      -1.687   8.077  -0.499  0.00  0.00     0.059 C 
HETATM   28  C   UNK N   1      -0.709   7.015  -0.894  0.00  0.00     0.103 C 
HETATM   29  C   UNK N   1      -0.729   5.764  -0.039  0.00  0.00     0.077 C 
HETATM   30  O   UNK N   1      -1.953   5.545   0.585  0.00  0.00    -0.306 OA
HETATM   31  C   UNK N   1      -3.048   6.325   0.457  0.00  0.00     0.293 C 
HETATM   32  O   UNK N   1      -4.101   5.927   0.948  0.00  0.00    -0.259 OA
BRANCH  27  33
HETATM   33  O   UNK N   1      -1.350   9.355  -0.731  0.00  0.00    -0.364 OA
HETATM   34  H   UNK N   1      -0.460   9.597  -0.894  0.00  0.00     0.217 HD
ENDBRANCH  27  33
BRANCH  29  35
HETATM   35  C   UNK N   1       0.439   5.863   0.965  0.00  0.00     0.038 C 
BRANCH  35  36
HETATM   36  C   UNK N   1       0.664   7.223   1.604  0.00  0.00    -0.002 C 
HETATM   37  C   UNK N   1       1.983   7.781   1.100  0.00  0.00     0.005 C 
ENDBRANCH  35  36
ENDBRANCH  29  35
BRANCH  29  38
HETATM   38  C   UNK N   1      -0.512   4.537  -0.934  0.00  0.00     0.043 C 
BRANCH  38  39
HETATM   39  C   UNK N   1      -0.202   3.348  -0.028  0.00  0.00     0.041 C 
BRANCH  39  40
HETATM   40  C   UNK N   1      -0.956   2.082  -0.209  0.00  0.00    -0.058 A 
HETATM   41  C   UNK N   1      -0.217   0.902  -0.298  0.00  0.00     0.007 A 
HETATM   42  C   UNK N   1      -0.861  -0.334  -0.306  0.00  0.00     0.001 A 
HETATM   43  C   UNK N   1      -2.253  -0.395  -0.216  0.00  0.00     0.000 A 
HETATM   44  C   UNK N   1      -3.002   0.785  -0.125  0.00  0.00     0.001 A 
HETATM   45  C   UNK N   1      -2.354   2.027  -0.107  0.00  0.00     0.007 A 
ENDBRANCH  39  40
ENDBRANCH  38  39
ENDBRANCH  29  38
ENDBRANCH   1  26
TORSDOF 13
