REMARK  8 active torsions:
REMARK  status: ('A' for Active; 'I' for Inactive)
REMARK    1  A    between atoms: C_6  and  C_5 
REMARK    2  A    between atoms: C_10  and  C_5 
REMARK    3  A    between atoms: O_13  and  C_7 
REMARK    4  A    between atoms: O_14  and  C_8 
REMARK    5  A    between atoms: C_10  and  C_9 
REMARK    6  A    between atoms: O_16  and  C_9 
REMARK    7  A    between atoms: C_10  and  N_12 
REMARK    8  A    between atoms: N_12  and  N_11 
ROOT
HETATM    1  C   UNK N   1       1.438  -1.431   0.115  0.00  0.00     0.082 C 
ENDROOT
BRANCH   1   2
HETATM    2  C   UNK N   1       1.246   0.059   0.065  0.00  0.00    -0.052 A 
HETATM    3  C   UNK N   1       2.385   0.856  -0.081  0.00  0.00     0.010 A 
HETATM    4  C   UNK N   1       2.270   2.244  -0.172  0.00  0.00     0.040 A 
HETATM    5  C   UNK N   1       1.013   2.848  -0.112  0.00  0.00     0.098 A 
HETATM    6  C   UNK N   1      -0.135   2.057   0.050  0.00  0.00     0.099 A 
HETATM    7  C   UNK N   1      -0.018   0.665   0.136  0.00  0.00     0.046 A 
BRANCH   5   8
HETATM    8  O   UNK N   1       0.912   4.183  -0.213  0.00  0.00    -0.358 OA
HETATM    9  H   UNK N   1       1.683   4.710  -0.283  0.00  0.00     0.217 HD
ENDBRANCH   5   8
BRANCH   6  10
HETATM   10  O   UNK N   1      -1.349   2.631   0.116  0.00  0.00    -0.358 OA
HETATM   11  H   UNK N   1      -1.425   3.564   0.163  0.00  0.00     0.217 HD
ENDBRANCH   6  10
ENDBRANCH   1   2
BRANCH   1  12
HETATM   12  C   UNK N   1       0.253  -2.350  -0.239  0.00  0.00     0.130 C 
HETATM   13  C   UNK N   1      -0.289  -1.964  -1.616  0.00  0.00     0.052 C 
BRANCH  12  14
HETATM   14  C   UNK N   1       0.754  -3.785  -0.301  0.00  0.00     0.170 C 
HETATM   15  O   UNK N   1       1.928  -4.048  -0.079  0.00  0.00    -0.648 OA
BRANCH  14  16
HETATM   16  O   UNK N   1      -0.090  -4.784  -0.624  0.00  0.00    -0.774 OA
HETATM   17  H   UNK N   1      -0.985  -4.623  -0.849  0.00  0.00     0.167 HD
ENDBRANCH  14  16
ENDBRANCH  12  14
BRANCH  12  18
HETATM   18  N   UNK N   1      -0.784  -2.204   0.793  0.00  0.00    -0.322 N 
HETATM   19  H   UNK N   1      -0.700  -1.621   1.625  0.00  0.00     0.181 HD
BRANCH  18  20
HETATM   20  N   UNK N   1      -1.906  -2.985   0.466  0.00  0.00    -0.348 N 
HETATM   21  H   UNK N   1      -2.804  -2.563   0.230  0.00  0.00     0.176 HD
HETATM   22  H   UNK N   1      -1.821  -4.001   0.466  0.00  0.00     0.176 HD
ENDBRANCH  18  20
ENDBRANCH  12  18
ENDBRANCH   1  12
TORSDOF 8
