REMARK  6 active torsions:
REMARK  status: ('A' for Active; 'I' for Inactive)
REMARK    1  A    between atoms: C_3  and  C_15 
REMARK    2  A    between atoms: C_7  and  N_9 
REMARK       I    between atoms: N_9  and  C_10 
REMARK    3  A    between atoms: C_10  and  C_13 
REMARK    4  A    between atoms: C_13  and  C_18 
REMARK    5  A    between atoms: C_13  and  N_24 
REMARK    6  A    between atoms: C_15  and  O_17 
ROOT
HETATM    1  C   UNK N   1      16.019  -4.539   0.665  0.00  0.00     0.187 A 
HETATM    2  N   UNK N   1      15.883  -5.947   0.488  0.00  0.00    -0.292 N 
HETATM    3  C   UNK N   1      16.911  -6.902   0.198  0.00  0.00     0.131 C 
HETATM    4  C   UNK N   1      18.153  -6.406  -0.091  0.00  0.00     0.055 C 
HETATM    5  C   UNK N   1      18.405  -4.909  -0.076  0.00  0.00     0.130 C 
HETATM    6  S   UNK N   1      16.995  -3.923  -0.733  0.00  0.00    -0.135 SA
HETATM    7  C   UNK N   1      14.392  -4.464   0.654  0.00  0.00     0.210 A 
HETATM    8  C   UNK N   1      14.584  -5.931   0.521  0.00  0.00     0.251 A 
HETATM    9  O   UNK N   1      13.800  -6.848   0.334  0.00  0.00    -0.271 OA
HETATM   10 Cl   UNK N   1      19.536  -7.411  -0.523  0.00  0.00    -0.086 Cl
ENDROOT
BRANCH   7  11
HETATM   11  N   UNK N   1      13.853  -3.973  -0.595  0.00  0.00    -0.343 N 
HETATM   12  C   UNK N   1      12.525  -3.736  -0.743  0.00  0.00     0.245 C 
HETATM   13  O   UNK N   1      12.103  -3.313  -1.807  0.00  0.00    -0.271 OA
HETATM   14  H   UNK N   1      14.461  -3.808  -1.352  0.00  0.00     0.163 HD
BRANCH  12  15
HETATM   15  C   UNK N   1      11.578  -3.985   0.403  0.00  0.00     0.201 C 
BRANCH  15  16
HETATM   16  C   UNK N   1      10.496  -4.973   0.087  0.00  0.00    -0.027 A 
HETATM   17  C   UNK N   1       9.399  -4.613  -0.711  0.00  0.00     0.010 A 
HETATM   18  C   UNK N   1       8.381  -5.538  -0.963  0.00  0.00     0.001 A 
HETATM   19  C   UNK N   1       8.462  -6.828  -0.432  0.00  0.00     0.000 A 
HETATM   20  C   UNK N   1       9.557  -7.193   0.356  0.00  0.00     0.001 A 
HETATM   21  C   UNK N   1      10.567  -6.263   0.624  0.00  0.00     0.010 A 
ENDBRANCH  15  16
BRANCH  15  22
HETATM   22  N   UNK N   1      11.012  -2.736   0.889  0.00  0.00    -0.415 N 
HETATM   23  H   UNK N   1      11.571  -1.955   1.229  0.00  0.00     0.151 HD
HETATM   24  H   UNK N   1       9.997  -2.637   0.889  0.00  0.00     0.151 HD
ENDBRANCH  15  22
ENDBRANCH  12  15
ENDBRANCH   7  11
BRANCH   3  25
HETATM   25  C   UNK N   1      16.596  -8.373   0.146  0.00  0.00     0.195 C 
HETATM   26  O   UNK N   1      15.466  -8.768   0.370  0.00  0.00    -0.645 OA
BRANCH  25  27
HETATM   27  O   UNK N   1      17.544  -9.283  -0.142  0.00  0.00    -0.772 OA
HETATM   28  H   UNK N   1      17.326 -10.172  -0.343  0.00  0.00     0.167 HD
ENDBRANCH  25  27
ENDBRANCH   3  25
TORSDOF 6
