MODEL 1
REMARK VINA RESULT:      -7.1      0.000      0.000
REMARK  6 active torsions:
REMARK  status: ('A' for Active; 'I' for Inactive)
REMARK    1  A    between atoms: C_2  and  C_15 
REMARK    2  A    between atoms: C_8  and  C_7 
REMARK    3  A    between atoms: O_16  and  C_7 
REMARK    4  A    between atoms: C_10  and  C_9 
REMARK    5  A    between atoms: C_12  and  C_11 
REMARK    6  A    between atoms: C_14  and  C_13 
ROOT
HETATM    1  C   UNK N   1      36.016  14.614  13.321  0.00  0.00     0.007 C 
HETATM    2  C   UNK N   1      36.497  13.380  13.561  0.00  0.00    -0.062 C 
HETATM    3  C   UNK N   1      37.051  12.542  12.451  0.00  0.00     0.048 C 
ENDROOT
BRANCH   2   4
HETATM    4  C   UNK N   1      36.489  12.793  14.915  0.00  0.00     0.007 C 
HETATM    5  C   UNK N   1      35.392  12.698  15.672  0.00  0.00     0.009 C 
BRANCH   5   6
HETATM    6  C   UNK N   1      35.394  12.053  17.021  0.00  0.00    -0.048 C 
HETATM    7  C   UNK N   1      35.486  10.521  17.156  0.00  0.00    -0.020 C 
HETATM    8  C   UNK N   1      34.392   9.846  16.346  0.00  0.00     0.020 C 
HETATM    9  C   UNK N   1      36.836  10.044  16.644  0.00  0.00     0.020 C 
HETATM   10  C   UNK N   1      35.303  10.028  18.594  0.00  0.00     0.014 C 
HETATM   11  C   UNK N   1      36.024  10.922  19.576  0.00  0.00     0.005 C 
HETATM   12  C   UNK N   1      35.370  12.293  19.522  0.00  0.00     0.034 C 
HETATM   13  C   UNK N   1      35.330  12.852  18.123  0.00  0.00    -0.077 C 
HETATM   14  C   UNK N   1      35.233  14.341  17.990  0.00  0.00     0.044 C 
ENDBRANCH   5   6
ENDBRANCH   2   4
BRANCH   1  15
HETATM   15  C   UNK N   1      36.009  15.166  11.956  0.00  0.00     0.001 C 
HETATM   16  C   UNK N   1      34.893  15.315  11.245  0.00  0.00     0.006 C 
BRANCH  16  17
HETATM   17  C   UNK N   1      34.954  15.882   9.882  0.00  0.00    -0.064 C 
HETATM   18  C   UNK N   1      34.579  17.152   9.684  0.00  0.00     0.005 C 
HETATM   19  C   UNK N   1      35.475  15.051   8.742  0.00  0.00     0.048 C 
BRANCH  18  20
HETATM   20  C   UNK N   1      34.654  17.804   8.338  0.00  0.00     0.192 C 
BRANCH  20  21
HETATM   21  O   UNK N   1      35.245  19.061   8.451  0.00  0.00    -0.397 OA
HETATM   22  H   UNK N   1      34.907  19.860   8.018  0.00  0.00     0.209 HD
ENDBRANCH  20  21
ENDBRANCH  18  20
ENDBRANCH  16  17
ENDBRANCH   1  15
TORSDOF 6
ENDMDL
MODEL 2
REMARK VINA RESULT:      -6.7     10.220     14.610
REMARK  6 active torsions:
REMARK  status: ('A' for Active; 'I' for Inactive)
REMARK    1  A    between atoms: C_2  and  C_15 
REMARK    2  A    between atoms: C_8  and  C_7 
REMARK    3  A    between atoms: O_16  and  C_7 
REMARK    4  A    between atoms: C_10  and  C_9 
REMARK    5  A    between atoms: C_12  and  C_11 
REMARK    6  A    between atoms: C_14  and  C_13 
ROOT
HETATM    1  C   UNK N   1      25.238  18.900   4.562  0.00  0.00     0.007 C 
HETATM    2  C   UNK N   1      26.438  19.457   4.313  0.00  0.00    -0.062 C 
HETATM    3  C   UNK N   1      26.585  20.541   3.291  0.00  0.00     0.048 C 
ENDROOT
BRANCH   2   4
HETATM    4  C   UNK N   1      27.659  19.019   5.017  0.00  0.00     0.007 C 
HETATM    5  C   UNK N   1      27.692  17.988   5.867  0.00  0.00     0.009 C 
BRANCH   5   6
HETATM    6  C   UNK N   1      28.950  17.529   6.531  0.00  0.00    -0.048 C 
HETATM    7  C   UNK N   1      29.973  16.672   5.761  0.00  0.00    -0.020 C 
HETATM    8  C   UNK N   1      29.306  15.437   5.177  0.00  0.00     0.020 C 
HETATM    9  C   UNK N   1      30.569  17.486   4.624  0.00  0.00     0.020 C 
HETATM   10  C   UNK N   1      31.111  16.151   6.643  0.00  0.00     0.014 C 
HETATM   11  C   UNK N   1      31.583  17.210   7.612  0.00  0.00     0.005 C 
HETATM   12  C   UNK N   1      30.434  17.519   8.557  0.00  0.00     0.034 C 
HETATM   13  C   UNK N   1      29.175  17.899   7.822  0.00  0.00    -0.077 C 
HETATM   14  C   UNK N   1      28.176  18.726   8.571  0.00  0.00     0.044 C 
ENDBRANCH   5   6
ENDBRANCH   2   4
BRANCH   1  15
HETATM   15  C   UNK N   1      24.040  19.335   3.826  0.00  0.00     0.001 C 
HETATM   16  C   UNK N   1      22.863  18.721   3.938  0.00  0.00     0.006 C 
BRANCH  16  17
HETATM   17  C   UNK N   1      21.696  19.212   3.176  0.00  0.00    -0.064 C 
HETATM   18  C   UNK N   1      21.853  20.231   2.322  0.00  0.00     0.005 C 
HETATM   19  C   UNK N   1      20.359  18.541   3.329  0.00  0.00     0.048 C 
BRANCH  18  20
HETATM   20  C   UNK N   1      20.724  20.752   1.488  0.00  0.00     0.192 C 
BRANCH  20  21
HETATM   21  O   UNK N   1      20.788  20.206   0.207  0.00  0.00    -0.397 OA
HETATM   22  H   UNK N   1      21.335  20.565  -0.508  0.00  0.00     0.209 HD
ENDBRANCH  20  21
ENDBRANCH  18  20
ENDBRANCH  16  17
ENDBRANCH   1  15
TORSDOF 6
ENDMDL
MODEL 3
REMARK VINA RESULT:      -6.6      9.497     13.259
REMARK  6 active torsions:
REMARK  status: ('A' for Active; 'I' for Inactive)
REMARK    1  A    between atoms: C_2  and  C_15 
REMARK    2  A    between atoms: C_8  and  C_7 
REMARK    3  A    between atoms: O_16  and  C_7 
REMARK    4  A    between atoms: C_10  and  C_9 
REMARK    5  A    between atoms: C_12  and  C_11 
REMARK    6  A    between atoms: C_14  and  C_13 
ROOT
HETATM    1  C   UNK N   1      27.377  18.820   4.323  0.00  0.00     0.007 C 
HETATM    2  C   UNK N   1      27.899  17.932   5.190  0.00  0.00    -0.062 C 
HETATM    3  C   UNK N   1      27.063  16.825   5.752  0.00  0.00     0.048 C 
ENDROOT
BRANCH   2   4
HETATM    4  C   UNK N   1      29.303  18.015   5.636  0.00  0.00     0.007 C 
HETATM    5  C   UNK N   1      29.951  17.008   6.229  0.00  0.00     0.009 C 
BRANCH   5   6
HETATM    6  C   UNK N   1      31.389  17.095   6.627  0.00  0.00    -0.048 C 
HETATM    7  C   UNK N   1      32.500  16.682   5.644  0.00  0.00    -0.020 C 
HETATM    8  C   UNK N   1      32.268  15.268   5.137  0.00  0.00     0.020 C 
HETATM    9  C   UNK N   1      32.509  17.629   4.455  0.00  0.00     0.020 C 
HETATM   10  C   UNK N   1      33.895  16.672   6.275  0.00  0.00     0.014 C 
HETATM   11  C   UNK N   1      34.092  17.861   7.188  0.00  0.00     0.005 C 
HETATM   12  C   UNK N   1      33.113  17.725   8.343  0.00  0.00     0.034 C 
HETATM   13  C   UNK N   1      31.691  17.562   7.871  0.00  0.00    -0.077 C 
HETATM   14  C   UNK N   1      30.609  17.957   8.829  0.00  0.00     0.044 C 
ENDBRANCH   5   6
ENDBRANCH   2   4
BRANCH   1  15
HETATM   15  C   UNK N   1      25.965  18.732   3.915  0.00  0.00     0.001 C 
HETATM   16  C   UNK N   1      25.115  19.749   4.040  0.00  0.00     0.006 C 
BRANCH  16  17
HETATM   17  C   UNK N   1      23.711  19.598   3.605  0.00  0.00    -0.064 C 
HETATM   18  C   UNK N   1      23.154  20.552   2.849  0.00  0.00     0.005 C 
HETATM   19  C   UNK N   1      22.936  18.363   3.973  0.00  0.00     0.048 C 
BRANCH  18  20
HETATM   20  C   UNK N   1      21.750  20.445   2.338  0.00  0.00     0.192 C 
BRANCH  20  21
HETATM   21  O   UNK N   1      20.905  21.254   3.095  0.00  0.00    -0.397 OA
HETATM   22  H   UNK N   1      20.332  21.940   2.720  0.00  0.00     0.209 HD
ENDBRANCH  20  21
ENDBRANCH  18  20
ENDBRANCH  16  17
ENDBRANCH   1  15
TORSDOF 6
ENDMDL
MODEL 4
REMARK VINA RESULT:      -6.3     10.069     14.304
REMARK  6 active torsions:
REMARK  status: ('A' for Active; 'I' for Inactive)
REMARK    1  A    between atoms: C_2  and  C_15 
REMARK    2  A    between atoms: C_8  and  C_7 
REMARK    3  A    between atoms: O_16  and  C_7 
REMARK    4  A    between atoms: C_10  and  C_9 
REMARK    5  A    between atoms: C_12  and  C_11 
REMARK    6  A    between atoms: C_14  and  C_13 
ROOT
HETATM    1  C   UNK N   1      25.566  18.200   4.571  0.00  0.00     0.007 C 
HETATM    2  C   UNK N   1      26.652  18.986   4.448  0.00  0.00    -0.062 C 
HETATM    3  C   UNK N   1      26.665  20.132   3.484  0.00  0.00     0.048 C 
ENDROOT
BRANCH   2   4
HETATM    4  C   UNK N   1      27.875  18.751   5.238  0.00  0.00     0.007 C 
HETATM    5  C   UNK N   1      28.064  17.672   6.003  0.00  0.00     0.009 C 
BRANCH   5   6
HETATM    6  C   UNK N   1      29.333  17.428   6.756  0.00  0.00    -0.048 C 
HETATM    7  C   UNK N   1      30.495  16.656   6.103  0.00  0.00    -0.020 C 
HETATM    8  C   UNK N   1      30.020  15.307   5.589  0.00  0.00     0.020 C 
HETATM    9  C   UNK N   1      31.045  17.456   4.932  0.00  0.00     0.020 C 
HETATM   10  C   UNK N   1      31.640  16.351   7.072  0.00  0.00     0.014 C 
HETATM   11  C   UNK N   1      31.923  17.530   7.974  0.00  0.00     0.005 C 
HETATM   12  C   UNK N   1      30.695  17.756   8.841  0.00  0.00     0.034 C 
HETATM   13  C   UNK N   1      29.440  17.916   8.023  0.00  0.00    -0.077 C 
HETATM   14  C   UNK N   1      28.306  18.660   8.660  0.00  0.00     0.044 C 
ENDBRANCH   5   6
ENDBRANCH   2   4
BRANCH   1  15
HETATM   15  C   UNK N   1      24.368  18.438   3.750  0.00  0.00     0.001 C 
HETATM   16  C   UNK N   1      23.200  18.811   4.272  0.00  0.00     0.006 C 
BRANCH  16  17
HETATM   17  C   UNK N   1      22.036  19.041   3.392  0.00  0.00    -0.064 C 
HETATM   18  C   UNK N   1      21.194  18.031   3.142  0.00  0.00     0.005 C 
HETATM   19  C   UNK N   1      21.780  20.409   2.822  0.00  0.00     0.048 C 
BRANCH  18  20
HETATM   20  C   UNK N   1      19.972  18.203   2.293  0.00  0.00     0.192 C 
BRANCH  20  21
HETATM   21  O   UNK N   1      18.832  17.893   3.032  0.00  0.00    -0.397 OA
HETATM   22  H   UNK N   1      18.201  17.198   2.789  0.00  0.00     0.209 HD
ENDBRANCH  20  21
ENDBRANCH  18  20
ENDBRANCH  16  17
ENDBRANCH   1  15
TORSDOF 6
ENDMDL
MODEL 5
REMARK VINA RESULT:      -6.2      8.686     14.407
REMARK  6 active torsions:
REMARK  status: ('A' for Active; 'I' for Inactive)
REMARK    1  A    between atoms: C_2  and  C_15 
REMARK    2  A    between atoms: C_8  and  C_7 
REMARK    3  A    between atoms: O_16  and  C_7 
REMARK    4  A    between atoms: C_10  and  C_9 
REMARK    5  A    between atoms: C_12  and  C_11 
REMARK    6  A    between atoms: C_14  and  C_13 
ROOT
HETATM    1  C   UNK N   1      28.930  17.664   6.845  0.00  0.00     0.007 C 
HETATM    2  C   UNK N   1      28.402  17.641   5.606  0.00  0.00    -0.062 C 
HETATM    3  C   UNK N   1      29.264  17.383   4.410  0.00  0.00     0.048 C 
ENDROOT
BRANCH   2   4
HETATM    4  C   UNK N   1      26.966  17.880   5.368  0.00  0.00     0.007 C 
HETATM    5  C   UNK N   1      26.401  17.839   4.158  0.00  0.00     0.009 C 
BRANCH   5   6
HETATM    6  C   UNK N   1      24.934  18.034   3.944  0.00  0.00    -0.048 C 
HETATM    7  C   UNK N   1      23.956  16.854   4.101  0.00  0.00    -0.020 C 
HETATM    8  C   UNK N   1      24.379  15.688   3.223  0.00  0.00     0.020 C 
HETATM    9  C   UNK N   1      23.942  16.392   5.550  0.00  0.00     0.020 C 
HETATM   10  C   UNK N   1      22.525  17.194   3.680  0.00  0.00     0.014 C 
HETATM   11  C   UNK N   1      22.129  18.576   4.146  0.00  0.00     0.005 C 
HETATM   12  C   UNK N   1      23.020  19.579   3.433  0.00  0.00     0.034 C 
HETATM   13  C   UNK N   1      24.485  19.280   3.624  0.00  0.00    -0.077 C 
HETATM   14  C   UNK N   1      25.437  20.425   3.465  0.00  0.00     0.044 C 
ENDBRANCH   5   6
ENDBRANCH   2   4
BRANCH   1  15
HETATM   15  C   UNK N   1      30.371  17.450   7.053  0.00  0.00     0.001 C 
HETATM   16  C   UNK N   1      30.937  17.484   8.258  0.00  0.00     0.006 C 
BRANCH  16  17
HETATM   17  C   UNK N   1      32.390  17.254   8.400  0.00  0.00    -0.064 C 
HETATM   18  C   UNK N   1      33.242  18.241   8.096  0.00  0.00     0.005 C 
HETATM   19  C   UNK N   1      32.898  15.938   8.922  0.00  0.00     0.048 C 
BRANCH  18  20
HETATM   20  C   UNK N   1      34.724  18.091   8.256  0.00  0.00     0.192 C 
BRANCH  20  21
HETATM   21  O   UNK N   1      35.299  19.328   8.539  0.00  0.00    -0.397 OA
HETATM   22  H   UNK N   1      34.801  20.160   8.583  0.00  0.00     0.209 HD
ENDBRANCH  20  21
ENDBRANCH  18  20
ENDBRANCH  16  17
ENDBRANCH   1  15
TORSDOF 6
ENDMDL
MODEL 6
REMARK VINA RESULT:      -6.2      3.888      6.227
REMARK  6 active torsions:
REMARK  status: ('A' for Active; 'I' for Inactive)
REMARK    1  A    between atoms: C_2  and  C_15 
REMARK    2  A    between atoms: C_8  and  C_7 
REMARK    3  A    between atoms: O_16  and  C_7 
REMARK    4  A    between atoms: C_10  and  C_9 
REMARK    5  A    between atoms: C_12  and  C_11 
REMARK    6  A    between atoms: C_14  and  C_13 
ROOT
HETATM    1  C   UNK N   1      35.173  11.065  18.261  0.00  0.00     0.007 C 
HETATM    2  C   UNK N   1      34.900   9.746  18.279  0.00  0.00    -0.062 C 
HETATM    3  C   UNK N   1      35.120   8.900  17.064  0.00  0.00     0.048 C 
ENDROOT
BRANCH   2   4
HETATM    4  C   UNK N   1      34.363   9.081  19.481  0.00  0.00     0.007 C 
HETATM    5  C   UNK N   1      33.057   8.990  19.754  0.00  0.00     0.009 C 
BRANCH   5   6
HETATM    6  C   UNK N   1      32.531   8.267  20.951  0.00  0.00    -0.048 C 
HETATM    7  C   UNK N   1      32.191   6.766  20.873  0.00  0.00    -0.020 C 
HETATM    8  C   UNK N   1      31.224   6.495  19.732  0.00  0.00     0.020 C 
HETATM    9  C   UNK N   1      33.462   5.967  20.632  0.00  0.00     0.020 C 
HETATM   10  C   UNK N   1      31.506   6.233  22.134  0.00  0.00     0.014 C 
HETATM   11  C   UNK N   1      32.136   6.805  23.383  0.00  0.00     0.005 C 
HETATM   12  C   UNK N   1      31.891   8.305  23.380  0.00  0.00     0.034 C 
HETATM   13  C   UNK N   1      32.374   8.961  22.113  0.00  0.00    -0.077 C 
HETATM   14  C   UNK N   1      32.698  10.422  22.186  0.00  0.00     0.044 C 
ENDBRANCH   5   6
ENDBRANCH   2   4
BRANCH   1  15
HETATM   15  C   UNK N   1      35.682  11.711  17.040  0.00  0.00     0.001 C 
HETATM   16  C   UNK N   1      35.013  12.668  16.400  0.00  0.00     0.006 C 
BRANCH  16  17
HETATM   17  C   UNK N   1      35.583  13.282  15.182  0.00  0.00    -0.064 C 
HETATM   18  C   UNK N   1      34.973  13.092  14.007  0.00  0.00     0.005 C 
HETATM   19  C   UNK N   1      36.811  14.146  15.277  0.00  0.00     0.048 C 
BRANCH  18  20
HETATM   20  C   UNK N   1      35.472  13.717  12.740  0.00  0.00     0.192 C 
BRANCH  20  21
HETATM   21  O   UNK N   1      34.396  14.054  11.921  0.00  0.00    -0.397 OA
HETATM   22  H   UNK N   1      33.868  14.861  12.025  0.00  0.00     0.209 HD
ENDBRANCH  20  21
ENDBRANCH  18  20
ENDBRANCH  16  17
ENDBRANCH   1  15
TORSDOF 6
ENDMDL
MODEL 7
REMARK VINA RESULT:      -6.0     10.177     14.672
REMARK  6 active torsions:
REMARK  status: ('A' for Active; 'I' for Inactive)
REMARK    1  A    between atoms: C_2  and  C_15 
REMARK    2  A    between atoms: C_8  and  C_7 
REMARK    3  A    between atoms: O_16  and  C_7 
REMARK    4  A    between atoms: C_10  and  C_9 
REMARK    5  A    between atoms: C_12  and  C_11 
REMARK    6  A    between atoms: C_14  and  C_13 
ROOT
HETATM    1  C   UNK N   1      24.959  18.626   4.593  0.00  0.00     0.007 C 
HETATM    2  C   UNK N   1      25.864  17.667   4.320  0.00  0.00    -0.062 C 
HETATM    3  C   UNK N   1      25.780  16.871   3.055  0.00  0.00     0.048 C 
ENDROOT
BRANCH   2   4
HETATM    4  C   UNK N   1      26.962  17.346   5.251  0.00  0.00     0.007 C 
HETATM    5  C   UNK N   1      28.092  18.056   5.333  0.00  0.00     0.009 C 
BRANCH   5   6
HETATM    6  C   UNK N   1      29.172  17.745   6.319  0.00  0.00    -0.048 C 
HETATM    7  C   UNK N   1      28.929  17.929   7.829  0.00  0.00    -0.020 C 
HETATM    8  C   UNK N   1      28.453  19.342   8.126  0.00  0.00     0.020 C 
HETATM    9  C   UNK N   1      27.866  16.949   8.299  0.00  0.00     0.020 C 
HETATM   10  C   UNK N   1      30.190  17.730   8.674  0.00  0.00     0.014 C 
HETATM   11  C   UNK N   1      31.007  16.561   8.173  0.00  0.00     0.005 C 
HETATM   12  C   UNK N   1      31.494  16.902   6.774  0.00  0.00     0.034 C 
HETATM   13  C   UNK N   1      30.364  17.281   5.852  0.00  0.00    -0.077 C 
HETATM   14  C   UNK N   1      30.602  17.109   4.383  0.00  0.00     0.044 C 
ENDBRANCH   5   6
ENDBRANCH   2   4
BRANCH   1  15
HETATM   15  C   UNK N   1      23.856  18.907   3.660  0.00  0.00     0.001 C 
HETATM   16  C   UNK N   1      22.592  19.037   4.059  0.00  0.00     0.006 C 
BRANCH  16  17
HETATM   17  C   UNK N   1      21.530  19.326   3.072  0.00  0.00    -0.064 C 
HETATM   18  C   UNK N   1      21.568  20.477   2.389  0.00  0.00     0.005 C 
HETATM   19  C   UNK N   1      20.448  18.315   2.810  0.00  0.00     0.048 C 
BRANCH  18  20
HETATM   20  C   UNK N   1      20.549  20.817   1.345  0.00  0.00     0.192 C 
BRANCH  20  21
HETATM   21  O   UNK N   1      21.064  20.559   0.077  0.00  0.00    -0.397 OA
HETATM   22  H   UNK N   1      21.948  20.193  -0.085  0.00  0.00     0.209 HD
ENDBRANCH  20  21
ENDBRANCH  18  20
ENDBRANCH  16  17
ENDBRANCH   1  15
TORSDOF 6
ENDMDL
MODEL 8
REMARK VINA RESULT:      -6.0      9.150     12.985
REMARK  6 active torsions:
REMARK  status: ('A' for Active; 'I' for Inactive)
REMARK    1  A    between atoms: C_2  and  C_15 
REMARK    2  A    between atoms: C_8  and  C_7 
REMARK    3  A    between atoms: O_16  and  C_7 
REMARK    4  A    between atoms: C_10  and  C_9 
REMARK    5  A    between atoms: C_12  and  C_11 
REMARK    6  A    between atoms: C_14  and  C_13 
ROOT
HETATM    1  C   UNK N   1      27.474  17.866   5.092  0.00  0.00     0.007 C 
HETATM    2  C   UNK N   1      27.969  16.644   5.365  0.00  0.00    -0.062 C 
HETATM    3  C   UNK N   1      27.087  15.435   5.338  0.00  0.00     0.048 C 
ENDROOT
BRANCH   2   4
HETATM    4  C   UNK N   1      29.388  16.440   5.715  0.00  0.00     0.007 C 
HETATM    5  C   UNK N   1      30.267  17.438   5.843  0.00  0.00     0.009 C 
BRANCH   5   6
HETATM    6  C   UNK N   1      31.689  17.215   6.249  0.00  0.00    -0.048 C 
HETATM    7  C   UNK N   1      32.056  16.998   7.729  0.00  0.00    -0.020 C 
HETATM    8  C   UNK N   1      31.526  18.138   8.584  0.00  0.00     0.020 C 
HETATM    9  C   UNK N   1      31.444  15.696   8.222  0.00  0.00     0.020 C 
HETATM   10  C   UNK N   1      33.565  16.958   7.979  0.00  0.00     0.014 C 
HETATM   11  C   UNK N   1      34.280  16.181   6.898  0.00  0.00     0.005 C 
HETATM   12  C   UNK N   1      34.096  16.931   5.589  0.00  0.00     0.034 C 
HETATM   13  C   UNK N   1      32.645  17.192   5.278  0.00  0.00    -0.077 C 
HETATM   14  C   UNK N   1      32.288  17.410   3.840  0.00  0.00     0.044 C 
ENDBRANCH   5   6
ENDBRANCH   2   4
BRANCH   1  15
HETATM   15  C   UNK N   1      26.049  18.046   4.773  0.00  0.00     0.001 C 
HETATM   16  C   UNK N   1      25.585  19.113   4.124  0.00  0.00     0.006 C 
BRANCH  16  17
HETATM   17  C   UNK N   1      24.142  19.230   3.828  0.00  0.00    -0.064 C 
HETATM   18  C   UNK N   1      23.707  20.257   3.089  0.00  0.00     0.005 C 
HETATM   19  C   UNK N   1      23.184  18.180   4.318  0.00  0.00     0.048 C 
BRANCH  18  20
HETATM   20  C   UNK N   1      22.265  20.416   2.716  0.00  0.00     0.192 C 
BRANCH  20  21
HETATM   21  O   UNK N   1      21.916  21.765   2.729  0.00  0.00    -0.397 OA
HETATM   22  H   UNK N   1      22.557  22.490   2.787  0.00  0.00     0.209 HD
ENDBRANCH  20  21
ENDBRANCH  18  20
ENDBRANCH  16  17
ENDBRANCH   1  15
TORSDOF 6
ENDMDL
MODEL 9
REMARK VINA RESULT:      -6.0      3.415      6.096
REMARK  6 active torsions:
REMARK  status: ('A' for Active; 'I' for Inactive)
REMARK    1  A    between atoms: C_2  and  C_15 
REMARK    2  A    between atoms: C_8  and  C_7 
REMARK    3  A    between atoms: O_16  and  C_7 
REMARK    4  A    between atoms: C_10  and  C_9 
REMARK    5  A    between atoms: C_12  and  C_11 
REMARK    6  A    between atoms: C_14  and  C_13 
ROOT
HETATM    1  C   UNK N   1      35.205  10.937  17.237  0.00  0.00     0.007 C 
HETATM    2  C   UNK N   1      35.053  10.916  18.574  0.00  0.00    -0.062 C 
HETATM    3  C   UNK N   1      35.317  12.139  19.396  0.00  0.00     0.048 C 
ENDROOT
BRANCH   2   4
HETATM    4  C   UNK N   1      34.635   9.695  19.290  0.00  0.00     0.007 C 
HETATM    5  C   UNK N   1      33.615   8.925  18.902  0.00  0.00     0.009 C 
BRANCH   5   6
HETATM    6  C   UNK N   1      33.240   7.663  19.612  0.00  0.00    -0.048 C 
HETATM    7  C   UNK N   1      32.157   7.673  20.708  0.00  0.00    -0.020 C 
HETATM    8  C   UNK N   1      32.488   8.700  21.778  0.00  0.00     0.020 C 
HETATM    9  C   UNK N   1      30.812   8.027  20.094  0.00  0.00     0.020 C 
HETATM   10  C   UNK N   1      32.026   6.336  21.442  0.00  0.00     0.014 C 
HETATM   11  C   UNK N   1      32.126   5.172  20.484  0.00  0.00     0.005 C 
HETATM   12  C   UNK N   1      33.524   5.182  19.886  0.00  0.00     0.034 C 
HETATM   13  C   UNK N   1      33.867   6.507  19.256  0.00  0.00    -0.077 C 
HETATM   14  C   UNK N   1      34.925   6.500  18.196  0.00  0.00     0.044 C 
ENDBRANCH   5   6
ENDBRANCH   2   4
BRANCH   1  15
HETATM   15  C   UNK N   1      35.650  12.160  16.549  0.00  0.00     0.001 C 
HETATM   16  C   UNK N   1      35.723  12.255  15.223  0.00  0.00     0.006 C 
BRANCH  16  17
HETATM   17  C   UNK N   1      36.171  13.515  14.594  0.00  0.00    -0.064 C 
HETATM   18  C   UNK N   1      35.723  13.833  13.373  0.00  0.00     0.005 C 
HETATM   19  C   UNK N   1      37.085  14.447  15.341  0.00  0.00     0.048 C 
BRANCH  18  20
HETATM   20  C   UNK N   1      36.102  15.113  12.694  0.00  0.00     0.192 C 
BRANCH  20  21
HETATM   21  O   UNK N   1      36.819  14.839  11.531  0.00  0.00    -0.397 OA
HETATM   22  H   UNK N   1      36.408  14.625  10.679  0.00  0.00     0.209 HD
ENDBRANCH  20  21
ENDBRANCH  18  20
ENDBRANCH  16  17
ENDBRANCH   1  15
TORSDOF 6
ENDMDL
