MODEL 1
REMARK VINA RESULT:      -7.6      0.000      0.000
REMARK  7 active torsions:
REMARK  status: ('A' for Active; 'I' for Inactive)
REMARK    1  A    between atoms: C_3  and  O_9 
REMARK    2  A    between atoms: C_4  and  N_11 
REMARK    3  A    between atoms: C_5  and  O_13 
REMARK    4  A    between atoms: C_10  and  O_17 
REMARK    5  A    between atoms: C_14  and  C_21 
REMARK    6  A    between atoms: C_16  and  O_33 
REMARK       I    between atoms: C_21  and  N_26 
REMARK    7  A    between atoms: C_29  and  O_32 
ROOT
HETATM    1  C   UNK N   1      33.908  14.511   7.715  0.00  0.00     0.104 C 
HETATM    2  C   UNK N   1      33.791  15.366   9.001  0.00  0.00     0.180 C 
HETATM    3  C   UNK N   1      33.047  15.129   6.575  0.00  0.00     0.140 C 
HETATM    4  C   UNK N   1      35.428  14.390   7.437  0.00  0.00     0.289 C 
HETATM    5  C   UNK N   1      32.334  15.749   9.258  0.00  0.00     0.097 C 
HETATM    6  C   UNK N   1      34.495  14.640  10.143  0.00  0.00     0.208 C 
HETATM    7  O   UNK N   1      34.488  16.566   8.797  0.00  0.00    -0.374 OA
HETATM    8  C   UNK N   1      32.237  16.424   6.864  0.00  0.00     0.093 C 
HETATM    9  C   UNK N   1      36.149  13.669   8.580  0.00  0.00     0.096 C 
HETATM   10  C   UNK N   1      31.597  16.286   8.241  0.00  0.00     0.035 C 
HETATM   11  C   UNK N   1      35.711  13.798   9.867  0.00  0.00     0.112 C 
HETATM   12  O   UNK N   1      34.078  14.750  11.288  0.00  0.00    -0.288 OA
HETATM   13  C   UNK N   1      31.207  16.658   5.710  0.00  0.00     0.092 C 
HETATM   14  C   UNK N   1      30.218  16.820   8.469  0.00  0.00     0.195 C 
HETATM   15  C   UNK N   1      30.035  17.545   6.071  0.00  0.00    -0.007 A 
HETATM   16  C   UNK N   1      31.959  17.230   4.505  0.00  0.00     0.052 C 
HETATM   17  C   UNK N   1      29.516  17.562   7.385  0.00  0.00     0.057 A 
HETATM   18  O   UNK N   1      29.706  16.736   9.575  0.00  0.00    -0.287 OA
HETATM   19  C   UNK N   1      29.327  18.197   5.044  0.00  0.00     0.011 A 
HETATM   20  C   UNK N   1      28.325  18.288   7.646  0.00  0.00     0.080 A 
HETATM   21  C   UNK N   1      28.165  18.910   5.314  0.00  0.00     0.003 A 
HETATM   22  C   UNK N   1      27.667  18.957   6.612  0.00  0.00     0.037 A 
HETATM   23  H   UNK N   1      35.059  17.329   8.615  0.00  0.00     0.211 HD
ENDROOT
BRANCH   5  24
HETATM   24  O   UNK N   1      31.793  15.586  10.485  0.00  0.00    -0.361 OA
HETATM   25  H   UNK N   1      32.016  16.086  11.245  0.00  0.00     0.217 HD
ENDBRANCH   5  24
BRANCH   3  26
HETATM   26  O   UNK N   1      33.584  15.035   5.290  0.00  0.00    -0.394 OA
HETATM   27  H   UNK N   1      34.193  15.705   4.940  0.00  0.00     0.210 HD
ENDBRANCH   3  26
BRANCH   4  28
HETATM   28  N   UNK N   1      35.780  13.921   6.085  0.00  0.00     0.091 N 
HETATM   29  C   UNK N   1      35.747  12.470   5.963  0.00  0.00     0.310 C 
HETATM   30  C   UNK N   1      37.097  14.414   5.711  0.00  0.00     0.310 C 
ENDBRANCH   4  28
BRANCH  11  31
HETATM   31  C   UNK N   1      36.393  13.080  11.005  0.00  0.00     0.255 C 
HETATM   32  N   UNK N   1      37.050  13.756  11.969  0.00  0.00    -0.366 N 
HETATM   33  H   UNK N   1      37.338  13.291  12.787  0.00  0.00     0.159 HD
HETATM   34  H   UNK N   1      37.243  14.714  11.853  0.00  0.00     0.159 HD
HETATM   35  O   UNK N   1      36.366  11.860  11.063  0.00  0.00    -0.268 OA
ENDBRANCH  11  31
BRANCH   9  36
HETATM   36  O   UNK N   1      37.214  12.892   8.293  0.00  0.00    -0.362 OA
HETATM   37  H   UNK N   1      38.018  13.010   8.759  0.00  0.00     0.217 HD
ENDBRANCH   9  36
BRANCH  13  38
HETATM   38  O   UNK N   1      30.649  15.434   5.325  0.00  0.00    -0.385 OA
HETATM   39  H   UNK N   1      30.626  14.522   4.992  0.00  0.00     0.211 HD
ENDBRANCH  13  38
BRANCH  20  40
HETATM   40  O   UNK N   1      27.803  18.350   8.883  0.00  0.00    -0.360 OA
HETATM   41  H   UNK N   1      28.224  17.957   9.622  0.00  0.00     0.217 HD
ENDBRANCH  20  40
TORSDOF 7
ENDMDL
MODEL 2
REMARK VINA RESULT:      -7.6      3.693      7.991
REMARK  7 active torsions:
REMARK  status: ('A' for Active; 'I' for Inactive)
REMARK    1  A    between atoms: C_3  and  O_9 
REMARK    2  A    between atoms: C_4  and  N_11 
REMARK    3  A    between atoms: C_5  and  O_13 
REMARK    4  A    between atoms: C_10  and  O_17 
REMARK    5  A    between atoms: C_14  and  C_21 
REMARK    6  A    between atoms: C_16  and  O_33 
REMARK       I    between atoms: C_21  and  N_26 
REMARK    7  A    between atoms: C_29  and  O_32 
ROOT
HETATM    1  C   UNK N   1      34.937  13.854   9.512  0.00  0.00     0.104 C 
HETATM    2  C   UNK N   1      34.497  14.927  10.540  0.00  0.00     0.180 C 
HETATM    3  C   UNK N   1      34.951  12.446  10.174  0.00  0.00     0.140 C 
HETATM    4  C   UNK N   1      33.987  14.031   8.300  0.00  0.00     0.289 C 
HETATM    5  C   UNK N   1      35.209  14.711  11.874  0.00  0.00     0.097 C 
HETATM    6  C   UNK N   1      34.668  16.308   9.915  0.00  0.00     0.208 C 
HETATM    7  O   UNK N   1      33.127  14.764  10.788  0.00  0.00    -0.374 OA
HETATM    8  C   UNK N   1      34.560  12.317  11.673  0.00  0.00     0.093 C 
HETATM    9  C   UNK N   1      34.143  15.418   7.667  0.00  0.00     0.096 C 
HETATM   10  C   UNK N   1      35.212  13.466  12.435  0.00  0.00     0.035 C 
HETATM   11  C   UNK N   1      34.455  16.501   8.438  0.00  0.00     0.112 C 
HETATM   12  O   UNK N   1      34.967  17.265  10.616  0.00  0.00    -0.288 OA
HETATM   13  C   UNK N   1      34.970  10.901  12.195  0.00  0.00     0.092 C 
HETATM   14  C   UNK N   1      35.757  13.224  13.806  0.00  0.00     0.195 C 
HETATM   15  C   UNK N   1      35.128  10.795  13.696  0.00  0.00    -0.007 A 
HETATM   16  C   UNK N   1      33.937   9.887  11.693  0.00  0.00     0.052 C 
HETATM   17  C   UNK N   1      35.580  11.896  14.458  0.00  0.00     0.057 A 
HETATM   18  O   UNK N   1      36.261  14.143  14.435  0.00  0.00    -0.287 OA
HETATM   19  C   UNK N   1      35.026   9.531  14.308  0.00  0.00     0.011 A 
HETATM   20  C   UNK N   1      35.861  11.711  15.836  0.00  0.00     0.080 A 
HETATM   21  C   UNK N   1      35.298   9.366  15.662  0.00  0.00     0.003 A 
HETATM   22  C   UNK N   1      35.711  10.454  16.423  0.00  0.00     0.037 A 
HETATM   23  H   UNK N   1      32.165  14.646  10.842  0.00  0.00     0.211 HD
ENDROOT
BRANCH   5  24
HETATM   24  O   UNK N   1      35.801  15.749  12.506  0.00  0.00    -0.361 OA
HETATM   25  H   UNK N   1      36.691  16.015  12.392  0.00  0.00     0.217 HD
ENDBRANCH   5  24
BRANCH   3  26
HETATM   26  O   UNK N   1      34.547  11.387   9.359  0.00  0.00    -0.394 OA
HETATM   27  H   UNK N   1      35.164  10.940   8.759  0.00  0.00     0.210 HD
ENDBRANCH   3  26
BRANCH   4  28
HETATM   28  N   UNK N   1      33.978  12.909   7.345  0.00  0.00     0.091 N 
HETATM   29  C   UNK N   1      35.129  12.917   6.451  0.00  0.00     0.310 C 
HETATM   30  C   UNK N   1      32.751  12.926   6.563  0.00  0.00     0.310 C 
ENDBRANCH   4  28
BRANCH  11  31
HETATM   31  C   UNK N   1      34.633  17.872   7.833  0.00  0.00     0.255 C 
HETATM   32  N   UNK N   1      35.004  18.928   8.583  0.00  0.00    -0.366 N 
HETATM   33  H   UNK N   1      35.281  19.767   8.149  0.00  0.00     0.159 HD
HETATM   34  H   UNK N   1      34.996  18.861   9.565  0.00  0.00     0.159 HD
HETATM   35  O   UNK N   1      34.432  18.044   6.640  0.00  0.00    -0.268 OA
ENDBRANCH  11  31
BRANCH   9  36
HETATM   36  O   UNK N   1      33.981  15.549   6.334  0.00  0.00    -0.362 OA
HETATM   37  H   UNK N   1      34.049  16.395   5.935  0.00  0.00     0.217 HD
ENDBRANCH   9  36
BRANCH  13  38
HETATM   38  O   UNK N   1      36.213  10.546  11.659  0.00  0.00    -0.385 OA
HETATM   39  H   UNK N   1      36.946   9.967  11.397  0.00  0.00     0.211 HD
ENDBRANCH  13  38
BRANCH  20  40
HETATM   40  O   UNK N   1      36.273  12.733  16.606  0.00  0.00    -0.360 OA
HETATM   41  H   UNK N   1      35.910  13.593  16.530  0.00  0.00     0.217 HD
ENDBRANCH  20  40
TORSDOF 7
ENDMDL
MODEL 3
REMARK VINA RESULT:      -7.4      1.529      2.081
REMARK  7 active torsions:
REMARK  status: ('A' for Active; 'I' for Inactive)
REMARK    1  A    between atoms: C_3  and  O_9 
REMARK    2  A    between atoms: C_4  and  N_11 
REMARK    3  A    between atoms: C_5  and  O_13 
REMARK    4  A    between atoms: C_10  and  O_17 
REMARK    5  A    between atoms: C_14  and  C_21 
REMARK    6  A    between atoms: C_16  and  O_33 
REMARK       I    between atoms: C_21  and  N_26 
REMARK    7  A    between atoms: C_29  and  O_32 
ROOT
HETATM    1  C   UNK N   1      35.415  13.829   8.868  0.00  0.00     0.104 C 
HETATM    2  C   UNK N   1      34.983  14.811   9.985  0.00  0.00     0.180 C 
HETATM    3  C   UNK N   1      34.815  14.269   7.501  0.00  0.00     0.140 C 
HETATM    4  C   UNK N   1      36.962  13.766   8.949  0.00  0.00     0.289 C 
HETATM    5  C   UNK N   1      33.495  15.134   9.866  0.00  0.00     0.097 C 
HETATM    6  C   UNK N   1      35.433  14.254  11.333  0.00  0.00     0.208 C 
HETATM    7  O   UNK N   1      35.670  16.019   9.800  0.00  0.00    -0.374 OA
HETATM    8  C   UNK N   1      33.920  15.539   7.447  0.00  0.00     0.093 C 
HETATM    9  C   UNK N   1      37.427  13.216  10.301  0.00  0.00     0.096 C 
HETATM   10  C   UNK N   1      32.990  15.515   8.655  0.00  0.00     0.035 C 
HETATM   11  C   UNK N   1      36.705  13.458  11.434  0.00  0.00     0.112 C 
HETATM   12  O   UNK N   1      34.764  14.463  12.335  0.00  0.00    -0.288 OA
HETATM   13  C   UNK N   1      33.172  15.586   6.075  0.00  0.00     0.092 C 
HETATM   14  C   UNK N   1      31.579  15.990   8.507  0.00  0.00     0.195 C 
HETATM   15  C   UNK N   1      31.921  16.438   6.060  0.00  0.00    -0.007 A 
HETATM   16  C   UNK N   1      34.158  16.067   5.006  0.00  0.00     0.052 C 
HETATM   17  C   UNK N   1      31.117  16.568   7.215  0.00  0.00     0.057 A 
HETATM   18  O   UNK N   1      30.832  15.997   9.474  0.00  0.00    -0.287 OA
HETATM   19  C   UNK N   1      31.443  16.933   4.831  0.00  0.00     0.011 A 
HETATM   20  C   UNK N   1      29.875  17.248   7.117  0.00  0.00     0.080 A 
HETATM   21  C   UNK N   1      30.228  17.603   4.751  0.00  0.00     0.003 A 
HETATM   22  C   UNK N   1      29.448  17.762   5.892  0.00  0.00     0.037 A 
HETATM   23  H   UNK N   1      36.243  16.789   9.659  0.00  0.00     0.211 HD
ENDROOT
BRANCH   5  24
HETATM   24  O   UNK N   1      32.695  15.074  10.954  0.00  0.00    -0.361 OA
HETATM   25  H   UNK N   1      31.875  14.624  10.998  0.00  0.00     0.217 HD
ENDBRANCH   5  24
BRANCH   3  26
HETATM   26  O   UNK N   1      35.632  14.067   6.386  0.00  0.00    -0.394 OA
HETATM   27  H   UNK N   1      35.355  13.509   5.643  0.00  0.00     0.210 HD
ENDBRANCH   3  26
BRANCH   4  28
HETATM   28  N   UNK N   1      37.626  13.175   7.774  0.00  0.00     0.091 N 
HETATM   29  C   UNK N   1      37.666  11.719   7.821  0.00  0.00     0.310 C 
HETATM   30  C   UNK N   1      38.977  13.698   7.645  0.00  0.00     0.310 C 
ENDBRANCH   4  28
BRANCH  11  31
HETATM   31  C   UNK N   1      37.135  12.909  12.772  0.00  0.00     0.255 C 
HETATM   32  N   UNK N   1      37.128  13.675  13.881  0.00  0.00    -0.366 N 
HETATM   33  H   UNK N   1      37.243  13.260  14.766  0.00  0.00     0.159 HD
HETATM   34  H   UNK N   1      37.009  14.649  13.806  0.00  0.00     0.159 HD
HETATM   35  O   UNK N   1      37.509  11.749  12.866  0.00  0.00    -0.268 OA
ENDBRANCH  11  31
BRANCH   9  36
HETATM   36  O   UNK N   1      38.554  12.475  10.351  0.00  0.00    -0.362 OA
HETATM   37  H   UNK N   1      39.019  12.277   9.561  0.00  0.00     0.217 HD
ENDBRANCH   9  36
BRANCH  13  38
HETATM   38  O   UNK N   1      32.754  14.297   5.724  0.00  0.00    -0.385 OA
HETATM   39  H   UNK N   1      32.567  13.352   5.838  0.00  0.00     0.211 HD
ENDBRANCH  13  38
BRANCH  20  40
HETATM   40  O   UNK N   1      29.086  17.414   8.192  0.00  0.00    -0.360 OA
HETATM   41  H   UNK N   1      29.241  18.085   8.827  0.00  0.00     0.217 HD
ENDBRANCH  20  40
TORSDOF 7
ENDMDL
MODEL 4
REMARK VINA RESULT:      -7.4      3.625      5.248
REMARK  7 active torsions:
REMARK  status: ('A' for Active; 'I' for Inactive)
REMARK    1  A    between atoms: C_3  and  O_9 
REMARK    2  A    between atoms: C_4  and  N_11 
REMARK    3  A    between atoms: C_5  and  O_13 
REMARK    4  A    between atoms: C_10  and  O_17 
REMARK    5  A    between atoms: C_14  and  C_21 
REMARK    6  A    between atoms: C_16  and  O_33 
REMARK       I    between atoms: C_21  and  N_26 
REMARK    7  A    between atoms: C_29  and  O_32 
ROOT
HETATM    1  C   UNK N   1      34.967  13.039  11.494  0.00  0.00     0.104 C 
HETATM    2  C   UNK N   1      35.873  14.296  11.512  0.00  0.00     0.180 C 
HETATM    3  C   UNK N   1      34.502  12.729  10.042  0.00  0.00     0.140 C 
HETATM    4  C   UNK N   1      35.786  11.930  12.202  0.00  0.00     0.289 C 
HETATM    5  C   UNK N   1      35.272  15.400  10.644  0.00  0.00     0.097 C 
HETATM    6  C   UNK N   1      36.162  14.676  12.960  0.00  0.00     0.208 C 
HETATM    7  O   UNK N   1      37.105  13.959  10.931  0.00  0.00    -0.374 OA
HETATM    8  C   UNK N   1      34.968  13.662   8.889  0.00  0.00     0.093 C 
HETATM    9  C   UNK N   1      36.090  12.304  13.657  0.00  0.00     0.096 C 
HETATM   10  C   UNK N   1      34.866  15.104   9.374  0.00  0.00     0.035 C 
HETATM   11  C   UNK N   1      36.279  13.608  14.013  0.00  0.00     0.112 C 
HETATM   12  O   UNK N   1      36.310  15.851  13.267  0.00  0.00    -0.288 OA
HETATM   13  C   UNK N   1      34.120  13.365   7.609  0.00  0.00     0.092 C 
HETATM   14  C   UNK N   1      34.413  16.168   8.426  0.00  0.00     0.195 C 
HETATM   15  C   UNK N   1      34.087  14.484   6.591  0.00  0.00    -0.007 A 
HETATM   16  C   UNK N   1      34.649  12.077   6.970  0.00  0.00     0.052 C 
HETATM   17  C   UNK N   1      34.153  15.836   6.997  0.00  0.00     0.057 A 
HETATM   18  O   UNK N   1      34.351  17.331   8.798  0.00  0.00    -0.287 OA
HETATM   19  C   UNK N   1      33.778  14.184   5.251  0.00  0.00     0.011 A 
HETATM   20  C   UNK N   1      33.966  16.857   6.029  0.00  0.00     0.080 A 
HETATM   21  C   UNK N   1      33.603  15.194   4.311  0.00  0.00     0.003 A 
HETATM   22  C   UNK N   1      33.699  16.526   4.700  0.00  0.00     0.037 A 
HETATM   23  H   UNK N   1      37.955  13.630  10.600  0.00  0.00     0.211 HD
ENDROOT
BRANCH   5  24
HETATM   24  O   UNK N   1      35.172  16.661  11.119  0.00  0.00    -0.361 OA
HETATM   25  H   UNK N   1      34.862  17.399  10.633  0.00  0.00     0.217 HD
ENDBRANCH   5  24
BRANCH   3  26
HETATM   26  O   UNK N   1      34.402  11.376   9.712  0.00  0.00    -0.394 OA
HETATM   27  H   UNK N   1      35.180  10.849   9.474  0.00  0.00     0.210 HD
ENDBRANCH   3  26
BRANCH   4  28
HETATM   28  N   UNK N   1      35.284  10.559  12.004  0.00  0.00     0.091 N 
HETATM   29  C   UNK N   1      34.197  10.218  12.911  0.00  0.00     0.310 C 
HETATM   30  C   UNK N   1      36.369   9.601  12.156  0.00  0.00     0.310 C 
ENDBRANCH   4  28
BRANCH  11  31
HETATM   31  C   UNK N   1      36.559  14.000  15.443  0.00  0.00     0.255 C 
HETATM   32  N   UNK N   1      37.469  14.947  15.747  0.00  0.00    -0.366 N 
HETATM   33  H   UNK N   1      37.514  15.310  16.661  0.00  0.00     0.159 HD
HETATM   34  H   UNK N   1      38.087  15.275  15.056  0.00  0.00     0.159 HD
HETATM   35  O   UNK N   1      35.963  13.448  16.356  0.00  0.00    -0.268 OA
ENDBRANCH  11  31
BRANCH   9  36
HETATM   36  O   UNK N   1      36.152  11.324  14.583  0.00  0.00    -0.362 OA
HETATM   37  H   UNK N   1      35.394  11.113  15.093  0.00  0.00     0.217 HD
ENDBRANCH   9  36
BRANCH  13  38
HETATM   38  O   UNK N   1      32.786  13.146   7.971  0.00  0.00    -0.385 OA
HETATM   39  H   UNK N   1      32.008  12.655   8.280  0.00  0.00     0.211 HD
ENDBRANCH  13  38
BRANCH  20  40
HETATM   40  O   UNK N   1      34.039  18.156   6.364  0.00  0.00    -0.360 OA
HETATM   41  H   UNK N   1      33.480  18.538   7.011  0.00  0.00     0.217 HD
ENDBRANCH  20  40
TORSDOF 7
ENDMDL
MODEL 5
REMARK VINA RESULT:      -7.3      5.754      9.466
REMARK  7 active torsions:
REMARK  status: ('A' for Active; 'I' for Inactive)
REMARK    1  A    between atoms: C_3  and  O_9 
REMARK    2  A    between atoms: C_4  and  N_11 
REMARK    3  A    between atoms: C_5  and  O_13 
REMARK    4  A    between atoms: C_10  and  O_17 
REMARK    5  A    between atoms: C_14  and  C_21 
REMARK    6  A    between atoms: C_16  and  O_33 
REMARK       I    between atoms: C_21  and  N_26 
REMARK    7  A    between atoms: C_29  and  O_32 
ROOT
HETATM    1  C   UNK N   1      36.580  11.591  12.007  0.00  0.00     0.104 C 
HETATM    2  C   UNK N   1      35.823  12.941  12.067  0.00  0.00     0.180 C 
HETATM    3  C   UNK N   1      36.415  10.819  13.347  0.00  0.00     0.140 C 
HETATM    4  C   UNK N   1      36.052  10.878  10.736  0.00  0.00     0.289 C 
HETATM    5  C   UNK N   1      36.087  13.643  13.397  0.00  0.00     0.097 C 
HETATM    6  C   UNK N   1      36.153  13.749  10.815  0.00  0.00     0.208 C 
HETATM    7  O   UNK N   1      34.446  12.676  12.023  0.00  0.00    -0.374 OA
HETATM    8  C   UNK N   1      35.579  11.465  14.488  0.00  0.00     0.093 C 
HETATM    9  C   UNK N   1      36.370  11.683   9.472  0.00  0.00     0.096 C 
HETATM   10  C   UNK N   1      35.940  12.944  14.562  0.00  0.00     0.035 C 
HETATM   11  C   UNK N   1      36.406  13.047   9.509  0.00  0.00     0.112 C 
HETATM   12  O   UNK N   1      36.200  14.970  10.870  0.00  0.00    -0.288 OA
HETATM   13  C   UNK N   1      35.833  10.686  15.820  0.00  0.00     0.092 C 
HETATM   14  C   UNK N   1      36.036  13.613  15.896  0.00  0.00     0.195 C 
HETATM   15  C   UNK N   1      35.519  11.460  17.082  0.00  0.00    -0.007 A 
HETATM   16  C   UNK N   1      35.028   9.384  15.777  0.00  0.00     0.052 C 
HETATM   17  C   UNK N   1      35.690  12.862  17.135  0.00  0.00     0.057 A 
HETATM   18  O   UNK N   1      36.301  14.804  15.965  0.00  0.00    -0.287 OA
HETATM   19  C   UNK N   1      35.255  10.755  18.271  0.00  0.00     0.011 A 
HETATM   20  C   UNK N   1      35.532  13.529  18.377  0.00  0.00     0.080 A 
HETATM   21  C   UNK N   1      35.096  11.421  19.481  0.00  0.00     0.003 A 
HETATM   22  C   UNK N   1      35.231  12.805  19.532  0.00  0.00     0.037 A 
HETATM   23  H   UNK N   1      33.518  12.421  11.902  0.00  0.00     0.211 HD
ENDROOT
BRANCH   5  24
HETATM   24  O   UNK N   1      36.434  14.949  13.421  0.00  0.00    -0.361 OA
HETATM   25  H   UNK N   1      36.909  15.395  12.749  0.00  0.00     0.217 HD
ENDBRANCH   5  24
BRANCH   3  26
HETATM   26  O   UNK N   1      36.305   9.431  13.239  0.00  0.00    -0.394 OA
HETATM   27  H   UNK N   1      35.885   8.896  13.931  0.00  0.00     0.210 HD
ENDBRANCH   3  26
BRANCH   4  28
HETATM   28  N   UNK N   1      36.361   9.440  10.652  0.00  0.00     0.091 N 
HETATM   29  C   UNK N   1      37.683   9.177  10.098  0.00  0.00     0.310 C 
HETATM   30  C   UNK N   1      35.352   8.755   9.858  0.00  0.00     0.310 C 
ENDBRANCH   4  28
BRANCH  11  31
HETATM   31  C   UNK N   1      36.737  13.859   8.280  0.00  0.00     0.255 C 
HETATM   32  N   UNK N   1      35.822  14.660   7.700  0.00  0.00    -0.366 N 
HETATM   33  H   UNK N   1      36.100  15.307   7.013  0.00  0.00     0.159 HD
HETATM   34  H   UNK N   1      34.876  14.598   7.964  0.00  0.00     0.159 HD
HETATM   35  O   UNK N   1      37.852  13.790   7.784  0.00  0.00    -0.268 OA
ENDBRANCH  11  31
BRANCH   9  36
HETATM   36  O   UNK N   1      36.629  11.021   8.324  0.00  0.00    -0.362 OA
HETATM   37  H   UNK N   1      37.504  10.988   7.990  0.00  0.00     0.217 HD
ENDBRANCH   9  36
BRANCH  13  38
HETATM   38  O   UNK N   1      37.188  10.348  15.913  0.00  0.00    -0.385 OA
HETATM   39  H   UNK N   1      38.102  10.210  15.617  0.00  0.00     0.211 HD
ENDBRANCH  13  38
BRANCH  20  40
HETATM   40  O   UNK N   1      35.665  14.863  18.474  0.00  0.00    -0.360 OA
HETATM   41  H   UNK N   1      35.362  15.444  17.805  0.00  0.00     0.217 HD
ENDBRANCH  20  40
TORSDOF 7
ENDMDL
MODEL 6
REMARK VINA RESULT:      -7.3      1.850      4.137
REMARK  7 active torsions:
REMARK  status: ('A' for Active; 'I' for Inactive)
REMARK    1  A    between atoms: C_3  and  O_9 
REMARK    2  A    between atoms: C_4  and  N_11 
REMARK    3  A    between atoms: C_5  and  O_13 
REMARK    4  A    between atoms: C_10  and  O_17 
REMARK    5  A    between atoms: C_14  and  C_21 
REMARK    6  A    between atoms: C_16  and  O_33 
REMARK       I    between atoms: C_21  and  N_26 
REMARK    7  A    between atoms: C_29  and  O_32 
ROOT
HETATM    1  C   UNK N   1      35.232  14.858   9.330  0.00  0.00     0.104 C 
HETATM    2  C   UNK N   1      35.413  14.230   7.926  0.00  0.00     0.180 C 
HETATM    3  C   UNK N   1      33.817  15.494   9.458  0.00  0.00     0.140 C 
HETATM    4  C   UNK N   1      35.567  13.726  10.335  0.00  0.00     0.289 C 
HETATM    5  C   UNK N   1      34.895  15.178   6.845  0.00  0.00     0.097 C 
HETATM    6  C   UNK N   1      36.862  13.778   7.770  0.00  0.00     0.208 C 
HETATM    7  O   UNK N   1      34.622  13.074   7.854  0.00  0.00    -0.374 OA
HETATM    8  C   UNK N   1      32.851  15.427   8.242  0.00  0.00     0.093 C 
HETATM    9  C   UNK N   1      37.017  13.257  10.183  0.00  0.00     0.096 C 
HETATM   10  C   UNK N   1      33.653  15.728   6.981  0.00  0.00     0.035 C 
HETATM   11  C   UNK N   1      37.628  13.272   8.962  0.00  0.00     0.112 C 
HETATM   12  O   UNK N   1      37.401  13.816   6.673  0.00  0.00    -0.288 OA
HETATM   13  C   UNK N   1      31.654  16.406   8.478  0.00  0.00     0.092 C 
HETATM   14  C   UNK N   1      33.030  16.539   5.889  0.00  0.00     0.195 C 
HETATM   15  C   UNK N   1      30.923  16.834   7.224  0.00  0.00    -0.007 A 
HETATM   16  C   UNK N   1      30.684  15.750   9.464  0.00  0.00     0.052 C 
HETATM   17  C   UNK N   1      31.608  16.969   5.995  0.00  0.00     0.057 A 
HETATM   18  O   UNK N   1      33.656  16.766   4.864  0.00  0.00    -0.287 OA
HETATM   19  C   UNK N   1      29.600  17.303   7.328  0.00  0.00     0.011 A 
HETATM   20  C   UNK N   1      30.922  17.518   4.881  0.00  0.00     0.080 A 
HETATM   21  C   UNK N   1      28.938  17.833   6.227  0.00  0.00     0.003 A 
HETATM   22  C   UNK N   1      29.597  17.938   5.007  0.00  0.00     0.037 A 
HETATM   23  H   UNK N   1      34.121  12.245   7.910  0.00  0.00     0.211 HD
ENDROOT
BRANCH   5  24
HETATM   24  O   UNK N   1      35.647  15.443   5.754  0.00  0.00    -0.361 OA
HETATM   25  H   UNK N   1      36.510  15.807   5.768  0.00  0.00     0.217 HD
ENDBRANCH   5  24
BRANCH   3  26
HETATM   26  O   UNK N   1      33.211  15.379  10.710  0.00  0.00    -0.394 OA
HETATM   27  H   UNK N   1      33.474  14.694  11.344  0.00  0.00     0.210 HD
ENDBRANCH   3  26
BRANCH   4  28
HETATM   28  N   UNK N   1      35.133  13.972  11.721  0.00  0.00     0.091 N 
HETATM   29  C   UNK N   1      36.063  14.814  12.463  0.00  0.00     0.310 C 
HETATM   30  C   UNK N   1      34.950  12.710  12.421  0.00  0.00     0.310 C 
ENDBRANCH   4  28
BRANCH  11  31
HETATM   31  C   UNK N   1      39.062  12.835   8.795  0.00  0.00     0.255 C 
HETATM   32  N   UNK N   1      39.892  13.462   7.937  0.00  0.00    -0.366 N 
HETATM   33  H   UNK N   1      40.859  13.279   7.967  0.00  0.00     0.159 HD
HETATM   34  H   UNK N   1      39.531  14.100   7.282  0.00  0.00     0.159 HD
HETATM   35  O   UNK N   1      39.492  11.889   9.438  0.00  0.00    -0.268 OA
ENDBRANCH  11  31
BRANCH   9  36
HETATM   36  O   UNK N   1      37.687  12.844  11.280  0.00  0.00    -0.362 OA
HETATM   37  H   UNK N   1      37.235  12.381  11.958  0.00  0.00     0.217 HD
ENDBRANCH   9  36
BRANCH  13  38
HETATM   38  O   UNK N   1      32.124  17.588   9.062  0.00  0.00    -0.385 OA
HETATM   39  H   UNK N   1      32.766  18.206   9.448  0.00  0.00     0.211 HD
ENDBRANCH  13  38
BRANCH  20  40
HETATM   40  O   UNK N   1      31.525  17.648   3.687  0.00  0.00    -0.360 OA
HETATM   41  H   UNK N   1      32.452  17.558   3.583  0.00  0.00     0.217 HD
ENDBRANCH  20  40
TORSDOF 7
ENDMDL
MODEL 7
REMARK VINA RESULT:      -7.3      1.367      1.604
REMARK  7 active torsions:
REMARK  status: ('A' for Active; 'I' for Inactive)
REMARK    1  A    between atoms: C_3  and  O_9 
REMARK    2  A    between atoms: C_4  and  N_11 
REMARK    3  A    between atoms: C_5  and  O_13 
REMARK    4  A    between atoms: C_10  and  O_17 
REMARK    5  A    between atoms: C_14  and  C_21 
REMARK    6  A    between atoms: C_16  and  O_33 
REMARK       I    between atoms: C_21  and  N_26 
REMARK    7  A    between atoms: C_29  and  O_32 
ROOT
HETATM    1  C   UNK N   1      33.274  14.831   6.817  0.00  0.00     0.104 C 
HETATM    2  C   UNK N   1      33.438  16.117   7.664  0.00  0.00     0.180 C 
HETATM    3  C   UNK N   1      32.193  15.042   5.718  0.00  0.00     0.140 C 
HETATM    4  C   UNK N   1      34.699  14.482   6.317  0.00  0.00     0.289 C 
HETATM    5  C   UNK N   1      32.071  16.694   8.030  0.00  0.00     0.097 C 
HETATM    6  C   UNK N   1      34.366  15.821   8.838  0.00  0.00     0.208 C 
HETATM    7  O   UNK N   1      34.080  17.084   6.878  0.00  0.00    -0.374 OA
HETATM    8  C   UNK N   1      31.468  16.415   5.632  0.00  0.00     0.093 C 
HETATM    9  C   UNK N   1      35.645  14.190   7.487  0.00  0.00     0.096 C 
HETATM   10  C   UNK N   1      31.136  16.866   7.050  0.00  0.00     0.035 C 
HETATM   11  C   UNK N   1      35.492  14.835   8.680  0.00  0.00     0.112 C 
HETATM   12  O   UNK N   1      34.204  16.393   9.907  0.00  0.00    -0.288 OA
HETATM   13  C   UNK N   1      30.217  16.281   4.703  0.00  0.00     0.092 C 
HETATM   14  C   UNK N   1      29.840  17.564   7.316  0.00  0.00     0.195 C 
HETATM   15  C   UNK N   1      29.152  17.337   4.911  0.00  0.00    -0.007 A 
HETATM   16  C   UNK N   1      30.696  16.285   3.248  0.00  0.00     0.052 C 
HETATM   17  C   UNK N   1      28.925  17.897   6.188  0.00  0.00     0.057 A 
HETATM   18  O   UNK N   1      29.574  17.951   8.444  0.00  0.00    -0.287 OA
HETATM   19  C   UNK N   1      28.244  17.608   3.870  0.00  0.00     0.011 A 
HETATM   20  C   UNK N   1      27.820  18.767   6.373  0.00  0.00     0.080 A 
HETATM   21  C   UNK N   1      27.168  18.469   4.063  0.00  0.00     0.003 A 
HETATM   22  C   UNK N   1      26.960  19.048   5.310  0.00  0.00     0.037 A 
HETATM   23  H   UNK N   1      34.602  17.669   6.305  0.00  0.00     0.211 HD
ENDROOT
BRANCH   5  24
HETATM   24  O   UNK N   1      31.804  17.056   9.304  0.00  0.00    -0.361 OA
HETATM   25  H   UNK N   1      31.234  17.754   9.560  0.00  0.00     0.217 HD
ENDBRANCH   5  24
BRANCH   3  26
HETATM   26  O   UNK N   1      32.443  14.421   4.493  0.00  0.00    -0.394 OA
HETATM   27  H   UNK N   1      33.345  14.284   4.164  0.00  0.00     0.210 HD
ENDBRANCH   3  26
BRANCH   4  28
HETATM   28  N   UNK N   1      34.753  13.507   5.214  0.00  0.00     0.091 N 
HETATM   29  C   UNK N   1      34.674  12.127   5.675  0.00  0.00     0.310 C 
HETATM   30  C   UNK N   1      35.969  13.695   4.437  0.00  0.00     0.310 C 
ENDBRANCH   4  28
BRANCH  11  31
HETATM   31  C   UNK N   1      36.399  14.547   9.851  0.00  0.00     0.255 C 
HETATM   32  N   UNK N   1      36.834  15.532  10.662  0.00  0.00    -0.366 N 
HETATM   33  H   UNK N   1      37.277  15.309  11.512  0.00  0.00     0.159 HD
HETATM   34  H   UNK N   1      36.709  16.473  10.403  0.00  0.00     0.159 HD
HETATM   35  O   UNK N   1      36.762  13.402  10.076  0.00  0.00    -0.268 OA
ENDBRANCH  11  31
BRANCH   9  36
HETATM   36  O   UNK N   1      36.621  13.273   7.323  0.00  0.00    -0.362 OA
HETATM   37  H   UNK N   1      36.962  12.814   8.066  0.00  0.00     0.217 HD
ENDBRANCH   9  36
BRANCH  13  38
HETATM   38  O   UNK N   1      29.584  15.056   4.942  0.00  0.00    -0.385 OA
HETATM   39  H   UNK N   1      29.014  14.412   5.392  0.00  0.00     0.211 HD
ENDBRANCH  13  38
BRANCH  20  40
HETATM   40  O   UNK N   1      27.575  19.339   7.564  0.00  0.00    -0.360 OA
HETATM   41  H   UNK N   1      26.705  19.445   7.897  0.00  0.00     0.217 HD
ENDBRANCH  20  40
TORSDOF 7
ENDMDL
MODEL 8
REMARK VINA RESULT:      -7.1      2.534      7.269
REMARK  7 active torsions:
REMARK  status: ('A' for Active; 'I' for Inactive)
REMARK    1  A    between atoms: C_3  and  O_9 
REMARK    2  A    between atoms: C_4  and  N_11 
REMARK    3  A    between atoms: C_5  and  O_13 
REMARK    4  A    between atoms: C_10  and  O_17 
REMARK    5  A    between atoms: C_14  and  C_21 
REMARK    6  A    between atoms: C_16  and  O_33 
REMARK       I    between atoms: C_21  and  N_26 
REMARK    7  A    between atoms: C_29  and  O_32 
ROOT
HETATM    1  C   UNK N   1      32.357  16.295   5.787  0.00  0.00     0.104 C 
HETATM    2  C   UNK N   1      31.773  16.151   7.215  0.00  0.00     0.180 C 
HETATM    3  C   UNK N   1      33.675  15.478   5.657  0.00  0.00     0.140 C 
HETATM    4  C   UNK N   1      31.206  15.897   4.828  0.00  0.00     0.289 C 
HETATM    5  C   UNK N   1      32.877  16.298   8.261  0.00  0.00     0.097 C 
HETATM    6  C   UNK N   1      30.590  17.102   7.363  0.00  0.00     0.208 C 
HETATM    7  O   UNK N   1      31.264  14.851   7.353  0.00  0.00    -0.374 OA
HETATM    8  C   UNK N   1      34.195  14.690   6.892  0.00  0.00     0.093 C 
HETATM    9  C   UNK N   1      30.008  16.840   4.973  0.00  0.00     0.096 C 
HETATM   10  C   UNK N   1      34.027  15.573   8.124  0.00  0.00     0.035 C 
HETATM   11  C   UNK N   1      29.710  17.403   6.181  0.00  0.00     0.112 C 
HETATM   12  O   UNK N   1      30.348  17.614   8.447  0.00  0.00    -0.288 OA
HETATM   13  C   UNK N   1      35.670  14.240   6.635  0.00  0.00     0.092 C 
HETATM   14  C   UNK N   1      35.076  15.558   9.189  0.00  0.00     0.195 C 
HETATM   15  C   UNK N   1      36.468  13.926   7.882  0.00  0.00    -0.007 A 
HETATM   16  C   UNK N   1      35.647  13.029   5.698  0.00  0.00     0.052 C 
HETATM   17  C   UNK N   1      36.228  14.618   9.091  0.00  0.00     0.057 A 
HETATM   18  O   UNK N   1      34.940  16.244  10.191  0.00  0.00    -0.287 OA
HETATM   19  C   UNK N   1      37.596  13.091   7.782  0.00  0.00     0.011 A 
HETATM   20  C   UNK N   1      37.097  14.405  10.192  0.00  0.00     0.080 A 
HETATM   21  C   UNK N   1      38.436  12.885   8.871  0.00  0.00     0.003 A 
HETATM   22  C   UNK N   1      38.185  13.539  10.072  0.00  0.00     0.037 A 
HETATM   23  H   UNK N   1      30.859  13.970   7.344  0.00  0.00     0.211 HD
ENDROOT
BRANCH   5  24
HETATM   24  O   UNK N   1      32.703  17.113   9.324  0.00  0.00    -0.361 OA
HETATM   25  H   UNK N   1      32.430  16.838  10.177  0.00  0.00     0.217 HD
ENDBRANCH   5  24
BRANCH   3  26
HETATM   26  O   UNK N   1      33.887  14.860   4.423  0.00  0.00    -0.394 OA
HETATM   27  H   UNK N   1      34.352  14.012   4.349  0.00  0.00     0.210 HD
ENDBRANCH   3  26
BRANCH   4  28
HETATM   28  N   UNK N   1      31.616  15.620   3.441  0.00  0.00     0.091 N 
HETATM   29  C   UNK N   1      31.769  16.830   2.644  0.00  0.00     0.310 C 
HETATM   30  C   UNK N   1      30.658  14.731   2.802  0.00  0.00     0.310 C 
ENDBRANCH   4  28
BRANCH  11  31
HETATM   31  C   UNK N   1      28.546  18.351   6.341  0.00  0.00     0.255 C 
HETATM   32  N   UNK N   1      27.715  18.271   7.398  0.00  0.00    -0.366 N 
HETATM   33  H   UNK N   1      27.074  18.996   7.576  0.00  0.00     0.159 HD
HETATM   34  H   UNK N   1      27.749  17.487   7.992  0.00  0.00     0.159 HD
HETATM   35  O   UNK N   1      28.336  19.209   5.496  0.00  0.00    -0.268 OA
ENDBRANCH  11  31
BRANCH   9  36
HETATM   36  O   UNK N   1      29.261  17.118   3.884  0.00  0.00    -0.362 OA
HETATM   37  H   UNK N   1      28.429  17.539   3.982  0.00  0.00     0.217 HD
ENDBRANCH   9  36
BRANCH  13  38
HETATM   38  O   UNK N   1      36.367  15.268   5.990  0.00  0.00    -0.385 OA
HETATM   39  H   UNK N   1      36.892  15.700   5.297  0.00  0.00     0.211 HD
ENDBRANCH  13  38
BRANCH  20  40
HETATM   40  O   UNK N   1      36.897  15.024  11.368  0.00  0.00    -0.360 OA
HETATM   41  H   UNK N   1      37.162  14.645  12.183  0.00  0.00     0.217 HD
ENDBRANCH  20  40
TORSDOF 7
ENDMDL
MODEL 9
REMARK VINA RESULT:      -7.0      2.738      3.815
REMARK  7 active torsions:
REMARK  status: ('A' for Active; 'I' for Inactive)
REMARK    1  A    between atoms: C_3  and  O_9 
REMARK    2  A    between atoms: C_4  and  N_11 
REMARK    3  A    between atoms: C_5  and  O_13 
REMARK    4  A    between atoms: C_10  and  O_17 
REMARK    5  A    between atoms: C_14  and  C_21 
REMARK    6  A    between atoms: C_16  and  O_33 
REMARK       I    between atoms: C_21  and  N_26 
REMARK    7  A    between atoms: C_29  and  O_32 
ROOT
HETATM    1  C   UNK N   1      31.924  15.301   6.603  0.00  0.00     0.104 C 
HETATM    2  C   UNK N   1      31.681  16.826   6.730  0.00  0.00     0.180 C 
HETATM    3  C   UNK N   1      30.946  14.683   5.563  0.00  0.00     0.140 C 
HETATM    4  C   UNK N   1      33.436  15.149   6.296  0.00  0.00     0.289 C 
HETATM    5  C   UNK N   1      30.184  17.123   6.810  0.00  0.00     0.097 C 
HETATM    6  C   UNK N   1      32.524  17.367   7.880  0.00  0.00     0.208 C 
HETATM    7  O   UNK N   1      32.148  17.446   5.562  0.00  0.00    -0.374 OA
HETATM    8  C   UNK N   1      29.922  15.611   4.850  0.00  0.00     0.093 C 
HETATM    9  C   UNK N   1      34.295  15.697   7.440  0.00  0.00     0.096 C 
HETATM   10  C   UNK N   1      29.343  16.566   5.889  0.00  0.00     0.035 C 
HETATM   11  C   UNK N   1      33.866  16.758   8.185  0.00  0.00     0.112 C 
HETATM   12  O   UNK N   1      32.117  18.306   8.550  0.00  0.00    -0.288 OA
HETATM   13  C   UNK N   1      28.846  14.736   4.128  0.00  0.00     0.092 C 
HETATM   14  C   UNK N   1      27.896  16.937   5.821  0.00  0.00     0.195 C 
HETATM   15  C   UNK N   1      27.541  15.443   3.833  0.00  0.00    -0.007 A 
HETATM   16  C   UNK N   1      29.460  14.188   2.837  0.00  0.00     0.052 C 
HETATM   17  C   UNK N   1      27.052  16.452   4.694  0.00  0.00     0.057 A 
HETATM   18  O   UNK N   1      27.428  17.720   6.634  0.00  0.00    -0.287 OA
HETATM   19  C   UNK N   1      26.709  14.949   2.812  0.00  0.00     0.011 A 
HETATM   20  C   UNK N   1      25.755  16.982   4.468  0.00  0.00     0.080 A 
HETATM   21  C   UNK N   1      25.443  15.482   2.596  0.00  0.00     0.003 A 
HETATM   22  C   UNK N   1      24.970  16.497   3.421  0.00  0.00     0.037 A 
HETATM   23  H   UNK N   1      32.570  17.810   4.768  0.00  0.00     0.211 HD
ENDROOT
BRANCH   5  24
HETATM   24  O   UNK N   1      29.704  17.952   7.763  0.00  0.00    -0.361 OA
HETATM   25  H   UNK N   1      28.799  18.145   7.906  0.00  0.00     0.217 HD
ENDBRANCH   5  24
BRANCH   3  26
HETATM   26  O   UNK N   1      31.466  13.653   4.777  0.00  0.00    -0.394 OA
HETATM   27  H   UNK N   1      31.018  13.347   3.974  0.00  0.00     0.210 HD
ENDBRANCH   3  26
BRANCH   4  28
HETATM   28  N   UNK N   1      33.841  13.826   5.791  0.00  0.00     0.091 N 
HETATM   29  C   UNK N   1      34.088  12.865   6.858  0.00  0.00     0.310 C 
HETATM   30  C   UNK N   1      35.027  13.948   4.958  0.00  0.00     0.310 C 
ENDBRANCH   4  28
BRANCH  11  31
HETATM   31  C   UNK N   1      34.687  17.299   9.329  0.00  0.00     0.255 C 
HETATM   32  N   UNK N   1      34.735  16.668  10.519  0.00  0.00    -0.366 N 
HETATM   33  H   UNK N   1      35.403  16.934  11.190  0.00  0.00     0.159 HD
HETATM   34  H   UNK N   1      34.101  15.942  10.717  0.00  0.00     0.159 HD
HETATM   35  O   UNK N   1      35.320  18.334   9.191  0.00  0.00    -0.268 OA
ENDBRANCH  11  31
BRANCH   9  36
HETATM   36  O   UNK N   1      35.477  15.103   7.710  0.00  0.00    -0.362 OA
HETATM   37  H   UNK N   1      35.615  14.693   8.542  0.00  0.00     0.217 HD
ENDBRANCH   9  36
BRANCH  13  38
HETATM   38  O   UNK N   1      28.509  13.645   4.939  0.00  0.00    -0.385 OA
HETATM   39  H   UNK N   1      28.442  12.717   5.213  0.00  0.00     0.211 HD
ENDBRANCH  13  38
BRANCH  20  40
HETATM   40  O   UNK N   1      25.255  17.956   5.247  0.00  0.00    -0.360 OA
HETATM   41  H   UNK N   1      24.971  18.778   4.898  0.00  0.00     0.217 HD
ENDBRANCH  20  40
TORSDOF 7
ENDMDL
