MODEL 1
REMARK VINA RESULT:      -6.6      0.000      0.000
REMARK  3 active torsions:
REMARK  status: ('A' for Active; 'I' for Inactive)
REMARK    1  A    between atoms: N_2  and  N_3 
REMARK    2  A    between atoms: C_5  and  C_6 
REMARK    3  A    between atoms: C_8  and  N_11 
ROOT
HETATM    1  N   UNK N   1      20.677  18.976   4.439  0.00  0.00    -0.303 N 
ATOM      2  HN  UNK N   1      19.908  19.403   4.956  1.00  0.00     0.186 HD
HETATM    3  C   UNK N   1      21.484  18.206   5.078  0.00  0.00     0.144 C 
ENDROOT
BRANCH   1   4
HETATM    4  N   UNK N   1      20.792  19.258   3.095  0.00  0.00    -0.234 N 
HETATM    5  C   UNK N   1      20.324  18.515   2.068  0.00  0.00     0.344 A 
HETATM    6  N   UNK N   1      20.468  19.124   0.891  0.00  0.00    -0.276 N 
HETATM    7  O   UNK N   1      19.788  17.424   2.192  0.00  0.00    -0.245 OA
HETATM    8  C   UNK N   1      21.046  20.312   1.144  0.00  0.00     0.245 A 
HETATM    9  H   UNK N   1      20.205  18.773   0.010  0.00  0.00     0.173 HD
HETATM   10  C   UNK N   1      21.319  20.515   2.612  0.00  0.00     0.257 A 
HETATM   11  O   UNK N   1      21.289  21.133   0.275  0.00  0.00    -0.271 OA
ENDBRANCH   1   4
BRANCH   3  12
HETATM   12  C   UNK N   1      21.116  17.799   6.431  0.00  0.00     0.095 A 
HETATM   13  O   UNK N   1      20.493  18.595   7.260  0.00  0.00    -0.287 OA
HETATM   14  C   UNK N   1      20.208  17.929   8.343  0.00  0.00     0.215 A 
HETATM   15  C   UNK N   1      20.658  16.624   8.241  0.00  0.00     0.065 A 
HETATM   16  C   UNK N   1      21.247  16.538   6.985  0.00  0.00     0.043 A 
BRANCH  14  17
HETATM   17  N   UNK N   1      19.497  18.485   9.433  0.00  0.00    -0.090 N 
HETATM   18  O   UNK N   1      20.005  19.484  10.119  0.00  0.00    -0.530 OA
HETATM   19  O   UNK N   1      18.446  18.018   9.756  0.00  0.00    -0.530 OA
ENDBRANCH  14  17
ENDBRANCH   3  12
TORSDOF 3
ENDMDL
MODEL 2
REMARK VINA RESULT:      -6.2     16.104     17.951
REMARK  3 active torsions:
REMARK  status: ('A' for Active; 'I' for Inactive)
REMARK    1  A    between atoms: N_2  and  N_3 
REMARK    2  A    between atoms: C_5  and  C_6 
REMARK    3  A    between atoms: C_8  and  N_11 
ROOT
HETATM    1  N   UNK N   1      35.857  14.052  11.633  0.00  0.00    -0.303 N 
ATOM      2  HN  UNK N   1      35.859  13.630  10.703  1.00  0.00     0.186 HD
HETATM    3  C   UNK N   1      35.463  15.269  11.745  0.00  0.00     0.144 C 
ENDROOT
BRANCH   1   4
HETATM    4  N   UNK N   1      36.279  13.282  12.695  0.00  0.00    -0.234 N 
HETATM    5  C   UNK N   1      37.330  12.433  12.715  0.00  0.00     0.344 A 
HETATM    6  N   UNK N   1      37.566  11.943  13.932  0.00  0.00    -0.276 N 
HETATM    7  O   UNK N   1      38.022  12.167  11.744  0.00  0.00    -0.245 OA
HETATM    8  C   UNK N   1      36.646  12.487  14.748  0.00  0.00     0.245 A 
HETATM    9  H   UNK N   1      38.274  11.307  14.184  0.00  0.00     0.173 HD
HETATM   10  C   UNK N   1      35.709  13.414  14.018  0.00  0.00     0.257 A 
HETATM   11  O   UNK N   1      36.606  12.266  15.947  0.00  0.00    -0.271 OA
ENDBRANCH   1   4
BRANCH   3  12
HETATM   12  C   UNK N   1      34.817  15.890  10.591  0.00  0.00     0.095 A 
HETATM   13  O   UNK N   1      35.256  16.998  10.053  0.00  0.00    -0.287 OA
HETATM   14  C   UNK N   1      34.549  17.251   8.987  0.00  0.00     0.215 A 
HETATM   15  C   UNK N   1      33.591  16.270   8.798  0.00  0.00     0.065 A 
HETATM   16  C   UNK N   1      33.771  15.376   9.846  0.00  0.00     0.043 A 
BRANCH  14  17
HETATM   17  N   UNK N   1      34.788  18.360   8.142  0.00  0.00    -0.090 N 
HETATM   18  O   UNK N   1      35.385  19.434   8.607  0.00  0.00    -0.530 OA
HETATM   19  O   UNK N   1      34.409  18.336   7.010  0.00  0.00    -0.530 OA
ENDBRANCH  14  17
ENDBRANCH   3  12
TORSDOF 3
ENDMDL
MODEL 3
REMARK VINA RESULT:      -6.1     12.695     14.184
REMARK  3 active torsions:
REMARK  status: ('A' for Active; 'I' for Inactive)
REMARK    1  A    between atoms: N_2  and  N_3 
REMARK    2  A    between atoms: C_5  and  C_6 
REMARK    3  A    between atoms: C_8  and  N_11 
ROOT
HETATM    1  N   UNK N   1      33.241  16.089   9.822  0.00  0.00    -0.303 N 
ATOM      2  HN  UNK N   1      32.754  16.853  10.293  1.00  0.00     0.186 HD
HETATM    3  C   UNK N   1      32.683  15.558   8.793  0.00  0.00     0.144 C 
ENDROOT
BRANCH   1   4
HETATM    4  N   UNK N   1      34.458  15.686  10.326  0.00  0.00    -0.234 N 
HETATM    5  C   UNK N   1      35.544  16.462  10.540  0.00  0.00     0.344 A 
HETATM    6  N   UNK N   1      36.521  15.807  11.168  0.00  0.00    -0.276 N 
HETATM    7  O   UNK N   1      35.621  17.642  10.236  0.00  0.00    -0.245 OA
HETATM    8  C   UNK N   1      36.069  14.559  11.383  0.00  0.00     0.245 A 
HETATM    9  H   UNK N   1      37.401  16.167  11.423  0.00  0.00     0.173 HD
HETATM   10  C   UNK N   1      34.675  14.355  10.849  0.00  0.00     0.257 A 
HETATM   11  O   UNK N   1      36.716  13.709  11.972  0.00  0.00    -0.271 OA
ENDBRANCH   1   4
BRANCH   3  12
HETATM   12  C   UNK N   1      31.520  16.230   8.220  0.00  0.00     0.095 A 
HETATM   13  O   UNK N   1      30.529  16.668   8.952  0.00  0.00    -0.287 OA
HETATM   14  C   UNK N   1      29.695  17.309   8.183  0.00  0.00     0.215 A 
HETATM   15  C   UNK N   1      30.143  17.305   6.874  0.00  0.00     0.065 A 
HETATM   16  C   UNK N   1      31.342  16.603   6.899  0.00  0.00     0.043 A 
BRANCH  14  17
HETATM   17  N   UNK N   1      28.527  17.946   8.665  0.00  0.00    -0.090 N 
HETATM   18  O   UNK N   1      27.760  17.349   9.550  0.00  0.00    -0.530 OA
HETATM   19  O   UNK N   1      28.214  19.016   8.237  0.00  0.00    -0.530 OA
ENDBRANCH  14  17
ENDBRANCH   3  12
TORSDOF 3
ENDMDL
MODEL 4
REMARK VINA RESULT:      -5.9      4.355      5.599
REMARK  3 active torsions:
REMARK  status: ('A' for Active; 'I' for Inactive)
REMARK    1  A    between atoms: N_2  and  N_3 
REMARK    2  A    between atoms: C_5  and  C_6 
REMARK    3  A    between atoms: C_8  and  N_11 
ROOT
HETATM    1  N   UNK N   1      23.096  20.295   3.159  0.00  0.00    -0.303 N 
ATOM      2  HN  UNK N   1      23.333  21.279   3.299  1.00  0.00     0.186 HD
HETATM    3  C   UNK N   1      24.014  19.418   3.354  0.00  0.00     0.144 C 
ENDROOT
BRANCH   1   4
HETATM    4  N   UNK N   1      21.810  19.985   2.772  0.00  0.00    -0.234 N 
HETATM    5  C   UNK N   1      21.266  20.167   1.548  0.00  0.00     0.344 A 
HETATM    6  N   UNK N   1      20.047  19.637   1.450  0.00  0.00    -0.276 N 
HETATM    7  O   UNK N   1      21.831  20.716   0.615  0.00  0.00    -0.245 OA
HETATM    8  C   UNK N   1      19.774  19.081   2.644  0.00  0.00     0.245 A 
HETATM    9  H   UNK N   1      19.461  19.650   0.659  0.00  0.00     0.173 HD
HETATM   10  C   UNK N   1      20.900  19.258   3.629  0.00  0.00     0.257 A 
HETATM   11  O   UNK N   1      18.738  18.479   2.877  0.00  0.00    -0.271 OA
ENDBRANCH   1   4
BRANCH   3  12
HETATM   12  C   UNK N   1      25.254  19.852   3.992  0.00  0.00     0.095 A 
HETATM   13  O   UNK N   1      25.385  19.939   5.289  0.00  0.00    -0.287 OA
HETATM   14  C   UNK N   1      26.620  20.249   5.564  0.00  0.00     0.215 A 
HETATM   15  C   UNK N   1      27.357  20.378   4.399  0.00  0.00     0.065 A 
HETATM   16  C   UNK N   1      26.463  20.111   3.370  0.00  0.00     0.043 A 
BRANCH  14  17
HETATM   17  N   UNK N   1      27.113  20.384   6.883  0.00  0.00    -0.090 N 
HETATM   18  O   UNK N   1      28.033  19.562   7.337  0.00  0.00    -0.530 OA
HETATM   19  O   UNK N   1      26.662  21.223   7.603  0.00  0.00    -0.530 OA
ENDBRANCH  14  17
ENDBRANCH   3  12
TORSDOF 3
ENDMDL
MODEL 5
REMARK VINA RESULT:      -5.8     13.421     14.380
REMARK  3 active torsions:
REMARK  status: ('A' for Active; 'I' for Inactive)
REMARK    1  A    between atoms: N_2  and  N_3 
REMARK    2  A    between atoms: C_5  and  C_6 
REMARK    3  A    between atoms: C_8  and  N_11 
ROOT
HETATM    1  N   UNK N   1      28.749  23.515  -3.802  0.00  0.00    -0.303 N 
ATOM      2  HN  UNK N   1      28.578  24.164  -3.033  1.00  0.00     0.186 HD
HETATM    3  C   UNK N   1      27.933  23.522  -4.795  0.00  0.00     0.144 C 
ENDROOT
BRANCH   1   4
HETATM    4  N   UNK N   1      29.842  22.680  -3.716  0.00  0.00    -0.234 N 
HETATM    5  C   UNK N   1      30.619  22.471  -2.629  0.00  0.00     0.344 A 
HETATM    6  N   UNK N   1      31.512  21.500  -2.822  0.00  0.00    -0.276 N 
HETATM    7  O   UNK N   1      30.499  23.066  -1.570  0.00  0.00    -0.245 OA
HETATM    8  C   UNK N   1      31.320  21.046  -4.074  0.00  0.00     0.245 A 
HETATM    9  H   UNK N   1      32.181  21.179  -2.175  0.00  0.00     0.173 HD
HETATM   10  C   UNK N   1      30.212  21.778  -4.784  0.00  0.00     0.257 A 
HETATM   11  O   UNK N   1      31.962  20.127  -4.554  0.00  0.00    -0.271 OA
ENDBRANCH   1   4
BRANCH   3  12
HETATM   12  C   UNK N   1      26.964  24.611  -4.878  0.00  0.00     0.095 A 
HETATM   13  O   UNK N   1      27.012  25.656  -4.094  0.00  0.00    -0.287 OA
HETATM   14  C   UNK N   1      26.090  26.499  -4.467  0.00  0.00     0.215 A 
HETATM   15  C   UNK N   1      25.390  26.001  -5.552  0.00  0.00     0.065 A 
HETATM   16  C   UNK N   1      25.966  24.767  -5.824  0.00  0.00     0.043 A 
BRANCH  14  17
HETATM   17  N   UNK N   1      25.895  27.758  -3.852  0.00  0.00    -0.090 N 
HETATM   18  O   UNK N   1      26.179  28.866  -4.500  0.00  0.00    -0.530 OA
HETATM   19  O   UNK N   1      25.507  27.815  -2.724  0.00  0.00    -0.530 OA
ENDBRANCH  14  17
ENDBRANCH   3  12
TORSDOF 3
ENDMDL
MODEL 6
REMARK VINA RESULT:      -5.8     14.794     15.561
REMARK  3 active torsions:
REMARK  status: ('A' for Active; 'I' for Inactive)
REMARK    1  A    between atoms: N_2  and  N_3 
REMARK    2  A    between atoms: C_5  and  C_6 
REMARK    3  A    between atoms: C_8  and  N_11 
ROOT
HETATM    1  N   UNK N   1      34.434  16.485  10.244  0.00  0.00    -0.303 N 
ATOM      2  HN  UNK N   1      34.475  17.088  11.067  1.00  0.00     0.186 HD
HETATM    3  C   UNK N   1      34.897  15.291  10.345  0.00  0.00     0.144 C 
ENDROOT
BRANCH   1   4
HETATM    4  N   UNK N   1      33.886  16.999   9.089  0.00  0.00    -0.234 N 
HETATM    5  C   UNK N   1      34.331  18.062   8.383  0.00  0.00     0.344 A 
HETATM    6  N   UNK N   1      33.671  18.224   7.236  0.00  0.00    -0.276 N 
HETATM    7  O   UNK N   1      35.260  18.778   8.725  0.00  0.00    -0.245 OA
HETATM    8  C   UNK N   1      32.762  17.235   7.175  0.00  0.00     0.245 A 
HETATM    9  H   UNK N   1      33.819  18.930   6.566  0.00  0.00     0.173 HD
HETATM   10  C   UNK N   1      32.810  16.338   8.384  0.00  0.00     0.257 A 
HETATM   11  O   UNK N   1      32.011  17.079   6.226  0.00  0.00    -0.271 OA
ENDBRANCH   1   4
BRANCH   3  12
HETATM   12  C   UNK N   1      35.226  14.793  11.678  0.00  0.00     0.095 A 
HETATM   13  O   UNK N   1      34.608  13.777  12.220  0.00  0.00    -0.287 OA
HETATM   14  C   UNK N   1      35.181  13.500  13.358  0.00  0.00     0.215 A 
HETATM   15  C   UNK N   1      36.233  14.367  13.593  0.00  0.00     0.065 A 
HETATM   16  C   UNK N   1      36.266  15.210  12.489  0.00  0.00     0.043 A 
BRANCH  14  17
HETATM   17  N   UNK N   1      34.782  12.425  14.187  0.00  0.00    -0.090 N 
HETATM   18  O   UNK N   1      34.164  12.656  15.324  0.00  0.00    -0.530 OA
HETATM   19  O   UNK N   1      35.042  11.303  13.872  0.00  0.00    -0.530 OA
ENDBRANCH  14  17
ENDBRANCH   3  12
TORSDOF 3
ENDMDL
MODEL 7
REMARK VINA RESULT:      -5.7      4.486      5.599
REMARK  3 active torsions:
REMARK  status: ('A' for Active; 'I' for Inactive)
REMARK    1  A    between atoms: N_2  and  N_3 
REMARK    2  A    between atoms: C_5  and  C_6 
REMARK    3  A    between atoms: C_8  and  N_11 
ROOT
HETATM    1  N   UNK N   1      21.438  15.854   7.593  0.00  0.00    -0.303 N 
ATOM      2  HN  UNK N   1      20.878  16.119   8.405  1.00  0.00     0.186 HD
HETATM    3  C   UNK N   1      22.181  14.809   7.685  0.00  0.00     0.144 C 
ENDROOT
BRANCH   1   4
HETATM    4  N   UNK N   1      21.354  16.636   6.462  0.00  0.00    -0.234 N 
HETATM    5  C   UNK N   1      21.184  17.976   6.415  0.00  0.00     0.344 A 
HETATM    6  N   UNK N   1      21.285  18.458   5.176  0.00  0.00    -0.276 N 
HETATM    7  O   UNK N   1      20.999  18.685   7.393  0.00  0.00    -0.245 OA
HETATM    8  C   UNK N   1      21.535  17.407   4.376  0.00  0.00     0.245 A 
HETATM    9  H   UNK N   1      21.193  19.399   4.901  0.00  0.00     0.173 HD
HETATM   10  C   UNK N   1      21.601  16.110   5.139  0.00  0.00     0.257 A 
HETATM   11  O   UNK N   1      21.715  17.514   3.174  0.00  0.00    -0.271 OA
ENDBRANCH   1   4
BRANCH   3  12
HETATM   12  C   UNK N   1      21.997  13.936   8.842  0.00  0.00     0.095 A 
HETATM   13  O   UNK N   1      23.002  13.441   9.515  0.00  0.00    -0.287 OA
HETATM   14  C   UNK N   1      22.535  12.792  10.544  0.00  0.00     0.215 A 
HETATM   15  C   UNK N   1      21.152  12.852  10.566  0.00  0.00     0.065 A 
HETATM   16  C   UNK N   1      20.801  13.607   9.454  0.00  0.00     0.043 A 
BRANCH  14  17
HETATM   17  N   UNK N   1      23.360  12.165  11.507  0.00  0.00    -0.090 N 
HETATM   18  O   UNK N   1      22.870  11.814  12.675  0.00  0.00    -0.530 OA
HETATM   19  O   UNK N   1      24.517  11.988  11.273  0.00  0.00    -0.530 OA
ENDBRANCH  14  17
ENDBRANCH   3  12
TORSDOF 3
ENDMDL
MODEL 8
REMARK VINA RESULT:      -5.7     13.843     15.736
REMARK  3 active torsions:
REMARK  status: ('A' for Active; 'I' for Inactive)
REMARK    1  A    between atoms: N_2  and  N_3 
REMARK    2  A    between atoms: C_5  and  C_6 
REMARK    3  A    between atoms: C_8  and  N_11 
ROOT
HETATM    1  N   UNK N   1      33.994  15.919   8.524  0.00  0.00    -0.303 N 
ATOM      2  HN  UNK N   1      33.028  16.249   8.489  1.00  0.00     0.186 HD
HETATM    3  C   UNK N   1      34.649  15.842   7.421  0.00  0.00     0.144 C 
ENDROOT
BRANCH   1   4
HETATM    4  N   UNK N   1      34.521  15.582   9.752  0.00  0.00    -0.234 N 
HETATM    5  C   UNK N   1      35.255  16.375  10.564  0.00  0.00     0.344 A 
HETATM    6  N   UNK N   1      35.498  15.807  11.746  0.00  0.00    -0.276 N 
HETATM    7  O   UNK N   1      35.627  17.503  10.277  0.00  0.00    -0.245 OA
HETATM    8  C   UNK N   1      34.901  14.602  11.721  0.00  0.00     0.245 A 
HETATM    9  H   UNK N   1      36.013  16.194  12.490  0.00  0.00     0.173 HD
HETATM   10  C   UNK N   1      34.207  14.334  10.411  0.00  0.00     0.257 A 
HETATM   11  O   UNK N   1      34.908  13.836  12.671  0.00  0.00    -0.271 OA
ENDBRANCH   1   4
BRANCH   3  12
HETATM   12  C   UNK N   1      34.063  16.453   6.231  0.00  0.00     0.095 A 
HETATM   13  O   UNK N   1      34.014  15.840   5.078  0.00  0.00    -0.287 OA
HETATM   14  C   UNK N   1      33.348  16.583   4.239  0.00  0.00     0.215 A 
HETATM   15  C   UNK N   1      32.928  17.749   4.854  0.00  0.00     0.065 A 
HETATM   16  C   UNK N   1      33.391  17.661   6.161  0.00  0.00     0.043 A 
BRANCH  14  17
HETATM   17  N   UNK N   1      33.075  16.196   2.906  0.00  0.00    -0.090 N 
HETATM   18  O   UNK N   1      32.144  16.812   2.212  0.00  0.00    -0.530 OA
HETATM   19  O   UNK N   1      33.665  15.278   2.421  0.00  0.00    -0.530 OA
ENDBRANCH  14  17
ENDBRANCH   3  12
TORSDOF 3
ENDMDL
MODEL 9
REMARK VINA RESULT:      -5.7      2.915      3.360
REMARK  3 active torsions:
REMARK  status: ('A' for Active; 'I' for Inactive)
REMARK    1  A    between atoms: N_2  and  N_3 
REMARK    2  A    between atoms: C_5  and  C_6 
REMARK    3  A    between atoms: C_8  and  N_11 
ROOT
HETATM    1  N   UNK N   1      20.603  16.759   4.418  0.00  0.00    -0.303 N 
ATOM      2  HN  UNK N   1      21.509  16.960   4.845  1.00  0.00     0.186 HD
HETATM    3  C   UNK N   1      19.739  16.106   5.110  0.00  0.00     0.144 C 
ENDROOT
BRANCH   1   4
HETATM    4  N   UNK N   1      20.378  17.203   3.133  0.00  0.00    -0.234 N 
HETATM    5  C   UNK N   1      20.226  18.485   2.734  0.00  0.00     0.344 A 
HETATM    6  N   UNK N   1      20.164  18.600   1.407  0.00  0.00    -0.276 N 
HETATM    7  O   UNK N   1      20.191  19.445   3.489  0.00  0.00    -0.245 OA
HETATM    8  C   UNK N   1      20.282  17.357   0.909  0.00  0.00     0.245 A 
HETATM    9  H   UNK N   1      20.051  19.433   0.893  0.00  0.00     0.173 HD
HETATM   10  C   UNK N   1      20.429  16.319   1.990  0.00  0.00     0.257 A 
HETATM   11  O   UNK N   1      20.295  17.118  -0.287  0.00  0.00    -0.271 OA
ENDBRANCH   1   4
BRANCH   3  12
HETATM   12  C   UNK N   1      20.007  15.907   6.531  0.00  0.00     0.095 A 
HETATM   13  O   UNK N   1      19.919  14.736   7.106  0.00  0.00    -0.287 OA
HETATM   14  C   UNK N   1      20.313  14.848   8.343  0.00  0.00     0.215 A 
HETATM   15  C   UNK N   1      20.686  16.152   8.616  0.00  0.00     0.065 A 
HETATM   16  C   UNK N   1      20.491  16.845   7.427  0.00  0.00     0.043 A 
BRANCH  14  17
HETATM   17  N   UNK N   1      20.380  13.754   9.239  0.00  0.00    -0.090 N 
HETATM   18  O   UNK N   1      21.115  12.703   8.952  0.00  0.00    -0.530 OA
HETATM   19  O   UNK N   1      19.735  13.769  10.243  0.00  0.00    -0.530 OA
ENDBRANCH  14  17
ENDBRANCH   3  12
TORSDOF 3
ENDMDL
