MODEL 1
REMARK VINA RESULT:      -6.0      0.000      0.000
REMARK  5 active torsions:
REMARK  status: ('A' for Active; 'I' for Inactive)
REMARK    1  A    between atoms: C_2  and  C_3 
REMARK    2  A    between atoms: C_3  and  C_4 
REMARK    3  A    between atoms: C_4  and  C_6 
REMARK    4  A    between atoms: C_6  and  C_7 
REMARK    5  A    between atoms: C_7  and  C_8 
ROOT
HETATM    1  C   UNK N   1      33.373  17.334   7.944  0.00  0.00     0.129 A 
HETATM    2  C   UNK N   1      32.987  16.032   8.645  0.00  0.00     0.244 A 
HETATM    3  O   UNK N   1      32.074  15.351   8.201  0.00  0.00    -0.272 OA
HETATM    4  N   UNK N   1      33.626  15.613   9.765  0.00  0.00    -0.278 N 
HETATM    5  C   UNK N   1      34.638  16.309  10.334  0.00  0.00     0.329 A 
HETATM    6  O   UNK N   1      35.163  15.882  11.350  0.00  0.00    -0.247 OA
HETATM    7  N   UNK N   1      35.075  17.470   9.796  0.00  0.00    -0.278 N 
HETATM    8  C   UNK N   1      34.534  18.010   8.677  0.00  0.00     0.244 A 
HETATM    9  O   UNK N   1      34.991  19.061   8.252  0.00  0.00    -0.272 OA
HETATM   10  H   UNK N   1      33.341  14.767  10.182  0.00  0.00     0.173 HD
HETATM   11  H   UNK N   1      35.819  17.942  10.236  0.00  0.00     0.173 HD
ENDROOT
BRANCH   1  12
HETATM   12  C   UNK N   1      33.784  17.052   6.458  0.00  0.00     0.009 C 
HETATM   13  C   UNK N   1      34.680  15.825   6.344  0.00  0.00     0.011 C 
BRANCH  12  14
HETATM   14  C   UNK N   1      32.618  16.870   5.472  0.00  0.00     0.005 C 
BRANCH  14  15
HETATM   15  C   UNK N   1      32.824  17.555   4.128  0.00  0.00    -0.004 C 
HETATM   16  C   UNK N   1      32.992  16.531   3.024  0.00  0.00     0.005 C 
ENDBRANCH  14  15
ENDBRANCH  12  14
ENDBRANCH   1  12
BRANCH   1  17
HETATM   17  C   UNK N   1      32.150  18.272   8.002  0.00  0.00     0.056 C 
BRANCH  17  18
HETATM   18  C   UNK N   1      31.101  17.829   8.981  0.00  0.00    -0.035 C 
HETATM   19  C   UNK N   1      30.085  18.627   9.284  0.00  0.00     0.007 C 
ENDBRANCH  17  18
ENDBRANCH   1  17
TORSDOF 5
ENDMDL
MODEL 2
REMARK VINA RESULT:      -5.9      1.291      4.104
REMARK  5 active torsions:
REMARK  status: ('A' for Active; 'I' for Inactive)
REMARK    1  A    between atoms: C_2  and  C_3 
REMARK    2  A    between atoms: C_3  and  C_4 
REMARK    3  A    between atoms: C_4  and  C_6 
REMARK    4  A    between atoms: C_6  and  C_7 
REMARK    5  A    between atoms: C_7  and  C_8 
ROOT
HETATM    1  C   UNK N   1      33.325  16.757   7.914  0.00  0.00     0.129 A 
HETATM    2  C   UNK N   1      34.407  17.702   8.435  0.00  0.00     0.244 A 
HETATM    3  O   UNK N   1      34.735  18.674   7.770  0.00  0.00    -0.272 OA
HETATM    4  N   UNK N   1      35.031  17.483   9.619  0.00  0.00    -0.278 N 
HETATM    5  C   UNK N   1      34.742  16.427  10.414  0.00  0.00     0.329 A 
HETATM    6  O   UNK N   1      35.349  16.281  11.463  0.00  0.00    -0.247 OA
HETATM    7  N   UNK N   1      33.793  15.529  10.064  0.00  0.00    -0.278 N 
HETATM    8  C   UNK N   1      33.087  15.620   8.911  0.00  0.00     0.244 A 
HETATM    9  O   UNK N   1      32.243  14.769   8.671  0.00  0.00    -0.272 OA
HETATM   10  H   UNK N   1      35.722  18.121   9.913  0.00  0.00     0.173 HD
HETATM   11  H   UNK N   1      33.608  14.778  10.673  0.00  0.00     0.173 HD
ENDROOT
BRANCH   1  12
HETATM   12  C   UNK N   1      31.987  17.537   7.679  0.00  0.00     0.009 C 
HETATM   13  C   UNK N   1      31.310  17.117   6.381  0.00  0.00     0.011 C 
BRANCH  12  14
HETATM   14  C   UNK N   1      30.946  17.422   8.805  0.00  0.00     0.005 C 
BRANCH  14  15
HETATM   15  C   UNK N   1      30.207  18.718   9.107  0.00  0.00    -0.004 C 
HETATM   16  C   UNK N   1      28.714  18.540   8.922  0.00  0.00     0.005 C 
ENDBRANCH  14  15
ENDBRANCH  12  14
ENDBRANCH   1  12
BRANCH   1  17
HETATM   17  C   UNK N   1      33.840  16.145   6.595  0.00  0.00     0.056 C 
BRANCH  17  18
HETATM   18  C   UNK N   1      35.100  15.347   6.756  0.00  0.00    -0.035 C 
HETATM   19  C   UNK N   1      35.673  14.775   5.704  0.00  0.00     0.007 C 
ENDBRANCH  17  18
ENDBRANCH   1  17
TORSDOF 5
ENDMDL
MODEL 3
REMARK VINA RESULT:      -5.7     14.954     17.364
REMARK  5 active torsions:
REMARK  status: ('A' for Active; 'I' for Inactive)
REMARK    1  A    between atoms: C_2  and  C_3 
REMARK    2  A    between atoms: C_3  and  C_4 
REMARK    3  A    between atoms: C_4  and  C_6 
REMARK    4  A    between atoms: C_6  and  C_7 
REMARK    5  A    between atoms: C_7  and  C_8 
ROOT
HETATM    1  C   UNK N   1      27.232  25.105  -6.200  0.00  0.00     0.129 A 
HETATM    2  C   UNK N   1      28.315  25.425  -5.172  0.00  0.00     0.244 A 
HETATM    3  O   UNK N   1      29.303  26.061  -5.509  0.00  0.00    -0.272 OA
HETATM    4  N   UNK N   1      28.218  25.008  -3.885  0.00  0.00    -0.278 N 
HETATM    5  C   UNK N   1      27.167  24.289  -3.426  0.00  0.00     0.329 A 
HETATM    6  O   UNK N   1      27.146  23.934  -2.259  0.00  0.00    -0.247 OA
HETATM    7  N   UNK N   1      26.141  23.955  -4.241  0.00  0.00    -0.278 N 
HETATM    8  C   UNK N   1      26.101  24.304  -5.550  0.00  0.00     0.244 A 
HETATM    9  O   UNK N   1      25.134  23.967  -6.218  0.00  0.00    -0.272 OA
HETATM   10  H   UNK N   1      28.941  25.239  -3.258  0.00  0.00     0.173 HD
HETATM   11  H   UNK N   1      25.392  23.437  -3.867  0.00  0.00     0.173 HD
ENDROOT
BRANCH   1  12
HETATM   12  C   UNK N   1      26.654  26.425  -6.814  0.00  0.00     0.009 C 
HETATM   13  C   UNK N   1      26.137  26.211  -8.230  0.00  0.00     0.011 C 
BRANCH  12  14
HETATM   14  C   UNK N   1      25.531  27.096  -6.005  0.00  0.00     0.005 C 
BRANCH  14  15
HETATM   15  C   UNK N   1      26.015  28.157  -5.026  0.00  0.00    -0.004 C 
HETATM   16  C   UNK N   1      25.698  27.756  -3.599  0.00  0.00     0.005 C 
ENDBRANCH  14  15
ENDBRANCH  12  14
ENDBRANCH   1  12
BRANCH   1  17
HETATM   17  C   UNK N   1      27.877  24.231  -7.296  0.00  0.00     0.056 C 
BRANCH  17  18
HETATM   18  C   UNK N   1      28.350  22.896  -6.796  0.00  0.00    -0.035 C 
HETATM   19  C   UNK N   1      28.167  21.803  -7.526  0.00  0.00     0.007 C 
ENDBRANCH  17  18
ENDBRANCH   1  17
TORSDOF 5
ENDMDL
MODEL 4
REMARK VINA RESULT:      -5.7     15.839     18.012
REMARK  5 active torsions:
REMARK  status: ('A' for Active; 'I' for Inactive)
REMARK    1  A    between atoms: C_2  and  C_3 
REMARK    2  A    between atoms: C_3  and  C_4 
REMARK    3  A    between atoms: C_4  and  C_6 
REMARK    4  A    between atoms: C_6  and  C_7 
REMARK    5  A    between atoms: C_7  and  C_8 
ROOT
HETATM    1  C   UNK N   1      26.898  27.123  -4.921  0.00  0.00     0.129 A 
HETATM    2  C   UNK N   1      27.117  28.477  -5.595  0.00  0.00     0.244 A 
HETATM    3  O   UNK N   1      27.430  28.524  -6.775  0.00  0.00    -0.272 OA
HETATM    4  N   UNK N   1      26.984  29.640  -4.910  0.00  0.00    -0.278 N 
HETATM    5  C   UNK N   1      26.653  29.684  -3.599  0.00  0.00     0.329 A 
HETATM    6  O   UNK N   1      26.562  30.764  -3.038  0.00  0.00    -0.247 OA
HETATM    7  N   UNK N   1      26.423  28.549  -2.899  0.00  0.00    -0.278 N 
HETATM    8  C   UNK N   1      26.517  27.315  -3.452  0.00  0.00     0.244 A 
HETATM    9  O   UNK N   1      26.288  26.340  -2.751  0.00  0.00    -0.272 OA
HETATM   10  H   UNK N   1      27.135  30.488  -5.388  0.00  0.00     0.173 HD
HETATM   11  H   UNK N   1      26.178  28.624  -1.948  0.00  0.00     0.173 HD
ENDROOT
BRANCH   1  12
HETATM   12  C   UNK N   1      25.769  26.324  -5.656  0.00  0.00     0.009 C 
HETATM   13  C   UNK N   1      24.490  27.142  -5.784  0.00  0.00     0.011 C 
BRANCH  12  14
HETATM   14  C   UNK N   1      26.131  25.805  -7.058  0.00  0.00     0.005 C 
BRANCH  14  15
HETATM   15  C   UNK N   1      25.881  24.315  -7.255  0.00  0.00    -0.004 C 
HETATM   16  C   UNK N   1      25.927  23.584  -5.929  0.00  0.00     0.005 C 
ENDBRANCH  14  15
ENDBRANCH  12  14
ENDBRANCH   1  12
BRANCH   1  17
HETATM   17  C   UNK N   1      28.235  26.356  -4.979  0.00  0.00     0.056 C 
BRANCH  17  18
HETATM   18  C   UNK N   1      29.357  27.053  -4.264  0.00  0.00    -0.035 C 
HETATM   19  C   UNK N   1      30.315  26.351  -3.672  0.00  0.00     0.007 C 
ENDBRANCH  17  18
ENDBRANCH   1  17
TORSDOF 5
ENDMDL
MODEL 5
REMARK VINA RESULT:      -5.6      1.686      3.712
REMARK  5 active torsions:
REMARK  status: ('A' for Active; 'I' for Inactive)
REMARK    1  A    between atoms: C_2  and  C_3 
REMARK    2  A    between atoms: C_3  and  C_4 
REMARK    3  A    between atoms: C_4  and  C_6 
REMARK    4  A    between atoms: C_6  and  C_7 
REMARK    5  A    between atoms: C_7  and  C_8 
ROOT
HETATM    1  C   UNK N   1      33.040  16.203   7.568  0.00  0.00     0.129 A 
HETATM    2  C   UNK N   1      34.029  17.365   7.491  0.00  0.00     0.244 A 
HETATM    3  O   UNK N   1      34.111  18.025   6.466  0.00  0.00    -0.272 OA
HETATM    4  N   UNK N   1      34.835  17.680   8.535  0.00  0.00    -0.278 N 
HETATM    5  C   UNK N   1      34.822  16.997   9.702  0.00  0.00     0.329 A 
HETATM    6  O   UNK N   1      35.583  17.324  10.598  0.00  0.00    -0.247 OA
HETATM    7  N   UNK N   1      33.980  15.956   9.892  0.00  0.00    -0.278 N 
HETATM    8  C   UNK N   1      33.116  15.528   8.939  0.00  0.00     0.244 A 
HETATM    9  O   UNK N   1      32.384  14.582   9.192  0.00  0.00    -0.272 OA
HETATM   10  H   UNK N   1      35.457  18.438   8.438  0.00  0.00     0.173 HD
HETATM   11  H   UNK N   1      33.996  15.488  10.759  0.00  0.00     0.173 HD
ENDROOT
BRANCH   1  12
HETATM   12  C   UNK N   1      31.580  16.711   7.313  0.00  0.00     0.009 C 
HETATM   13  C   UNK N   1      31.218  17.872   8.231  0.00  0.00     0.011 C 
BRANCH  12  14
HETATM   14  C   UNK N   1      31.272  17.145   5.870  0.00  0.00     0.005 C 
BRANCH  14  15
HETATM   15  C   UNK N   1      29.886  16.748   5.381  0.00  0.00    -0.004 C 
HETATM   16  C   UNK N   1      29.037  17.976   5.120  0.00  0.00     0.005 C 
ENDBRANCH  14  15
ENDBRANCH  12  14
ENDBRANCH   1  12
BRANCH   1  17
HETATM   17  C   UNK N   1      33.453  15.172   6.497  0.00  0.00     0.056 C 
BRANCH  17  18
HETATM   18  C   UNK N   1      34.852  14.655   6.671  0.00  0.00    -0.035 C 
HETATM   19  C   UNK N   1      35.715  14.702   5.664  0.00  0.00     0.007 C 
ENDBRANCH  17  18
ENDBRANCH   1  17
TORSDOF 5
ENDMDL
MODEL 6
REMARK VINA RESULT:      -5.6      1.924      2.040
REMARK  5 active torsions:
REMARK  status: ('A' for Active; 'I' for Inactive)
REMARK    1  A    between atoms: C_2  and  C_3 
REMARK    2  A    between atoms: C_3  and  C_4 
REMARK    3  A    between atoms: C_4  and  C_6 
REMARK    4  A    between atoms: C_6  and  C_7 
REMARK    5  A    between atoms: C_7  and  C_8 
ROOT
HETATM    1  C   UNK N   1      32.646  16.472   7.630  0.00  0.00     0.129 A 
HETATM    2  C   UNK N   1      32.818  15.849   9.015  0.00  0.00     0.244 A 
HETATM    3  O   UNK N   1      32.027  15.001   9.401  0.00  0.00    -0.272 OA
HETATM    4  N   UNK N   1      33.827  16.222   9.841  0.00  0.00    -0.278 N 
HETATM    5  C   UNK N   1      34.740  17.161   9.502  0.00  0.00     0.329 A 
HETATM    6  O   UNK N   1      35.617  17.461  10.297  0.00  0.00    -0.247 OA
HETATM    7  N   UNK N   1      34.697  17.774   8.297  0.00  0.00    -0.278 N 
HETATM    8  C   UNK N   1      33.748  17.501   7.369  0.00  0.00     0.244 A 
HETATM    9  O   UNK N   1      33.783  18.097   6.302  0.00  0.00    -0.272 OA
HETATM   10  H   UNK N   1      33.897  15.792  10.724  0.00  0.00     0.173 HD
HETATM   11  H   UNK N   1      35.385  18.447   8.086  0.00  0.00     0.173 HD
ENDROOT
BRANCH   1  12
HETATM   12  C   UNK N   1      32.690  15.364   6.524  0.00  0.00     0.009 C 
HETATM   13  C   UNK N   1      33.748  14.309   6.823  0.00  0.00     0.011 C 
BRANCH  12  14
HETATM   14  C   UNK N   1      31.362  14.631   6.267  0.00  0.00     0.005 C 
BRANCH  14  15
HETATM   15  C   UNK N   1      31.017  14.463   4.793  0.00  0.00    -0.004 C 
HETATM   16  C   UNK N   1      30.498  13.066   4.520  0.00  0.00     0.005 C 
ENDBRANCH  14  15
ENDBRANCH  12  14
ENDBRANCH   1  12
BRANCH   1  17
HETATM   17  C   UNK N   1      31.287  17.202   7.617  0.00  0.00     0.056 C 
BRANCH  17  18
HETATM   18  C   UNK N   1      31.152  18.235   8.698  0.00  0.00    -0.035 C 
HETATM   19  C   UNK N   1      29.952  18.590   9.141  0.00  0.00     0.007 C 
ENDBRANCH  17  18
ENDBRANCH   1  17
TORSDOF 5
ENDMDL
MODEL 7
REMARK VINA RESULT:      -5.6      6.457      9.750
REMARK  5 active torsions:
REMARK  status: ('A' for Active; 'I' for Inactive)
REMARK    1  A    between atoms: C_2  and  C_3 
REMARK    2  A    between atoms: C_3  and  C_4 
REMARK    3  A    between atoms: C_4  and  C_6 
REMARK    4  A    between atoms: C_6  and  C_7 
REMARK    5  A    between atoms: C_7  and  C_8 
ROOT
HETATM    1  C   UNK N   1      35.768  11.987  14.692  0.00  0.00     0.129 A 
HETATM    2  C   UNK N   1      34.779  11.737  13.554  0.00  0.00     0.244 A 
HETATM    3  O   UNK N   1      34.165  10.681  13.506  0.00  0.00    -0.272 OA
HETATM    4  N   UNK N   1      34.571  12.656  12.579  0.00  0.00    -0.278 N 
HETATM    5  C   UNK N   1      35.216  13.845  12.546  0.00  0.00     0.329 A 
HETATM    6  O   UNK N   1      34.992  14.624  11.633  0.00  0.00    -0.247 OA
HETATM    7  N   UNK N   1      36.106  14.184  13.506  0.00  0.00    -0.278 N 
HETATM    8  C   UNK N   1      36.414  13.367  14.542  0.00  0.00     0.244 A 
HETATM    9  O   UNK N   1      37.225  13.751  15.371  0.00  0.00    -0.272 OA
HETATM   10  H   UNK N   1      33.924  12.450  11.867  0.00  0.00     0.173 HD
HETATM   11  H   UNK N   1      36.549  15.062  13.448  0.00  0.00     0.173 HD
ENDROOT
BRANCH   1  12
HETATM   12  C   UNK N   1      35.042  11.895  16.076  0.00  0.00     0.009 C 
HETATM   13  C   UNK N   1      35.892  11.172  17.113  0.00  0.00     0.011 C 
BRANCH  12  14
HETATM   14  C   UNK N   1      34.606  13.238  16.687  0.00  0.00     0.005 C 
BRANCH  14  15
HETATM   15  C   UNK N   1      35.111  13.473  18.104  0.00  0.00    -0.004 C 
HETATM   16  C   UNK N   1      35.621  14.891  18.264  0.00  0.00     0.005 C 
ENDBRANCH  14  15
ENDBRANCH  12  14
ENDBRANCH   1  12
BRANCH   1  17
HETATM   17  C   UNK N   1      36.877  10.919  14.586  0.00  0.00     0.056 C 
BRANCH  17  18
HETATM   18  C   UNK N   1      37.670  11.004  13.314  0.00  0.00    -0.035 C 
HETATM   19  C   UNK N   1      37.840   9.929  12.555  0.00  0.00     0.007 C 
ENDBRANCH  17  18
ENDBRANCH   1  17
TORSDOF 5
ENDMDL
MODEL 8
REMARK VINA RESULT:      -5.5      6.514      9.308
REMARK  5 active torsions:
REMARK  status: ('A' for Active; 'I' for Inactive)
REMARK    1  A    between atoms: C_2  and  C_3 
REMARK    2  A    between atoms: C_3  and  C_4 
REMARK    3  A    between atoms: C_4  and  C_6 
REMARK    4  A    between atoms: C_6  and  C_7 
REMARK    5  A    between atoms: C_7  and  C_8 
ROOT
HETATM    1  C   UNK N   1      35.852  12.942  15.064  0.00  0.00     0.129 A 
HETATM    2  C   UNK N   1      36.687  14.213  14.914  0.00  0.00     0.244 A 
HETATM    3  O   UNK N   1      37.353  14.617  15.856  0.00  0.00    -0.272 OA
HETATM    4  N   UNK N   1      36.700  14.921  13.757  0.00  0.00    -0.278 N 
HETATM    5  C   UNK N   1      35.984  14.557  12.668  0.00  0.00     0.329 A 
HETATM    6  O   UNK N   1      36.030  15.246  11.662  0.00  0.00    -0.247 OA
HETATM    7  N   UNK N   1      35.217  13.443  12.678  0.00  0.00    -0.278 N 
HETATM    8  C   UNK N   1      35.108  12.637  13.762  0.00  0.00     0.244 A 
HETATM    9  O   UNK N   1      34.397  11.646  13.687  0.00  0.00    -0.272 OA
HETATM   10  H   UNK N   1      37.253  15.734  13.708  0.00  0.00     0.173 HD
HETATM   11  H   UNK N   1      34.716  13.209  11.863  0.00  0.00     0.173 HD
ENDROOT
BRANCH   1  12
HETATM   12  C   UNK N   1      36.769  11.729  15.441  0.00  0.00     0.009 C 
HETATM   13  C   UNK N   1      35.952  10.489  15.782  0.00  0.00     0.011 C 
BRANCH  12  14
HETATM   14  C   UNK N   1      37.804  11.326  14.378  0.00  0.00     0.005 C 
BRANCH  14  15
HETATM   15  C   UNK N   1      37.619   9.917  13.829  0.00  0.00    -0.004 C 
HETATM   16  C   UNK N   1      37.363   9.953  12.336  0.00  0.00     0.005 C 
ENDBRANCH  14  15
ENDBRANCH  12  14
ENDBRANCH   1  12
BRANCH   1  17
HETATM   17  C   UNK N   1      34.808  13.201  16.170  0.00  0.00     0.056 C 
BRANCH  17  18
HETATM   18  C   UNK N   1      35.414  13.617  17.480  0.00  0.00    -0.035 C 
HETATM   19  C   UNK N   1      35.166  12.924  18.584  0.00  0.00     0.007 C 
ENDBRANCH  17  18
ENDBRANCH   1  17
TORSDOF 5
ENDMDL
MODEL 9
REMARK VINA RESULT:      -5.5      6.624      8.891
REMARK  5 active torsions:
REMARK  status: ('A' for Active; 'I' for Inactive)
REMARK    1  A    between atoms: C_2  and  C_3 
REMARK    2  A    between atoms: C_3  and  C_4 
REMARK    3  A    between atoms: C_4  and  C_6 
REMARK    4  A    between atoms: C_6  and  C_7 
REMARK    5  A    between atoms: C_7  and  C_8 
ROOT
HETATM    1  C   UNK N   1      35.711  12.661  13.673  0.00  0.00     0.129 A 
HETATM    2  C   UNK N   1      35.537  13.515  12.418  0.00  0.00     0.244 A 
HETATM    3  O   UNK N   1      34.526  14.187  12.277  0.00  0.00    -0.272 OA
HETATM    4  N   UNK N   1      36.477  13.539  11.441  0.00  0.00    -0.278 N 
HETATM    5  C   UNK N   1      37.620  12.819  11.507  0.00  0.00     0.329 A 
HETATM    6  O   UNK N   1      38.420  12.875  10.587  0.00  0.00    -0.247 OA
HETATM    7  N   UNK N   1      37.890  12.035  12.575  0.00  0.00    -0.278 N 
HETATM    8  C   UNK N   1      37.045  11.913  13.628  0.00  0.00     0.244 A 
HETATM    9  O   UNK N   1      37.366  11.187  14.557  0.00  0.00    -0.272 OA
HETATM   10  H   UNK N   1      36.321  14.105  10.650  0.00  0.00     0.173 HD
HETATM   11  H   UNK N   1      38.736  11.531  12.588  0.00  0.00     0.173 HD
ENDROOT
BRANCH   1  12
HETATM   12  C   UNK N   1      35.656  13.558  14.956  0.00  0.00     0.009 C 
HETATM   13  C   UNK N   1      34.793  12.934  16.045  0.00  0.00     0.011 C 
BRANCH  12  14
HETATM   14  C   UNK N   1      37.018  13.903  15.582  0.00  0.00     0.005 C 
BRANCH  14  15
HETATM   15  C   UNK N   1      37.239  15.392  15.815  0.00  0.00    -0.004 C 
HETATM   16  C   UNK N   1      36.921  15.762  17.250  0.00  0.00     0.005 C 
ENDBRANCH  14  15
ENDBRANCH  12  14
ENDBRANCH   1  12
BRANCH   1  17
HETATM   17  C   UNK N   1      34.572  11.620  13.687  0.00  0.00     0.056 C 
BRANCH  17  18
HETATM   18  C   UNK N   1      34.711  10.566  12.628  0.00  0.00    -0.035 C 
HETATM   19  C   UNK N   1      33.641  10.107  11.991  0.00  0.00     0.007 C 
ENDBRANCH  17  18
ENDBRANCH   1  17
TORSDOF 5
ENDMDL
