REMARK  1 active torsions:
REMARK  status: ('A' for Active; 'I' for Inactive)
REMARK    1  A    between atoms: C_4  and  N_5 
ROOT
HETATM    1  O   UNK N   1       0.074   0.731  -0.000  0.00  0.00    -0.275 OA
HETATM    2  C   UNK N   1       1.313  -0.005   0.000  0.00  0.00     0.235 A 
HETATM    3  N   UNK N   1      -0.912  -0.201   0.000  0.00  0.00    -0.233 N 
HETATM    4  C   UNK N   1       0.935  -1.467  -0.000  0.00  0.00     0.196 A 
HETATM    5  C   UNK N   1      -0.480  -1.455   0.000  0.00  0.00     0.265 A 
HETATM    6  O   UNK N   1      -1.212  -2.429   0.000  0.00  0.00    -0.269 OA
HETATM    7  H   UNK N   1      -1.868   0.034   0.000  0.00  0.00     0.197 HD
ENDROOT
BRANCH   4   8
HETATM    8  N   UNK N   1       1.799  -2.633   0.000  0.00  0.00    -0.417 N 
HETATM    9  H   UNK N   1       1.394  -3.569   0.000  0.00  0.00     0.150 HD
HETATM   10  H   UNK N   1       2.813  -2.516   0.000  0.00  0.00     0.150 HD
ENDBRANCH   4   8
TORSDOF 1
