MODEL 1
REMARK VINA RESULT:      -8.5      0.000      0.000
REMARK  9 active torsions:
REMARK  status: ('A' for Active; 'I' for Inactive)
REMARK    1  A    between atoms: C_23  and  C_13 
REMARK    2  A    between atoms: O_37  and  C_19 
REMARK    3  A    between atoms: O_38  and  C_20 
REMARK    4  A    between atoms: C_31  and  C_22 
REMARK    5  A    between atoms: O_33  and  C_25 
REMARK    6  A    between atoms: C_26  and  O_34 
REMARK    7  A    between atoms: C_27  and  O_35 
REMARK    8  A    between atoms: C_28  and  O_44 
REMARK    9  A    between atoms: C_32  and  O_44 
ROOT
HETATM    1  C   UNK N   1      35.525  10.600  17.443  0.00  0.00     0.048 A 
HETATM    2  C   UNK N   1      35.148  13.031  16.052  0.00  0.00     0.050 A 
HETATM    3  C   UNK N   1      34.093  10.173  12.009  0.00  0.00     0.187 C 
HETATM    4  C   UNK N   1      34.951  13.374  19.613  0.00  0.00     0.352 A 
HETATM    5  C   UNK N   1      35.568  10.591  16.031  0.00  0.00    -0.037 A 
HETATM    6  C   UNK N   1      35.376  11.845  15.317  0.00  0.00    -0.019 A 
HETATM    7  C   UNK N   1      34.555  10.532  13.423  0.00  0.00     0.058 C 
HETATM    8  C   UNK N   1      35.313  11.801  18.094  0.00  0.00     0.105 A 
HETATM    9  C   UNK N   1      35.128  12.952  17.445  0.00  0.00     0.105 A 
HETATM   10  C   UNK N   1      35.561   9.224  15.308  0.00  0.00     0.066 C 
HETATM   11  C   UNK N   1      35.538   9.409  13.773  0.00  0.00     0.107 C 
HETATM   12  C   UNK N   1      35.271  11.865  13.793  0.00  0.00     0.165 C 
HETATM   13  C   UNK N   1      35.010   8.339  12.881  0.00  0.00     0.264 C 
HETATM   14  O   UNK N   1      35.435   7.198  12.836  0.00  0.00    -0.265 OA
HETATM   15  O   UNK N   1      34.187   8.809  11.946  0.00  0.00    -0.321 OA
HETATM   16  O   UNK N   1      35.216  12.018  19.407  0.00  0.00    -0.323 OA
HETATM   17  O   UNK N   1      34.909  13.925  18.324  0.00  0.00    -0.323 OA
ENDROOT
BRANCH  12  18
HETATM   18  O   UNK N   1      34.647  13.062  13.300  0.00  0.00    -0.348 OA
BRANCH  18  19
HETATM   19  C   UNK N   1      35.179  13.440  12.027  0.00  0.00     0.292 C 
HETATM   20  C   UNK N   1      34.910  14.908  11.625  0.00  0.00     0.204 C 
HETATM   21  C   UNK N   1      35.793  15.286  10.383  0.00  0.00     0.183 C 
HETATM   22  C   UNK N   1      36.196  14.016   9.589  0.00  0.00     0.187 C 
HETATM   23  C   UNK N   1      36.971  13.078  10.571  0.00  0.00     0.180 C 
HETATM   24  O   UNK N   1      36.977  14.371   8.454  0.00  0.00    -0.346 OA
HETATM   25  C   UNK N   1      38.437  13.438  10.434  0.00  0.00     0.206 C 
HETATM   26  O   UNK N   1      36.577  13.209  11.933  0.00  0.00    -0.348 OA
HETATM   27  O   UNK N   1      38.917  13.185   9.125  0.00  0.00    -0.354 OA
HETATM   28  C   UNK N   1      37.916  13.354   8.120  0.00  0.00     0.301 C 
BRANCH  20  29
HETATM   29  O   UNK N   1      33.555  15.043  11.312  0.00  0.00    -0.388 OA
HETATM   30  H   UNK N   1      32.869  15.715  11.177  0.00  0.00     0.210 HD
ENDBRANCH  20  29
BRANCH  21  31
HETATM   31  O   UNK N   1      36.958  15.922  10.823  0.00  0.00    -0.390 OA
HETATM   32  H   UNK N   1      37.736  16.491  10.944  0.00  0.00     0.210 HD
ENDBRANCH  21  31
BRANCH  28  33
HETATM   33  C   UNK N   1      38.581  13.743   6.842  0.00  0.00     0.037 A 
HETATM   34  C   UNK N   1      37.999  13.790   5.577  0.00  0.00     0.020 A 
HETATM   35  C   UNK N   1      38.914  14.188   4.562  0.00  0.00     0.008 A 
HETATM   36  C   UNK N   1      40.209  14.454   5.034  0.00  0.00     0.050 A 
HETATM   37  S   UNK N   1      40.163  14.187   6.671  0.00  0.00    -0.102 SA
ENDBRANCH  28  33
ENDBRANCH  18  19
ENDBRANCH  12  18
BRANCH  10  38
HETATM   38  C   UNK N   1      36.584   8.186  15.783  0.00  0.00    -0.043 A 
HETATM   39  C   UNK N   1      37.955   8.438  15.660  0.00  0.00     0.047 A 
HETATM   40  C   UNK N   1      38.909   7.583  16.239  0.00  0.00     0.104 A 
HETATM   41  C   UNK N   1      38.481   6.486  17.001  0.00  0.00     0.132 A 
HETATM   42  C   UNK N   1      37.114   6.224  17.151  0.00  0.00     0.104 A 
HETATM   43  C   UNK N   1      36.182   7.066  16.526  0.00  0.00     0.047 A 
BRANCH  40  44
HETATM   44  O   UNK N   1      40.236   7.813  16.095  0.00  0.00    -0.353 OA
HETATM   45  C   UNK N   1      40.764   8.556  15.062  0.00  0.00     0.210 C 
ENDBRANCH  40  44
BRANCH  41  46
HETATM   46  O   UNK N   1      39.386   5.690  17.599  0.00  0.00    -0.356 OA
HETATM   47  H   UNK N   1      39.953   6.016  18.269  0.00  0.00     0.218 HD
ENDBRANCH  41  46
BRANCH  42  48
HETATM   48  O   UNK N   1      36.716   5.183  17.925  0.00  0.00    -0.353 OA
HETATM   49  C   UNK N   1      35.799   5.306  18.946  0.00  0.00     0.210 C 
ENDBRANCH  42  48
ENDBRANCH  10  38
TORSDOF 9
ENDMDL
MODEL 2
REMARK VINA RESULT:      -8.3      9.703     14.479
REMARK  9 active torsions:
REMARK  status: ('A' for Active; 'I' for Inactive)
REMARK    1  A    between atoms: C_23  and  C_13 
REMARK    2  A    between atoms: O_37  and  C_19 
REMARK    3  A    between atoms: O_38  and  C_20 
REMARK    4  A    between atoms: C_31  and  C_22 
REMARK    5  A    between atoms: O_33  and  C_25 
REMARK    6  A    between atoms: C_26  and  O_34 
REMARK    7  A    between atoms: C_27  and  O_35 
REMARK    8  A    between atoms: C_28  and  O_44 
REMARK    9  A    between atoms: C_32  and  O_44 
ROOT
HETATM    1  C   UNK N   1      25.855  18.432   4.853  0.00  0.00     0.048 A 
HETATM    2  C   UNK N   1      28.645  18.747   5.174  0.00  0.00     0.050 A 
HETATM    3  C   UNK N   1      29.118  14.793   2.048  0.00  0.00     0.187 C 
HETATM    4  C   UNK N   1      26.766  21.670   6.044  0.00  0.00     0.352 A 
HETATM    5  C   UNK N   1      26.705  17.350   4.530  0.00  0.00    -0.037 A 
HETATM    6  C   UNK N   1      28.141  17.515   4.699  0.00  0.00    -0.019 A 
HETATM    7  C   UNK N   1      28.443  15.821   2.958  0.00  0.00     0.058 C 
HETATM    8  C   UNK N   1      26.420  19.602   5.328  0.00  0.00     0.105 A 
HETATM    9  C   UNK N   1      27.736  19.761   5.476  0.00  0.00     0.105 A 
HETATM   10  C   UNK N   1      26.098  16.144   3.778  0.00  0.00     0.066 C 
HETATM   11  C   UNK N   1      27.184  15.095   3.445  0.00  0.00     0.107 C 
HETATM   12  C   UNK N   1      29.109  16.430   4.229  0.00  0.00     0.165 C 
HETATM   13  C   UNK N   1      27.005  14.139   2.316  0.00  0.00     0.264 C 
HETATM   14  O   UNK N   1      26.077  13.357   2.206  0.00  0.00    -0.265 OA
HETATM   15  O   UNK N   1      28.091  14.036   1.553  0.00  0.00    -0.321 OA
HETATM   16  O   UNK N   1      25.801  20.734   5.665  0.00  0.00    -0.323 OA
HETATM   17  O   UNK N   1      27.985  20.993   5.908  0.00  0.00    -0.323 OA
ENDROOT
BRANCH  12  18
HETATM   18  O   UNK N   1      30.446  16.925   4.051  0.00  0.00    -0.348 OA
BRANCH  18  19
HETATM   19  C   UNK N   1      31.335  16.390   5.037  0.00  0.00     0.292 C 
HETATM   20  C   UNK N   1      32.558  15.639   4.464  0.00  0.00     0.204 C 
HETATM   21  C   UNK N   1      33.602  15.379   5.608  0.00  0.00     0.183 C 
HETATM   22  C   UNK N   1      32.911  15.396   6.996  0.00  0.00     0.187 C 
HETATM   23  C   UNK N   1      32.226  16.792   7.159  0.00  0.00     0.180 C 
HETATM   24  O   UNK N   1      33.861  15.138   8.023  0.00  0.00    -0.346 OA
HETATM   25  C   UNK N   1      33.247  17.689   7.831  0.00  0.00     0.206 C 
HETATM   26  O   UNK N   1      31.812  17.384   5.933  0.00  0.00    -0.348 OA
HETATM   27  O   UNK N   1      33.585  17.219   9.125  0.00  0.00    -0.354 OA
HETATM   28  C   UNK N   1      33.517  15.797   9.238  0.00  0.00     0.301 C 
BRANCH  20  29
HETATM   29  O   UNK N   1      32.123  14.426   3.924  0.00  0.00    -0.388 OA
HETATM   30  H   UNK N   1      32.184  13.468   4.059  0.00  0.00     0.210 HD
ENDBRANCH  20  29
BRANCH  21  31
HETATM   31  O   UNK N   1      34.572  16.386   5.583  0.00  0.00    -0.390 OA
HETATM   32  H   UNK N   1      35.133  17.161   5.747  0.00  0.00     0.210 HD
ENDBRANCH  21  31
BRANCH  28  33
HETATM   33  C   UNK N   1      34.478  15.353  10.289  0.00  0.00     0.037 A 
HETATM   34  C   UNK N   1      35.243  16.170  11.122  0.00  0.00     0.020 A 
HETATM   35  C   UNK N   1      36.074  15.429  12.008  0.00  0.00     0.008 A 
HETATM   36  C   UNK N   1      35.958  14.038  11.871  0.00  0.00     0.050 A 
HETATM   37  S   UNK N   1      34.841  13.788  10.670  0.00  0.00    -0.102 SA
ENDBRANCH  28  33
ENDBRANCH  18  19
ENDBRANCH  12  18
BRANCH  10  38
HETATM   38  C   UNK N   1      24.819  15.535   4.365  0.00  0.00    -0.043 A 
HETATM   39  C   UNK N   1      24.819  15.014   5.664  0.00  0.00     0.047 A 
HETATM   40  C   UNK N   1      23.625  14.607   6.286  0.00  0.00     0.104 A 
HETATM   41  C   UNK N   1      22.405  14.775   5.615  0.00  0.00     0.132 A 
HETATM   42  C   UNK N   1      22.380  15.309   4.322  0.00  0.00     0.104 A 
HETATM   43  C   UNK N   1      23.589  15.666   3.705  0.00  0.00     0.047 A 
BRANCH  40  44
HETATM   44  O   UNK N   1      23.629  14.075   7.532  0.00  0.00    -0.353 OA
HETATM   45  C   UNK N   1      24.710  13.407   8.062  0.00  0.00     0.210 C 
ENDBRANCH  40  44
BRANCH  41  46
HETATM   46  O   UNK N   1      21.253  14.433   6.221  0.00  0.00    -0.356 OA
HETATM   47  H   UNK N   1      20.454  14.886   6.038  0.00  0.00     0.218 HD
ENDBRANCH  41  46
BRANCH  42  48
HETATM   48  O   UNK N   1      21.189  15.504   3.703  0.00  0.00    -0.353 OA
HETATM   49  C   UNK N   1      20.915  16.600   2.915  0.00  0.00     0.210 C 
ENDBRANCH  42  48
ENDBRANCH  10  38
TORSDOF 9
ENDMDL
MODEL 3
REMARK VINA RESULT:      -8.2      9.747     14.449
REMARK  9 active torsions:
REMARK  status: ('A' for Active; 'I' for Inactive)
REMARK    1  A    between atoms: C_23  and  C_13 
REMARK    2  A    between atoms: O_37  and  C_19 
REMARK    3  A    between atoms: O_38  and  C_20 
REMARK    4  A    between atoms: C_31  and  C_22 
REMARK    5  A    between atoms: O_33  and  C_25 
REMARK    6  A    between atoms: C_26  and  O_34 
REMARK    7  A    between atoms: C_27  and  O_35 
REMARK    8  A    between atoms: C_28  and  O_44 
REMARK    9  A    between atoms: C_32  and  O_44 
ROOT
HETATM    1  C   UNK N   1      25.830  18.450   4.847  0.00  0.00     0.048 A 
HETATM    2  C   UNK N   1      28.620  18.751   5.183  0.00  0.00     0.050 A 
HETATM    3  C   UNK N   1      29.090  14.811   2.039  0.00  0.00     0.187 C 
HETATM    4  C   UNK N   1      26.749  21.678   6.059  0.00  0.00     0.352 A 
HETATM    5  C   UNK N   1      26.676  17.366   4.523  0.00  0.00    -0.037 A 
HETATM    6  C   UNK N   1      28.113  17.524   4.699  0.00  0.00    -0.019 A 
HETATM    7  C   UNK N   1      28.415  15.837   2.952  0.00  0.00     0.058 C 
HETATM    8  C   UNK N   1      26.397  19.615   5.330  0.00  0.00     0.105 A 
HETATM    9  C   UNK N   1      27.713  19.768   5.486  0.00  0.00     0.105 A 
HETATM   10  C   UNK N   1      26.068  16.166   3.762  0.00  0.00     0.066 C 
HETATM   11  C   UNK N   1      27.151  15.114   3.429  0.00  0.00     0.107 C 
HETATM   12  C   UNK N   1      29.078  16.437   4.228  0.00  0.00     0.165 C 
HETATM   13  C   UNK N   1      26.973  14.165   2.294  0.00  0.00     0.264 C 
HETATM   14  O   UNK N   1      26.042  13.388   2.176  0.00  0.00    -0.265 OA
HETATM   15  O   UNK N   1      28.062  14.061   1.536  0.00  0.00    -0.321 OA
HETATM   16  O   UNK N   1      25.781  20.748   5.670  0.00  0.00    -0.323 OA
HETATM   17  O   UNK N   1      27.966  20.996   5.925  0.00  0.00    -0.323 OA
ENDROOT
BRANCH  12  18
HETATM   18  O   UNK N   1      30.418  16.927   4.060  0.00  0.00    -0.348 OA
BRANCH  18  19
HETATM   19  C   UNK N   1      31.298  16.388   5.051  0.00  0.00     0.292 C 
HETATM   20  C   UNK N   1      32.533  15.650   4.485  0.00  0.00     0.204 C 
HETATM   21  C   UNK N   1      33.565  15.385   5.638  0.00  0.00     0.183 C 
HETATM   22  C   UNK N   1      32.857  15.385   7.019  0.00  0.00     0.187 C 
HETATM   23  C   UNK N   1      32.162  16.775   7.187  0.00  0.00     0.180 C 
HETATM   24  O   UNK N   1      33.796  15.122   8.054  0.00  0.00    -0.346 OA
HETATM   25  C   UNK N   1      33.170  17.671   7.879  0.00  0.00     0.206 C 
HETATM   26  O   UNK N   1      31.758  17.376   5.962  0.00  0.00    -0.348 OA
HETATM   27  O   UNK N   1      33.495  17.191   9.172  0.00  0.00    -0.354 OA
HETATM   28  C   UNK N   1      33.435  15.767   9.271  0.00  0.00     0.301 C 
BRANCH  20  29
HETATM   29  O   UNK N   1      32.111  14.439   3.928  0.00  0.00    -0.388 OA
HETATM   30  H   UNK N   1      31.787  14.056   3.098  0.00  0.00     0.210 HD
ENDBRANCH  20  29
BRANCH  21  31
HETATM   31  O   UNK N   1      34.529  16.399   5.634  0.00  0.00    -0.390 OA
HETATM   32  H   UNK N   1      35.306  16.962   5.774  0.00  0.00     0.210 HD
ENDBRANCH  21  31
BRANCH  28  33
HETATM   33  C   UNK N   1      34.386  15.320  10.330  0.00  0.00     0.037 A 
HETATM   34  C   UNK N   1      34.506  14.036  10.858  0.00  0.00     0.020 A 
HETATM   35  C   UNK N   1      35.503  13.946  11.870  0.00  0.00     0.008 A 
HETATM   36  C   UNK N   1      36.164  15.157  12.129  0.00  0.00     0.050 A 
HETATM   37  S   UNK N   1      35.490  16.274  11.104  0.00  0.00    -0.102 SA
ENDBRANCH  28  33
ENDBRANCH  18  19
ENDBRANCH  12  18
BRANCH  10  38
HETATM   38  C   UNK N   1      24.784  15.560   4.340  0.00  0.00    -0.043 A 
HETATM   39  C   UNK N   1      23.593  15.600   3.605  0.00  0.00     0.047 A 
HETATM   40  C   UNK N   1      22.447  14.905   4.034  0.00  0.00     0.104 A 
HETATM   41  C   UNK N   1      22.513  14.114   5.191  0.00  0.00     0.132 A 
HETATM   42  C   UNK N   1      23.698  14.047   5.931  0.00  0.00     0.104 A 
HETATM   43  C   UNK N   1      24.814  14.784   5.508  0.00  0.00     0.047 A 
BRANCH  40  44
HETATM   44  O   UNK N   1      21.287  14.968   3.338  0.00  0.00    -0.353 OA
HETATM   45  C   UNK N   1      20.902  16.075   2.615  0.00  0.00     0.210 C 
ENDBRANCH  40  44
BRANCH  41  46
HETATM   46  O   UNK N   1      21.437  13.408   5.582  0.00  0.00    -0.356 OA
HETATM   47  H   UNK N   1      20.738  13.810   6.060  0.00  0.00     0.218 HD
ENDBRANCH  41  46
BRANCH  42  48
HETATM   48  O   UNK N   1      23.757  13.244   7.024  0.00  0.00    -0.353 OA
HETATM   49  C   UNK N   1      24.802  13.263   7.921  0.00  0.00     0.210 C 
ENDBRANCH  42  48
ENDBRANCH  10  38
TORSDOF 9
ENDMDL
MODEL 4
REMARK VINA RESULT:      -7.9      6.243     11.897
REMARK  9 active torsions:
REMARK  status: ('A' for Active; 'I' for Inactive)
REMARK    1  A    between atoms: C_23  and  C_13 
REMARK    2  A    between atoms: O_37  and  C_19 
REMARK    3  A    between atoms: O_38  and  C_20 
REMARK    4  A    between atoms: C_31  and  C_22 
REMARK    5  A    between atoms: O_33  and  C_25 
REMARK    6  A    between atoms: C_26  and  O_34 
REMARK    7  A    between atoms: C_27  and  O_35 
REMARK    8  A    between atoms: C_28  and  O_44 
REMARK    9  A    between atoms: C_32  and  O_44 
ROOT
HETATM    1  C   UNK N   1      29.835  16.510   6.342  0.00  0.00     0.048 A 
HETATM    2  C   UNK N   1      31.889  16.596   8.281  0.00  0.00     0.050 A 
HETATM    3  C   UNK N   1      34.948  14.862   4.639  0.00  0.00     0.187 C 
HETATM    4  C   UNK N   1      29.063  18.640   9.099  0.00  0.00     0.352 A 
HETATM    5  C   UNK N   1      31.008  15.753   6.126  0.00  0.00    -0.037 A 
HETATM    6  C   UNK N   1      32.064  15.798   7.128  0.00  0.00    -0.019 A 
HETATM    7  C   UNK N   1      33.650  15.264   5.342  0.00  0.00     0.058 C 
HETATM    8  C   UNK N   1      29.729  17.255   7.502  0.00  0.00     0.105 A 
HETATM    9  C   UNK N   1      30.696  17.306   8.420  0.00  0.00     0.105 A 
HETATM   10  C   UNK N   1      31.225  15.123   4.731  0.00  0.00     0.066 C 
HETATM   11  C   UNK N   1      32.588  14.398   4.656  0.00  0.00     0.107 C 
HETATM   12  C   UNK N   1      33.406  15.114   6.874  0.00  0.00     0.165 C 
HETATM   13  C   UNK N   1      33.266  14.176   3.348  0.00  0.00     0.264 C 
HETATM   14  O   UNK N   1      32.782  13.573   2.406  0.00  0.00    -0.265 OA
HETATM   15  O   UNK N   1      34.561  14.482   3.382  0.00  0.00    -0.321 OA
HETATM   16  O   UNK N   1      28.724  18.047   7.881  0.00  0.00    -0.323 OA
HETATM   17  O   UNK N   1      30.333  18.128   9.399  0.00  0.00    -0.323 OA
ENDROOT
BRANCH  12  18
HETATM   18  O   UNK N   1      34.451  15.621   7.721  0.00  0.00    -0.348 OA
BRANCH  18  19
HETATM   19  C   UNK N   1      34.837  14.657   8.705  0.00  0.00     0.292 C 
HETATM   20  C   UNK N   1      36.253  14.068   8.510  0.00  0.00     0.204 C 
HETATM   21  C   UNK N   1      36.679  13.279   9.798  0.00  0.00     0.183 C 
HETATM   22  C   UNK N   1      35.432  12.824  10.601  0.00  0.00     0.187 C 
HETATM   23  C   UNK N   1      34.618  14.108  10.965  0.00  0.00     0.180 C 
HETATM   24  O   UNK N   1      35.828  12.090  11.754  0.00  0.00    -0.346 OA
HETATM   25  C   UNK N   1      35.128  14.562  12.318  0.00  0.00     0.206 C 
HETATM   26  O   UNK N   1      34.754  15.169  10.027  0.00  0.00    -0.348 OA
HETATM   27  O   UNK N   1      34.881  13.594  13.323  0.00  0.00    -0.354 OA
HETATM   28  C   UNK N   1      34.906  12.255  12.826  0.00  0.00     0.301 C 
BRANCH  20  29
HETATM   29  O   UNK N   1      36.232  13.213   7.405  0.00  0.00    -0.388 OA
HETATM   30  H   UNK N   1      35.721  12.486   7.016  0.00  0.00     0.210 HD
ENDBRANCH  20  29
BRANCH  21  31
HETATM   31  O   UNK N   1      37.452  14.112  10.614  0.00  0.00    -0.390 OA
HETATM   32  H   UNK N   1      37.792  14.802  11.205  0.00  0.00     0.210 HD
ENDBRANCH  21  31
BRANCH  28  33
HETATM   33  C   UNK N   1      35.319  11.342  13.932  0.00  0.00     0.037 A 
HETATM   34  C   UNK N   1      34.575  10.293  14.472  0.00  0.00     0.020 A 
HETATM   35  C   UNK N   1      35.252   9.625  15.530  0.00  0.00     0.008 A 
HETATM   36  C   UNK N   1      36.523  10.148  15.815  0.00  0.00     0.050 A 
HETATM   37  S   UNK N   1      36.750  11.403  14.754  0.00  0.00    -0.102 SA
ENDBRANCH  28  33
ENDBRANCH  18  19
ENDBRANCH  12  18
BRANCH  10  38
HETATM   38  C   UNK N   1      30.064  14.304   4.155  0.00  0.00    -0.043 A 
HETATM   39  C   UNK N   1      29.760  13.044   4.683  0.00  0.00     0.047 A 
HETATM   40  C   UNK N   1      28.602  12.349   4.291  0.00  0.00     0.104 A 
HETATM   41  C   UNK N   1      27.706  12.950   3.394  0.00  0.00     0.132 A 
HETATM   42  C   UNK N   1      27.983  14.216   2.866  0.00  0.00     0.104 A 
HETATM   43  C   UNK N   1      29.166  14.871   3.238  0.00  0.00     0.047 A 
BRANCH  40  44
HETATM   44  O   UNK N   1      28.323  11.118   4.781  0.00  0.00    -0.353 OA
HETATM   45  C   UNK N   1      29.278  10.140   4.948  0.00  0.00     0.210 C 
ENDBRANCH  40  44
BRANCH  41  46
HETATM   46  O   UNK N   1      26.572  12.313   3.050  0.00  0.00    -0.356 OA
HETATM   47  H   UNK N   1      26.001  12.657   2.392  0.00  0.00     0.218 HD
ENDBRANCH  41  46
BRANCH  42  48
HETATM   48  O   UNK N   1      27.086  14.801   2.032  0.00  0.00    -0.353 OA
HETATM   49  C   UNK N   1      26.233  15.809   2.425  0.00  0.00     0.210 C 
ENDBRANCH  42  48
ENDBRANCH  10  38
TORSDOF 9
ENDMDL
MODEL 5
REMARK VINA RESULT:      -7.9      6.691     13.236
REMARK  9 active torsions:
REMARK  status: ('A' for Active; 'I' for Inactive)
REMARK    1  A    between atoms: C_23  and  C_13 
REMARK    2  A    between atoms: O_37  and  C_19 
REMARK    3  A    between atoms: O_38  and  C_20 
REMARK    4  A    between atoms: C_31  and  C_22 
REMARK    5  A    between atoms: O_33  and  C_25 
REMARK    6  A    between atoms: C_26  and  O_34 
REMARK    7  A    between atoms: C_27  and  O_35 
REMARK    8  A    between atoms: C_28  and  O_44 
REMARK    9  A    between atoms: C_32  and  O_44 
ROOT
HETATM    1  C   UNK N   1      31.121  14.803   3.679  0.00  0.00     0.048 A 
HETATM    2  C   UNK N   1      33.817  15.490   4.179  0.00  0.00     0.050 A 
HETATM    3  C   UNK N   1      32.206  17.186   8.669  0.00  0.00     0.187 C 
HETATM    4  C   UNK N   1      33.419  13.062   1.576  0.00  0.00     0.352 A 
HETATM    5  C   UNK N   1      31.408  15.744   4.693  0.00  0.00    -0.037 A 
HETATM    6  C   UNK N   1      32.797  16.098   4.947  0.00  0.00    -0.019 A 
HETATM    7  C   UNK N   1      32.139  16.642   7.240  0.00  0.00     0.058 C 
HETATM    8  C   UNK N   1      32.171  14.262   2.958  0.00  0.00     0.105 A 
HETATM    9  C   UNK N   1      33.446  14.577   3.192  0.00  0.00     0.105 A 
HETATM   10  C   UNK N   1      30.266  16.158   5.650  0.00  0.00     0.066 C 
HETATM   11  C   UNK N   1      30.778  17.132   6.735  0.00  0.00     0.107 C 
HETATM   12  C   UNK N   1      33.168  16.997   6.125  0.00  0.00     0.165 C 
HETATM   13  C   UNK N   1      30.070  17.266   8.039  0.00  0.00     0.264 C 
HETATM   14  O   UNK N   1      28.900  17.583   8.167  0.00  0.00    -0.265 OA
HETATM   15  O   UNK N   1      30.902  17.253   9.079  0.00  0.00    -0.321 OA
HETATM   16  O   UNK N   1      32.115  13.352   1.985  0.00  0.00    -0.323 OA
HETATM   17  O   UNK N   1      34.230  13.876   2.378  0.00  0.00    -0.323 OA
ENDROOT
BRANCH  12  18
HETATM   18  O   UNK N   1      34.551  16.877   6.495  0.00  0.00    -0.348 OA
BRANCH  18  19
HETATM   19  C   UNK N   1      34.721  15.964   7.584  0.00  0.00     0.292 C 
HETATM   20  C   UNK N   1      35.456  14.654   7.218  0.00  0.00     0.204 C 
HETATM   21  C   UNK N   1      35.856  13.889   8.530  0.00  0.00     0.183 C 
HETATM   22  C   UNK N   1      34.943  14.310   9.711  0.00  0.00     0.187 C 
HETATM   23  C   UNK N   1      35.092  15.856   9.888  0.00  0.00     0.180 C 
HETATM   24  O   UNK N   1      35.298  13.595  10.888  0.00  0.00    -0.346 OA
HETATM   25  C   UNK N   1      36.213  16.062  10.887  0.00  0.00     0.206 C 
HETATM   26  O   UNK N   1      35.397  16.553   8.685  0.00  0.00    -0.348 OA
HETATM   27  O   UNK N   1      35.893  15.511  12.153  0.00  0.00    -0.354 OA
HETATM   28  C   UNK N   1      35.052  14.359  12.064  0.00  0.00     0.301 C 
BRANCH  20  29
HETATM   29  O   UNK N   1      34.603  13.866   6.441  0.00  0.00    -0.388 OA
HETATM   30  H   UNK N   1      33.908  13.933   5.768  0.00  0.00     0.210 HD
ENDBRANCH  20  29
BRANCH  21  31
HETATM   31  O   UNK N   1      37.179  14.201   8.859  0.00  0.00    -0.390 OA
HETATM   32  H   UNK N   1      38.001  14.593   9.195  0.00  0.00     0.210 HD
ENDBRANCH  21  31
BRANCH  28  33
HETATM   33  C   UNK N   1      35.312  13.484  13.245  0.00  0.00     0.037 A 
HETATM   34  C   UNK N   1      36.051  13.810  14.380  0.00  0.00     0.020 A 
HETATM   35  C   UNK N   1      36.121  12.742  15.318  0.00  0.00     0.008 A 
HETATM   36  C   UNK N   1      35.435  11.585  14.918  0.00  0.00     0.050 A 
HETATM   37  S   UNK N   1      34.779  11.933  13.434  0.00  0.00    -0.102 SA
ENDBRANCH  28  33
ENDBRANCH  18  19
ENDBRANCH  12  18
BRANCH  10  38
HETATM   38  C   UNK N   1      28.948  16.600   5.003  0.00  0.00    -0.043 A 
HETATM   39  C   UNK N   1      27.861  15.720   4.945  0.00  0.00     0.047 A 
HETATM   40  C   UNK N   1      26.594  16.153   4.514  0.00  0.00     0.104 A 
HETATM   41  C   UNK N   1      26.401  17.503   4.186  0.00  0.00     0.132 A 
HETATM   42  C   UNK N   1      27.470  18.403   4.253  0.00  0.00     0.104 A 
HETATM   43  C   UNK N   1      28.735  17.938   4.643  0.00  0.00     0.047 A 
BRANCH  40  44
HETATM   44  O   UNK N   1      25.551  15.294   4.430  0.00  0.00    -0.353 OA
HETATM   45  C   UNK N   1      25.516  14.234   3.552  0.00  0.00     0.210 C 
ENDBRANCH  40  44
BRANCH  41  46
HETATM   46  O   UNK N   1      25.181  17.936   3.819  0.00  0.00    -0.356 OA
HETATM   47  H   UNK N   1      24.447  17.354   3.787  0.00  0.00     0.218 HD
ENDBRANCH  41  46
BRANCH  42  48
HETATM   48  O   UNK N   1      27.256  19.714   3.973  0.00  0.00    -0.353 OA
HETATM   49  C   UNK N   1      27.065  20.673   4.943  0.00  0.00     0.210 C 
ENDBRANCH  42  48
ENDBRANCH  10  38
TORSDOF 9
ENDMDL
MODEL 6
REMARK VINA RESULT:      -7.8      5.648      9.666
REMARK  9 active torsions:
REMARK  status: ('A' for Active; 'I' for Inactive)
REMARK    1  A    between atoms: C_23  and  C_13 
REMARK    2  A    between atoms: O_37  and  C_19 
REMARK    3  A    between atoms: O_38  and  C_20 
REMARK    4  A    between atoms: C_31  and  C_22 
REMARK    5  A    between atoms: O_33  and  C_25 
REMARK    6  A    between atoms: C_26  and  O_34 
REMARK    7  A    between atoms: C_27  and  O_35 
REMARK    8  A    between atoms: C_28  and  O_44 
REMARK    9  A    between atoms: C_32  and  O_44 
ROOT
HETATM    1  C   UNK N   1      37.498  12.525   7.575  0.00  0.00     0.048 A 
HETATM    2  C   UNK N   1      36.550  14.179   5.489  0.00  0.00     0.050 A 
HETATM    3  C   UNK N   1      34.611  17.106   9.137  0.00  0.00     0.187 C 
HETATM    4  C   UNK N   1      39.219  12.008   4.491  0.00  0.00     0.352 A 
HETATM    5  C   UNK N   1      36.453  13.435   7.848  0.00  0.00    -0.037 A 
HETATM    6  C   UNK N   1      35.965  14.284   6.772  0.00  0.00    -0.019 A 
HETATM    7  C   UNK N   1      35.280  15.896   8.481  0.00  0.00     0.058 C 
HETATM    8  C   UNK N   1      38.011  12.468   6.291  0.00  0.00     0.105 A 
HETATM    9  C   UNK N   1      37.573  13.248   5.303  0.00  0.00     0.105 A 
HETATM   10  C   UNK N   1      36.054  13.667   9.324  0.00  0.00     0.066 C 
HETATM   11  C   UNK N   1      34.950  14.744   9.437  0.00  0.00     0.107 C 
HETATM   12  C   UNK N   1      34.939  15.381   7.050  0.00  0.00     0.165 C 
HETATM   13  C   UNK N   1      34.763  15.519  10.695  0.00  0.00     0.264 C 
HETATM   14  O   UNK N   1      34.535  15.030  11.787  0.00  0.00    -0.265 OA
HETATM   15  O   UNK N   1      34.617  16.825  10.476  0.00  0.00    -0.321 OA
HETATM   16  O   UNK N   1      39.004  11.701   5.837  0.00  0.00    -0.323 OA
HETATM   17  O   UNK N   1      38.273  13.001   4.201  0.00  0.00    -0.323 OA
ENDROOT
BRANCH  12  18
HETATM   18  O   UNK N   1      34.912  16.383   6.021  0.00  0.00    -0.348 OA
BRANCH  18  19
HETATM   19  C   UNK N   1      33.605  16.512   5.453  0.00  0.00     0.292 C 
HETATM   20  C   UNK N   1      33.151  15.306   4.599  0.00  0.00     0.204 C 
HETATM   21  C   UNK N   1      31.614  15.420   4.298  0.00  0.00     0.183 C 
HETATM   22  C   UNK N   1      31.141  16.893   4.407  0.00  0.00     0.187 C 
HETATM   23  C   UNK N   1      31.474  17.385   5.853  0.00  0.00     0.180 C 
HETATM   24  O   UNK N   1      29.753  16.988   4.111  0.00  0.00    -0.346 OA
HETATM   25  C   UNK N   1      30.247  17.093   6.693  0.00  0.00     0.206 C 
HETATM   26  O   UNK N   1      32.608  16.751   6.436  0.00  0.00    -0.348 OA
HETATM   27  O   UNK N   1      29.118  17.819   6.239  0.00  0.00    -0.354 OA
HETATM   28  C   UNK N   1      29.132  18.049   4.829  0.00  0.00     0.301 C 
BRANCH  20  29
HETATM   29  O   UNK N   1      33.877  15.308   3.405  0.00  0.00    -0.388 OA
HETATM   30  H   UNK N   1      34.194  14.715   2.706  0.00  0.00     0.210 HD
ENDBRANCH  20  29
BRANCH  21  31
HETATM   31  O   UNK N   1      30.905  14.656   5.231  0.00  0.00    -0.390 OA
HETATM   32  H   UNK N   1      30.392  13.982   5.705  0.00  0.00     0.210 HD
ENDBRANCH  21  31
BRANCH  28  33
HETATM   33  C   UNK N   1      27.724  18.168   4.350  0.00  0.00     0.037 A 
HETATM   34  C   UNK N   1      27.084  19.326   3.912  0.00  0.00     0.020 A 
HETATM   35  C   UNK N   1      25.730  19.100   3.536  0.00  0.00     0.008 A 
HETATM   36  C   UNK N   1      25.314  17.767   3.676  0.00  0.00     0.050 A 
HETATM   37  S   UNK N   1      26.628  16.936   4.254  0.00  0.00    -0.102 SA
ENDBRANCH  28  33
ENDBRANCH  18  19
ENDBRANCH  12  18
BRANCH  10  38
HETATM   38  C   UNK N   1      35.781  12.419  10.171  0.00  0.00    -0.043 A 
HETATM   39  C   UNK N   1      36.594  12.122  11.271  0.00  0.00     0.047 A 
HETATM   40  C   UNK N   1      36.265  11.084  12.162  0.00  0.00     0.104 A 
HETATM   41  C   UNK N   1      35.073  10.368  11.977  0.00  0.00     0.132 A 
HETATM   42  C   UNK N   1      34.237  10.660  10.894  0.00  0.00     0.104 A 
HETATM   43  C   UNK N   1      34.609  11.669   9.993  0.00  0.00     0.047 A 
BRANCH  40  44
HETATM   44  O   UNK N   1      37.067  10.778  13.209  0.00  0.00    -0.353 OA
HETATM   45  C   UNK N   1      37.312  11.646  14.249  0.00  0.00     0.210 C 
ENDBRANCH  40  44
BRANCH  41  46
HETATM   46  O   UNK N   1      34.726   9.406  12.851  0.00  0.00    -0.356 OA
HETATM   47  H   UNK N   1      35.336   9.080  13.484  0.00  0.00     0.218 HD
ENDBRANCH  41  46
BRANCH  42  48
HETATM   48  O   UNK N   1      33.068   9.986  10.753  0.00  0.00    -0.353 OA
HETATM   49  C   UNK N   1      32.410   9.854   9.550  0.00  0.00     0.210 C 
ENDBRANCH  42  48
ENDBRANCH  10  38
TORSDOF 9
ENDMDL
MODEL 7
REMARK VINA RESULT:      -7.7      4.070      7.205
REMARK  9 active torsions:
REMARK  status: ('A' for Active; 'I' for Inactive)
REMARK    1  A    between atoms: C_23  and  C_13 
REMARK    2  A    between atoms: O_37  and  C_19 
REMARK    3  A    between atoms: O_38  and  C_20 
REMARK    4  A    between atoms: C_31  and  C_22 
REMARK    5  A    between atoms: O_33  and  C_25 
REMARK    6  A    between atoms: C_26  and  O_34 
REMARK    7  A    between atoms: C_27  and  O_35 
REMARK    8  A    between atoms: C_28  and  O_44 
REMARK    9  A    between atoms: C_32  and  O_44 
ROOT
HETATM    1  C   UNK N   1      38.519  10.477  10.007  0.00  0.00     0.048 A 
HETATM    2  C   UNK N   1      38.244  12.980   8.723  0.00  0.00     0.050 A 
HETATM    3  C   UNK N   1      35.131  14.215  12.520  0.00  0.00     0.187 C 
HETATM    4  C   UNK N   1      41.163  11.166   7.711  0.00  0.00     0.352 A 
HETATM    5  C   UNK N   1      37.412  11.292  10.332  0.00  0.00    -0.037 A 
HETATM    6  C   UNK N   1      37.272  12.580   9.668  0.00  0.00    -0.019 A 
HETATM    7  C   UNK N   1      36.016  13.346  11.624  0.00  0.00     0.058 C 
HETATM    8  C   UNK N   1      39.422  10.929   9.061  0.00  0.00     0.105 A 
HETATM    9  C   UNK N   1      39.303  12.111   8.455  0.00  0.00     0.105 A 
HETATM   10  C   UNK N   1      36.548  10.899  11.553  0.00  0.00     0.066 C 
HETATM   11  C   UNK N   1      35.432  11.940  11.801  0.00  0.00     0.107 C 
HETATM   12  C   UNK N   1      36.175  13.557  10.088  0.00  0.00     0.165 C 
HETATM   13  C   UNK N   1      34.822  12.100  13.151  0.00  0.00     0.264 C 
HETATM   14  O   UNK N   1      34.268  11.212  13.774  0.00  0.00    -0.265 OA
HETATM   15  O   UNK N   1      34.712  13.376  13.516  0.00  0.00    -0.321 OA
HETATM   16  O   UNK N   1      40.533  10.327   8.634  0.00  0.00    -0.323 OA
HETATM   17  O   UNK N   1      40.331  12.290   7.632  0.00  0.00    -0.323 OA
ENDROOT
BRANCH  12  18
HETATM   18  O   UNK N   1      36.450  14.905   9.673  0.00  0.00    -0.348 OA
BRANCH  18  19
HETATM   19  C   UNK N   1      35.269  15.553   9.192  0.00  0.00     0.292 C 
HETATM   20  C   UNK N   1      35.201  17.070   9.485  0.00  0.00     0.204 C 
HETATM   21  C   UNK N   1      34.038  17.717   8.653  0.00  0.00     0.183 C 
HETATM   22  C   UNK N   1      32.977  16.652   8.272  0.00  0.00     0.187 C 
HETATM   23  C   UNK N   1      33.707  15.537   7.455  0.00  0.00     0.180 C 
HETATM   24  O   UNK N   1      31.916  17.252   7.537  0.00  0.00    -0.346 OA
HETATM   25  C   UNK N   1      33.598  15.939   5.997  0.00  0.00     0.206 C 
HETATM   26  O   UNK N   1      35.078  15.368   7.797  0.00  0.00    -0.348 OA
HETATM   27  O   UNK N   1      32.248  15.978   5.565  0.00  0.00    -0.354 OA
HETATM   28  C   UNK N   1      31.340  16.344   6.605  0.00  0.00     0.301 C 
BRANCH  20  29
HETATM   29  O   UNK N   1      34.973  17.249  10.852  0.00  0.00    -0.388 OA
HETATM   30  H   UNK N   1      34.897  16.754  11.682  0.00  0.00     0.210 HD
ENDBRANCH  20  29
BRANCH  21  31
HETATM   31  O   UNK N   1      34.562  18.261   7.476  0.00  0.00    -0.390 OA
HETATM   32  H   UNK N   1      34.985  18.423   6.617  0.00  0.00     0.210 HD
ENDBRANCH  21  31
BRANCH  28  33
HETATM   33  C   UNK N   1      30.152  17.006   5.991  0.00  0.00     0.037 A 
HETATM   34  C   UNK N   1      29.887  17.156   4.631  0.00  0.00     0.020 A 
HETATM   35  C   UNK N   1      28.672  17.852   4.379  0.00  0.00     0.008 A 
HETATM   36  C   UNK N   1      27.987  18.243   5.539  0.00  0.00     0.050 A 
HETATM   37  S   UNK N   1      28.907  17.714   6.814  0.00  0.00    -0.102 SA
ENDBRANCH  28  33
ENDBRANCH  18  19
ENDBRANCH  12  18
BRANCH  10  38
HETATM   38  C   UNK N   1      36.056   9.448  11.613  0.00  0.00    -0.043 A 
HETATM   39  C   UNK N   1      36.562   8.571  12.579  0.00  0.00     0.047 A 
HETATM   40  C   UNK N   1      36.008   7.292  12.765  0.00  0.00     0.104 A 
HETATM   41  C   UNK N   1      34.893   6.906  12.006  0.00  0.00     0.132 A 
HETATM   42  C   UNK N   1      34.360   7.773  11.046  0.00  0.00     0.104 A 
HETATM   43  C   UNK N   1      34.958   9.026  10.848  0.00  0.00     0.047 A 
BRANCH  40  44
HETATM   44  O   UNK N   1      36.517   6.433  13.680  0.00  0.00    -0.353 OA
HETATM   45  C   UNK N   1      37.294   6.839  14.743  0.00  0.00     0.210 C 
ENDBRANCH  40  44
BRANCH  41  46
HETATM   46  O   UNK N   1      34.327   5.703  12.211  0.00  0.00    -0.356 OA
HETATM   47  H   UNK N   1      34.634   4.938  11.766  0.00  0.00     0.218 HD
ENDBRANCH  41  46
BRANCH  42  48
HETATM   48  O   UNK N   1      33.257   7.401  10.351  0.00  0.00    -0.353 OA
HETATM   49  C   UNK N   1      32.212   8.255  10.075  0.00  0.00     0.210 C 
ENDBRANCH  42  48
ENDBRANCH  10  38
TORSDOF 9
ENDMDL
MODEL 8
REMARK VINA RESULT:      -7.7      7.087     11.506
REMARK  9 active torsions:
REMARK  status: ('A' for Active; 'I' for Inactive)
REMARK    1  A    between atoms: C_23  and  C_13 
REMARK    2  A    between atoms: O_37  and  C_19 
REMARK    3  A    between atoms: O_38  and  C_20 
REMARK    4  A    between atoms: C_31  and  C_22 
REMARK    5  A    between atoms: O_33  and  C_25 
REMARK    6  A    between atoms: C_26  and  O_34 
REMARK    7  A    between atoms: C_27  and  O_35 
REMARK    8  A    between atoms: C_28  and  O_44 
REMARK    9  A    between atoms: C_32  and  O_44 
ROOT
HETATM    1  C   UNK N   1      35.478  13.413   5.401  0.00  0.00     0.048 A 
HETATM    2  C   UNK N   1      33.990  15.186   3.779  0.00  0.00     0.050 A 
HETATM    3  C   UNK N   1      33.851  18.238   7.816  0.00  0.00     0.187 C 
HETATM    4  C   UNK N   1      35.865  12.771   1.912  0.00  0.00     0.352 A 
HETATM    5  C   UNK N   1      34.706  14.419   6.022  0.00  0.00    -0.037 A 
HETATM    6  C   UNK N   1      33.938  15.330   5.185  0.00  0.00    -0.019 A 
HETATM    7  C   UNK N   1      34.103  16.976   6.988  0.00  0.00     0.058 C 
HETATM    8  C   UNK N   1      35.467  13.323   4.021  0.00  0.00     0.105 A 
HETATM    9  C   UNK N   1      34.772  14.159   3.248  0.00  0.00     0.105 A 
HETATM   10  C   UNK N   1      34.910  14.668   7.534  0.00  0.00     0.066 C 
HETATM   11  C   UNK N   1      34.040  15.849   8.024  0.00  0.00     0.107 C 
HETATM   12  C   UNK N   1      33.205  16.521   5.799  0.00  0.00     0.165 C 
HETATM   13  C   UNK N   1      34.414  16.621   9.243  0.00  0.00     0.264 C 
HETATM   14  O   UNK N   1      34.561  16.141  10.353  0.00  0.00    -0.265 OA
HETATM   15  O   UNK N   1      34.327  17.937   9.064  0.00  0.00    -0.321 OA
HETATM   16  O   UNK N   1      36.138  12.467   3.248  0.00  0.00    -0.323 OA
HETATM   17  O   UNK N   1      34.983  13.859   1.971  0.00  0.00    -0.323 OA
ENDROOT
BRANCH  12  18
HETATM   18  O   UNK N   1      32.896  17.536   4.830  0.00  0.00    -0.348 OA
BRANCH  18  19
HETATM   19  C   UNK N   1      31.504  17.535   4.500  0.00  0.00     0.292 C 
HETATM   20  C   UNK N   1      31.122  16.614   3.318  0.00  0.00     0.204 C 
HETATM   21  C   UNK N   1      29.562  16.455   3.254  0.00  0.00     0.183 C 
HETATM   22  C   UNK N   1      28.859  17.651   3.949  0.00  0.00     0.187 C 
HETATM   23  C   UNK N   1      29.366  17.694   5.428  0.00  0.00     0.180 C 
HETATM   24  O   UNK N   1      27.446  17.509   3.867  0.00  0.00    -0.346 OA
HETATM   25  C   UNK N   1      28.392  16.856   6.233  0.00  0.00     0.206 C 
HETATM   26  O   UNK N   1      30.684  17.188   5.606  0.00  0.00    -0.348 OA
HETATM   27  O   UNK N   1      27.085  17.404   6.208  0.00  0.00    -0.354 OA
HETATM   28  C   UNK N   1      26.791  18.089   4.989  0.00  0.00     0.301 C 
BRANCH  20  29
HETATM   29  O   UNK N   1      31.598  17.187   2.135  0.00  0.00    -0.388 OA
HETATM   30  H   UNK N   1      31.302  17.477   1.258  0.00  0.00     0.210 HD
ENDBRANCH  20  29
BRANCH  21  31
HETATM   31  O   UNK N   1      29.192  15.279   3.914  0.00  0.00    -0.390 OA
HETATM   32  H   UNK N   1      29.143  14.478   4.461  0.00  0.00     0.210 HD
ENDBRANCH  21  31
BRANCH  28  33
HETATM   33  C   UNK N   1      25.320  18.026   4.747  0.00  0.00     0.037 A 
HETATM   34  C   UNK N   1      24.499  19.063   4.307  0.00  0.00     0.020 A 
HETATM   35  C   UNK N   1      23.134  18.675   4.194  0.00  0.00     0.008 A 
HETATM   36  C   UNK N   1      22.889  17.338   4.541  0.00  0.00     0.050 A 
HETATM   37  S   UNK N   1      24.360  16.700   4.970  0.00  0.00    -0.102 SA
ENDBRANCH  28  33
ENDBRANCH  18  19
ENDBRANCH  12  18
BRANCH  10  38
HETATM   38  C   UNK N   1      34.849  13.442   8.452  0.00  0.00    -0.043 A 
HETATM   39  C   UNK N   1      35.821  13.252   9.442  0.00  0.00     0.047 A 
HETATM   40  C   UNK N   1      35.694  12.233  10.403  0.00  0.00     0.104 A 
HETATM   41  C   UNK N   1      34.548  11.424  10.404  0.00  0.00     0.132 A 
HETATM   42  C   UNK N   1      33.556  11.607   9.434  0.00  0.00     0.104 A 
HETATM   43  C   UNK N   1      33.726  12.601   8.459  0.00  0.00     0.047 A 
BRANCH  40  44
HETATM   44  O   UNK N   1      36.649  12.033  11.342  0.00  0.00    -0.353 OA
HETATM   45  C   UNK N   1      36.811  12.850  12.438  0.00  0.00     0.210 C 
ENDBRANCH  40  44
BRANCH  41  46
HETATM   46  O   UNK N   1      34.396  10.479  11.349  0.00  0.00    -0.356 OA
HETATM   47  H   UNK N   1      34.521   9.571  11.153  0.00  0.00     0.218 HD
ENDBRANCH  41  46
BRANCH  42  48
HETATM   48  O   UNK N   1      32.435  10.844   9.475  0.00  0.00    -0.353 OA
HETATM   49  C   UNK N   1      32.313   9.642   8.813  0.00  0.00     0.210 C 
ENDBRANCH  42  48
ENDBRANCH  10  38
TORSDOF 9
ENDMDL
MODEL 9
REMARK VINA RESULT:      -7.6      4.024      9.532
REMARK  9 active torsions:
REMARK  status: ('A' for Active; 'I' for Inactive)
REMARK    1  A    between atoms: C_23  and  C_13 
REMARK    2  A    between atoms: O_37  and  C_19 
REMARK    3  A    between atoms: O_38  and  C_20 
REMARK    4  A    between atoms: C_31  and  C_22 
REMARK    5  A    between atoms: O_33  and  C_25 
REMARK    6  A    between atoms: C_26  and  O_34 
REMARK    7  A    between atoms: C_27  and  O_35 
REMARK    8  A    between atoms: C_28  and  O_44 
REMARK    9  A    between atoms: C_32  and  O_44 
ROOT
HETATM    1  C   UNK N   1      34.880  14.009   8.565  0.00  0.00     0.048 A 
HETATM    2  C   UNK N   1      35.823  14.826  11.101  0.00  0.00     0.050 A 
HETATM    3  C   UNK N   1      38.037  10.281  11.375  0.00  0.00     0.187 C 
HETATM    4  C   UNK N   1      34.826  17.551   9.000  0.00  0.00     0.352 A 
HETATM    5  C   UNK N   1      35.315  13.025   9.480  0.00  0.00    -0.037 A 
HETATM    6  C   UNK N   1      35.798  13.448  10.786  0.00  0.00    -0.019 A 
HETATM    7  C   UNK N   1      37.144  11.405  10.845  0.00  0.00     0.058 C 
HETATM    8  C   UNK N   1      34.920  15.337   8.949  0.00  0.00     0.105 A 
HETATM    9  C   UNK N   1      35.368  15.732  10.141  0.00  0.00     0.105 A 
HETATM   10  C   UNK N   1      35.497  11.578   8.965  0.00  0.00     0.066 C 
HETATM   11  C   UNK N   1      36.046  10.658  10.080  0.00  0.00     0.107 C 
HETATM   12  C   UNK N   1      36.411  12.438  11.754  0.00  0.00     0.165 C 
HETATM   13  C   UNK N   1      36.789   9.411   9.746  0.00  0.00     0.264 C 
HETATM   14  O   UNK N   1      36.349   8.496   9.073  0.00  0.00    -0.265 OA
HETATM   15  O   UNK N   1      37.901   9.269  10.465  0.00  0.00    -0.321 OA
HETATM   16  O   UNK N   1      34.579  16.410   8.232  0.00  0.00    -0.323 OA
HETATM   17  O   UNK N   1      35.326  17.058  10.213  0.00  0.00    -0.323 OA
ENDROOT
BRANCH  12  18
HETATM   18  O   UNK N   1      37.223  13.063  12.761  0.00  0.00    -0.348 OA
BRANCH  18  19
HETATM   19  C   UNK N   1      36.794  12.698  14.077  0.00  0.00     0.292 C 
HETATM   20  C   UNK N   1      36.338  13.883  14.958  0.00  0.00     0.204 C 
HETATM   21  C   UNK N   1      35.607  13.340  16.237  0.00  0.00     0.183 C 
HETATM   22  C   UNK N   1      36.047  11.885  16.545  0.00  0.00     0.187 C 
HETATM   23  C   UNK N   1      35.709  11.020  15.287  0.00  0.00     0.180 C 
HETATM   24  O   UNK N   1      35.397  11.410  17.717  0.00  0.00    -0.346 OA
HETATM   25  C   UNK N   1      34.311  10.477  15.509  0.00  0.00     0.206 C 
HETATM   26  O   UNK N   1      35.748  11.738  14.059  0.00  0.00    -0.348 OA
HETATM   27  O   UNK N   1      34.253   9.631  16.645  0.00  0.00    -0.354 OA
HETATM   28  C   UNK N   1      35.179  10.004  17.667  0.00  0.00     0.301 C 
BRANCH  20  29
HETATM   29  O   UNK N   1      37.464  14.625  15.325  0.00  0.00    -0.388 OA
HETATM   30  H   UNK N   1      37.846  15.108  16.074  0.00  0.00     0.210 HD
ENDBRANCH  20  29
BRANCH  21  31
HETATM   31  O   UNK N   1      34.226  13.348  16.016  0.00  0.00    -0.390 OA
HETATM   32  H   UNK N   1      33.267  13.198  16.027  0.00  0.00     0.210 HD
ENDBRANCH  21  31
BRANCH  28  33
HETATM   33  C   UNK N   1      34.632   9.575  18.987  0.00  0.00     0.037 A 
HETATM   34  C   UNK N   1      33.500   8.793  19.210  0.00  0.00     0.020 A 
HETATM   35  C   UNK N   1      33.241   8.578  20.593  0.00  0.00     0.008 A 
HETATM   36  C   UNK N   1      34.170   9.189  21.449  0.00  0.00     0.050 A 
HETATM   37  S   UNK N   1      35.260   9.960  20.465  0.00  0.00    -0.102 SA
ENDBRANCH  28  33
ENDBRANCH  18  19
ENDBRANCH  12  18
BRANCH  10  38
HETATM   38  C   UNK N   1      34.325  10.967   8.190  0.00  0.00    -0.043 A 
HETATM   39  C   UNK N   1      34.445  10.707   6.819  0.00  0.00     0.047 A 
HETATM   40  C   UNK N   1      33.453   9.994   6.122  0.00  0.00     0.104 A 
HETATM   41  C   UNK N   1      32.347   9.487   6.822  0.00  0.00     0.132 A 
HETATM   42  C   UNK N   1      32.215   9.721   8.195  0.00  0.00     0.104 A 
HETATM   43  C   UNK N   1      33.195  10.473   8.859  0.00  0.00     0.047 A 
BRANCH  40  44
HETATM   44  O   UNK N   1      33.556   9.768   4.791  0.00  0.00    -0.353 OA
HETATM   45  C   UNK N   1      33.334  10.742   3.843  0.00  0.00     0.210 C 
ENDBRANCH  40  44
BRANCH  41  46
HETATM   46  O   UNK N   1      31.418   8.763   6.173  0.00  0.00    -0.356 OA
HETATM   47  H   UNK N   1      31.253   7.868   6.398  0.00  0.00     0.218 HD
ENDBRANCH  41  46
BRANCH  42  48
HETATM   48  O   UNK N   1      31.162   9.189   8.864  0.00  0.00    -0.353 OA
HETATM   49  C   UNK N   1      31.215   7.977   9.517  0.00  0.00     0.210 C 
ENDBRANCH  42  48
ENDBRANCH  10  38
TORSDOF 9
ENDMDL
