REMARK  15 active torsions:
REMARK  status: ('A' for Active; 'I' for Inactive)
REMARK    1  A    between atoms: C_8  and  O_1 
REMARK    2  A    between atoms: C_15  and  O_3 
REMARK    3  A    between atoms: O_4  and  C_25 
REMARK    4  A    between atoms: C_6  and  C_12 
REMARK    5  A    between atoms: C_7  and  C_11 
REMARK    6  A    between atoms: C_11  and  C_14 
REMARK    7  A    between atoms: C_13  and  C_15 
REMARK    8  A    between atoms: C_15  and  C_16 
REMARK    9  A    between atoms: C_16  and  C_17 
REMARK   10  A    between atoms: C_17  and  C_19 
REMARK   11  A    between atoms: C_18  and  C_20 
REMARK   12  A    between atoms: C_19  and  C_21 
REMARK   13  A    between atoms: C_20  and  C_22 
REMARK   14  A    between atoms: C_22  and  C_23 
REMARK   15  A    between atoms: C_23  and  C_25 
ROOT
HETATM    1  O   UNK N   1       7.230  -5.889   0.225  0.00  0.00    -0.297 OA
HETATM    2  C   UNK N   1       7.722  -2.464  -0.169  0.00  0.00     0.048 C 
HETATM    3  C   UNK N   1       6.761  -3.549   0.265  0.00  0.00     0.069 C 
HETATM    4  C   UNK N   1       9.095  -2.935   0.289  0.00  0.00     0.133 C 
HETATM    5  C   UNK N   1       9.089  -4.426  -0.002  0.00  0.00     0.111 C 
HETATM    6  C   UNK N   1       7.644  -4.743   0.149  0.00  0.00     0.134 C 
ENDROOT
BRANCH   2   7
HETATM    7  C   UNK N   1       7.347  -1.099   0.314  0.00  0.00    -0.020 C 
HETATM    8  C   UNK N   1       8.029  -0.057  -0.149  0.00  0.00     0.001 C 
BRANCH   8   9
HETATM    9  C   UNK N   1       7.771   1.343   0.282  0.00  0.00     0.140 C 
BRANCH   9  10
HETATM   10  O   UNK N   1       6.483   1.736  -0.090  0.00  0.00    -0.392 OA
HETATM   11  H   UNK N   1       6.273   2.647  -0.348  0.00  0.00     0.210 HD
ENDBRANCH   9  10
BRANCH   9  12
HETATM   12  C   UNK N   1       8.797   2.187  -0.442  0.00  0.00     0.036 C 
BRANCH  12  13
HETATM   13  C   UNK N   1       8.995   3.538   0.204  0.00  0.00     0.003 C 
BRANCH  13  14
HETATM   14  C   UNK N   1      10.388   3.999  -0.166  0.00  0.00    -0.000 C 
BRANCH  14  15
HETATM   15  C   UNK N   1      10.636   5.407   0.320  0.00  0.00    -0.005 C 
HETATM   16  C   UNK N   1      12.069   5.785   0.009  0.00  0.00     0.005 C 
ENDBRANCH  14  15
ENDBRANCH  13  14
ENDBRANCH  12  13
ENDBRANCH   9  12
ENDBRANCH   8   9
ENDBRANCH   2   7
BRANCH   3  17
HETATM   17  C   UNK N   1       5.609  -3.578  -0.723  0.00  0.00     0.040 C 
BRANCH  17  18
HETATM   18  C   UNK N   1       4.345  -3.957  -0.021  0.00  0.00    -0.030 C 
HETATM   19  C   UNK N   1       3.377  -3.063   0.213  0.00  0.00    -0.031 C 
BRANCH  19  20
HETATM   20  C   UNK N   1       3.514  -1.622  -0.171  0.00  0.00     0.027 C 
BRANCH  20  21
HETATM   21  C   UNK N   1       2.223  -0.891   0.125  0.00  0.00     0.014 C 
BRANCH  21  22
HETATM   22  C   UNK N   1       2.424   0.604  -0.070  0.00  0.00     0.110 C 
BRANCH  22  23
HETATM   23  C   UNK N   1       1.136   1.373  -0.004  0.00  0.00     0.139 C 
HETATM   24  O   UNK N   1       0.067   0.801   0.132  0.00  0.00    -0.650 OA
BRANCH  23  25
HETATM   25  O   UNK N   1       1.165   2.716  -0.105  0.00  0.00    -0.776 OA
HETATM   26  H   UNK N   1       1.984   3.165  -0.175  0.00  0.00     0.167 HD
ENDBRANCH  23  25
ENDBRANCH  22  23
ENDBRANCH  21  22
ENDBRANCH  20  21
ENDBRANCH  19  20
ENDBRANCH  17  18
ENDBRANCH   3  17
BRANCH   4  27
HETATM   27  O   UNK N   1      10.113  -2.293  -0.416  0.00  0.00    -0.394 OA
HETATM   28  H   UNK N   1      10.854  -2.683  -0.907  0.00  0.00     0.210 HD
ENDBRANCH   4  27
TORSDOF 15
