MODEL 1
REMARK VINA RESULT:      -6.0      0.000      0.000
REMARK  8 active torsions:
REMARK  status: ('A' for Active; 'I' for Inactive)
REMARK    1  A    between atoms: C_6  and  C_5 
REMARK    2  A    between atoms: C_10  and  C_5 
REMARK    3  A    between atoms: O_13  and  C_7 
REMARK    4  A    between atoms: O_14  and  C_8 
REMARK    5  A    between atoms: C_10  and  C_9 
REMARK    6  A    between atoms: O_16  and  C_9 
REMARK    7  A    between atoms: C_10  and  N_12 
REMARK    8  A    between atoms: N_12  and  N_11 
ROOT
HETATM    1  C   UNK N   1      35.268  12.652  15.458  0.00  0.00     0.082 C 
ENDROOT
BRANCH   1   2
HETATM    2  C   UNK N   1      35.358  12.262  16.908  0.00  0.00    -0.052 A 
HETATM    3  C   UNK N   1      35.807  10.973  17.207  0.00  0.00     0.010 A 
HETATM    4  C   UNK N   1      35.949  10.564  18.534  0.00  0.00     0.040 A 
HETATM    5  C   UNK N   1      35.637  11.440  19.574  0.00  0.00     0.098 A 
HETATM    6  C   UNK N   1      35.171  12.732  19.283  0.00  0.00     0.099 A 
HETATM    7  C   UNK N   1      35.034  13.142  17.952  0.00  0.00     0.046 A 
BRANCH   5   8
HETATM    8  O   UNK N   1      35.788  11.041  20.847  0.00  0.00    -0.358 OA
HETATM    9  H   UNK N   1      36.645  10.972  21.220  0.00  0.00     0.217 HD
ENDBRANCH   5   8
BRANCH   6  10
HETATM   10  O   UNK N   1      34.861  13.580  20.279  0.00  0.00    -0.358 OA
HETATM   11  H   UNK N   1      34.749  13.258  21.152  0.00  0.00     0.217 HD
ENDBRANCH   6  10
ENDBRANCH   1   2
BRANCH   1  12
HETATM   12  C   UNK N   1      36.551  13.074  14.716  0.00  0.00     0.130 C 
HETATM   13  C   UNK N   1      37.438  11.846  14.507  0.00  0.00     0.052 C 
BRANCH  12  14
HETATM   14  C   UNK N   1      36.162  13.629  13.354  0.00  0.00     0.170 C 
HETATM   15  O   UNK N   1      34.997  13.898  13.097  0.00  0.00    -0.648 OA
BRANCH  14  16
HETATM   16  O   UNK N   1      37.100  13.810  12.404  0.00  0.00    -0.774 OA
HETATM   17  H   UNK N   1      37.980  13.509  12.513  0.00  0.00     0.167 HD
ENDBRANCH  14  16
ENDBRANCH  12  14
BRANCH  12  18
HETATM   18  N   UNK N   1      37.246  14.093  15.516  0.00  0.00    -0.322 N 
HETATM   19  H   UNK N   1      37.684  13.925  16.421  0.00  0.00     0.181 HD
BRANCH  18  20
HETATM   20  N   UNK N   1      37.218  15.332  14.851  0.00  0.00    -0.348 N 
HETATM   21  H   UNK N   1      37.942  16.035  14.996  0.00  0.00     0.176 HD
HETATM   22  H   UNK N   1      36.453  15.533  14.208  0.00  0.00     0.176 HD
ENDBRANCH  18  20
ENDBRANCH  12  18
ENDBRANCH   1  12
TORSDOF 8
ENDMDL
MODEL 2
REMARK VINA RESULT:      -5.6      9.396     11.012
REMARK  8 active torsions:
REMARK  status: ('A' for Active; 'I' for Inactive)
REMARK    1  A    between atoms: C_6  and  C_5 
REMARK    2  A    between atoms: C_10  and  C_5 
REMARK    3  A    between atoms: O_13  and  C_7 
REMARK    4  A    between atoms: O_14  and  C_8 
REMARK    5  A    between atoms: C_10  and  C_9 
REMARK    6  A    between atoms: O_16  and  C_9 
REMARK    7  A    between atoms: C_10  and  N_12 
REMARK    8  A    between atoms: N_12  and  N_11 
ROOT
HETATM    1  C   UNK N   1      32.694  17.578   7.419  0.00  0.00     0.082 C 
ENDROOT
BRANCH   1   2
HETATM    2  C   UNK N   1      31.278  17.702   7.907  0.00  0.00    -0.052 A 
HETATM    3  C   UNK N   1      31.041  18.527   9.011  0.00  0.00     0.010 A 
HETATM    4  C   UNK N   1      29.743  18.713   9.489  0.00  0.00     0.040 A 
HETATM    5  C   UNK N   1      28.670  18.070   8.870  0.00  0.00     0.098 A 
HETATM    6  C   UNK N   1      28.899  17.228   7.771  0.00  0.00     0.099 A 
HETATM    7  C   UNK N   1      30.201  17.047   7.290  0.00  0.00     0.046 A 
BRANCH   5   8
HETATM    8  O   UNK N   1      27.424  18.266   9.330  0.00  0.00    -0.358 OA
HETATM    9  H   UNK N   1      27.272  18.850  10.047  0.00  0.00     0.217 HD
ENDBRANCH   5   8
BRANCH   6  10
HETATM   10  O   UNK N   1      27.872  16.599   7.174  0.00  0.00    -0.358 OA
HETATM   11  H   UNK N   1      27.526  16.928   6.367  0.00  0.00     0.217 HD
ENDBRANCH   6  10
ENDBRANCH   1   2
BRANCH   1  12
HETATM   12  C   UNK N   1      33.715  16.803   8.273  0.00  0.00     0.130 C 
HETATM   13  C   UNK N   1      34.489  15.835   7.377  0.00  0.00     0.052 C 
BRANCH  12  14
HETATM   14  C   UNK N   1      34.697  17.796   8.875  0.00  0.00     0.170 C 
HETATM   15  O   UNK N   1      35.302  17.532   9.905  0.00  0.00    -0.648 OA
BRANCH  14  16
HETATM   16  O   UNK N   1      34.896  18.992   8.289  0.00  0.00    -0.774 OA
HETATM   17  H   UNK N   1      34.522  19.780   8.631  0.00  0.00     0.167 HD
ENDBRANCH  14  16
ENDBRANCH  12  14
BRANCH  12  18
HETATM   18  N   UNK N   1      32.994  16.077   9.330  0.00  0.00    -0.322 N 
HETATM   19  H   UNK N   1      32.050  16.296   9.646  0.00  0.00     0.181 HD
BRANCH  18  20
HETATM   20  N   UNK N   1      33.795  15.041   9.839  0.00  0.00    -0.348 N 
HETATM   21  H   UNK N   1      34.787  15.175  10.035  0.00  0.00     0.176 HD
HETATM   22  H   UNK N   1      33.375  14.129  10.015  0.00  0.00     0.176 HD
ENDBRANCH  18  20
ENDBRANCH  12  18
ENDBRANCH   1  12
TORSDOF 8
ENDMDL
MODEL 3
REMARK VINA RESULT:      -5.6      9.762     11.297
REMARK  8 active torsions:
REMARK  status: ('A' for Active; 'I' for Inactive)
REMARK    1  A    between atoms: C_6  and  C_5 
REMARK    2  A    between atoms: C_10  and  C_5 
REMARK    3  A    between atoms: O_13  and  C_7 
REMARK    4  A    between atoms: O_14  and  C_8 
REMARK    5  A    between atoms: C_10  and  C_9 
REMARK    6  A    between atoms: O_16  and  C_9 
REMARK    7  A    between atoms: C_10  and  N_12 
REMARK    8  A    between atoms: N_12  and  N_11 
ROOT
HETATM    1  C   UNK N   1      32.274  17.908   8.366  0.00  0.00     0.082 C 
ENDROOT
BRANCH   1   2
HETATM    2  C   UNK N   1      30.824  17.692   8.035  0.00  0.00    -0.052 A 
HETATM    3  C   UNK N   1      30.513  17.223   6.755  0.00  0.00     0.010 A 
HETATM    4  C   UNK N   1      29.188  16.966   6.399  0.00  0.00     0.040 A 
HETATM    5  C   UNK N   1      28.161  17.181   7.319  0.00  0.00     0.098 A 
HETATM    6  C   UNK N   1      28.462  17.667   8.601  0.00  0.00     0.099 A 
HETATM    7  C   UNK N   1      29.792  17.919   8.958  0.00  0.00     0.046 A 
BRANCH   5   8
HETATM    8  O   UNK N   1      26.891  16.919   6.971  0.00  0.00    -0.358 OA
HETATM    9  H   UNK N   1      26.690  16.163   6.456  0.00  0.00     0.217 HD
ENDBRANCH   5   8
BRANCH   6  10
HETATM   10  O   UNK N   1      27.478  17.884   9.492  0.00  0.00    -0.358 OA
HETATM   11  H   UNK N   1      27.599  17.648  10.391  0.00  0.00     0.217 HD
ENDBRANCH   6  10
ENDBRANCH   1   2
BRANCH   1  12
HETATM   12  C   UNK N   1      33.197  16.684   8.521  0.00  0.00     0.130 C 
HETATM   13  C   UNK N   1      32.371  15.407   8.350  0.00  0.00     0.052 C 
BRANCH  12  14
HETATM   14  C   UNK N   1      34.251  16.729   7.426  0.00  0.00     0.170 C 
HETATM   15  O   UNK N   1      34.928  15.743   7.168  0.00  0.00    -0.648 OA
BRANCH  14  16
HETATM   16  O   UNK N   1      34.467  17.868   6.740  0.00  0.00    -0.774 OA
HETATM   17  H   UNK N   1      35.038  18.538   7.060  0.00  0.00     0.167 HD
ENDBRANCH  14  16
ENDBRANCH  12  14
BRANCH  12  18
HETATM   18  N   UNK N   1      33.823  16.729   9.851  0.00  0.00    -0.322 N 
HETATM   19  H   UNK N   1      33.429  16.314  10.695  0.00  0.00     0.181 HD
BRANCH  18  20
HETATM   20  N   UNK N   1      35.042  17.426   9.788  0.00  0.00    -0.348 N 
HETATM   21  H   UNK N   1      35.880  17.087  10.261  0.00  0.00     0.176 HD
HETATM   22  H   UNK N   1      35.091  18.294   9.256  0.00  0.00     0.176 HD
ENDBRANCH  18  20
ENDBRANCH  12  18
ENDBRANCH   1  12
TORSDOF 8
ENDMDL
MODEL 4
REMARK VINA RESULT:      -5.5      1.361      1.613
REMARK  8 active torsions:
REMARK  status: ('A' for Active; 'I' for Inactive)
REMARK    1  A    between atoms: C_6  and  C_5 
REMARK    2  A    between atoms: C_10  and  C_5 
REMARK    3  A    between atoms: O_13  and  C_7 
REMARK    4  A    between atoms: O_14  and  C_8 
REMARK    5  A    between atoms: C_10  and  C_9 
REMARK    6  A    between atoms: O_16  and  C_9 
REMARK    7  A    between atoms: C_10  and  N_12 
REMARK    8  A    between atoms: N_12  and  N_11 
ROOT
HETATM    1  C   UNK N   1      35.004  12.111  14.760  0.00  0.00     0.082 C 
ENDROOT
BRANCH   1   2
HETATM    2  C   UNK N   1      35.103  12.343  16.241  0.00  0.00    -0.052 A 
HETATM    3  C   UNK N   1      35.264  11.225  17.065  0.00  0.00     0.010 A 
HETATM    4  C   UNK N   1      35.400  11.377  18.445  0.00  0.00     0.040 A 
HETATM    5  C   UNK N   1      35.372  12.650  19.016  0.00  0.00     0.098 A 
HETATM    6  C   UNK N   1      35.196  13.778  18.199  0.00  0.00     0.099 A 
HETATM    7  C   UNK N   1      35.064  13.624  16.814  0.00  0.00     0.046 A 
BRANCH   5   8
HETATM    8  O   UNK N   1      35.517  12.787  20.344  0.00  0.00    -0.358 OA
HETATM    9  H   UNK N   1      34.983  13.395  20.816  0.00  0.00     0.217 HD
ENDBRANCH   5   8
BRANCH   6  10
HETATM   10  O   UNK N   1      35.160  15.008  18.741  0.00  0.00    -0.358 OA
HETATM   11  H   UNK N   1      35.925  15.549  18.728  0.00  0.00     0.217 HD
ENDBRANCH   6  10
ENDBRANCH   1   2
BRANCH   1  12
HETATM   12  C   UNK N   1      36.148  12.594  13.848  0.00  0.00     0.130 C 
HETATM   13  C   UNK N   1      36.371  11.571  12.734  0.00  0.00     0.052 C 
BRANCH  12  14
HETATM   14  C   UNK N   1      35.739  13.916  13.216  0.00  0.00     0.170 C 
HETATM   15  O   UNK N   1      34.700  14.009  12.578  0.00  0.00    -0.648 OA
BRANCH  14  16
HETATM   16  O   UNK N   1      36.532  14.999  13.336  0.00  0.00    -0.774 OA
HETATM   17  H   UNK N   1      36.888  15.437  12.589  0.00  0.00     0.167 HD
ENDBRANCH  14  16
ENDBRANCH  12  14
BRANCH  12  18
HETATM   18  N   UNK N   1      37.363  12.759  14.661  0.00  0.00    -0.322 N 
HETATM   19  H   UNK N   1      37.498  13.480  15.368  0.00  0.00     0.181 HD
BRANCH  18  20
HETATM   20  N   UNK N   1      38.310  11.777  14.320  0.00  0.00    -0.348 N 
HETATM   21  H   UNK N   1      39.310  11.974  14.318  0.00  0.00     0.176 HD
HETATM   22  H   UNK N   1      37.988  10.843  14.066  0.00  0.00     0.176 HD
ENDBRANCH  18  20
ENDBRANCH  12  18
ENDBRANCH   1  12
TORSDOF 8
ENDMDL
MODEL 5
REMARK VINA RESULT:      -5.5      8.621     11.152
REMARK  8 active torsions:
REMARK  status: ('A' for Active; 'I' for Inactive)
REMARK    1  A    between atoms: C_6  and  C_5 
REMARK    2  A    between atoms: C_10  and  C_5 
REMARK    3  A    between atoms: O_13  and  C_7 
REMARK    4  A    between atoms: O_14  and  C_8 
REMARK    5  A    between atoms: C_10  and  C_9 
REMARK    6  A    between atoms: O_16  and  C_9 
REMARK    7  A    between atoms: C_10  and  N_12 
REMARK    8  A    between atoms: N_12  and  N_11 
ROOT
HETATM    1  C   UNK N   1      32.339  17.757   8.285  0.00  0.00     0.082 C 
ENDROOT
BRANCH   1   2
HETATM    2  C   UNK N   1      30.873  17.587   7.995  0.00  0.00    -0.052 A 
HETATM    3  C   UNK N   1      30.517  16.958   6.799  0.00  0.00     0.010 A 
HETATM    4  C   UNK N   1      29.174  16.736   6.490  0.00  0.00     0.040 A 
HETATM    5  C   UNK N   1      28.175  17.147   7.373  0.00  0.00     0.098 A 
HETATM    6  C   UNK N   1      28.522  17.793   8.569  0.00  0.00     0.099 A 
HETATM    7  C   UNK N   1      29.870  18.010   8.880  0.00  0.00     0.046 A 
BRANCH   5   8
HETATM    8  O   UNK N   1      26.886  16.917   7.072  0.00  0.00    -0.358 OA
HETATM    9  H   UNK N   1      26.361  17.597   6.700  0.00  0.00     0.217 HD
ENDBRANCH   5   8
BRANCH   6  10
HETATM   10  O   UNK N   1      27.566  18.199   9.423  0.00  0.00    -0.358 OA
HETATM   11  H   UNK N   1      27.793  18.714  10.172  0.00  0.00     0.217 HD
ENDBRANCH   6  10
ENDBRANCH   1   2
BRANCH   1  12
HETATM   12  C   UNK N   1      33.154  16.538   8.755  0.00  0.00     0.130 C 
HETATM   13  C   UNK N   1      33.665  15.772   7.534  0.00  0.00     0.052 C 
BRANCH  12  14
HETATM   14  C   UNK N   1      34.352  17.034   9.551  0.00  0.00     0.170 C 
HETATM   15  O   UNK N   1      35.063  17.930   9.119  0.00  0.00    -0.648 OA
BRANCH  14  16
HETATM   16  O   UNK N   1      34.657  16.473  10.738  0.00  0.00    -0.774 OA
HETATM   17  H   UNK N   1      35.327  16.821  11.293  0.00  0.00     0.167 HD
ENDBRANCH  14  16
ENDBRANCH  12  14
BRANCH  12  18
HETATM   18  N   UNK N   1      32.293  15.684   9.587  0.00  0.00    -0.322 N 
HETATM   19  H   UNK N   1      31.449  15.998  10.065  0.00  0.00     0.181 HD
BRANCH  18  20
HETATM   20  N   UNK N   1      32.803  14.375   9.627  0.00  0.00    -0.348 N 
HETATM   21  H   UNK N   1      32.801  13.824  10.485  0.00  0.00     0.176 HD
HETATM   22  H   UNK N   1      33.186  13.965   8.776  0.00  0.00     0.176 HD
ENDBRANCH  18  20
ENDBRANCH  12  18
ENDBRANCH   1  12
TORSDOF 8
ENDMDL
MODEL 6
REMARK VINA RESULT:      -5.2     11.741     12.797
REMARK  8 active torsions:
REMARK  status: ('A' for Active; 'I' for Inactive)
REMARK    1  A    between atoms: C_6  and  C_5 
REMARK    2  A    between atoms: C_10  and  C_5 
REMARK    3  A    between atoms: O_13  and  C_7 
REMARK    4  A    between atoms: O_14  and  C_8 
REMARK    5  A    between atoms: C_10  and  C_9 
REMARK    6  A    between atoms: O_16  and  C_9 
REMARK    7  A    between atoms: C_10  and  N_12 
REMARK    8  A    between atoms: N_12  and  N_11 
ROOT
HETATM    1  C   UNK N   1      31.172  15.917   5.742  0.00  0.00     0.082 C 
ENDROOT
BRANCH   1   2
HETATM    2  C   UNK N   1      30.235  16.594   6.703  0.00  0.00    -0.052 A 
HETATM    3  C   UNK N   1      28.864  16.498   6.450  0.00  0.00     0.010 A 
HETATM    4  C   UNK N   1      27.941  17.073   7.325  0.00  0.00     0.040 A 
HETATM    5  C   UNK N   1      28.383  17.755   8.460  0.00  0.00     0.098 A 
HETATM    6  C   UNK N   1      29.759  17.870   8.714  0.00  0.00     0.099 A 
HETATM    7  C   UNK N   1      30.682  17.288   7.838  0.00  0.00     0.046 A 
BRANCH   5   8
HETATM    8  O   UNK N   1      27.487  18.294   9.302  0.00  0.00    -0.358 OA
HETATM    9  H   UNK N   1      26.713  18.701   8.969  0.00  0.00     0.217 HD
ENDBRANCH   5   8
BRANCH   6  10
HETATM   10  O   UNK N   1      30.194  18.531   9.801  0.00  0.00    -0.358 OA
HETATM   11  H   UNK N   1      30.552  19.393   9.714  0.00  0.00     0.217 HD
ENDBRANCH   6  10
ENDBRANCH   1   2
BRANCH   1  12
HETATM   12  C   UNK N   1      31.823  16.749   4.620  0.00  0.00     0.130 C 
HETATM   13  C   UNK N   1      33.032  17.495   5.185  0.00  0.00     0.052 C 
BRANCH  12  14
HETATM   14  C   UNK N   1      32.304  15.802   3.531  0.00  0.00     0.170 C 
HETATM   15  O   UNK N   1      32.005  14.616   3.556  0.00  0.00    -0.648 OA
BRANCH  14  16
HETATM   16  O   UNK N   1      33.086  16.258   2.534  0.00  0.00    -0.774 OA
HETATM   17  H   UNK N   1      33.164  15.804   1.718  0.00  0.00     0.167 HD
ENDBRANCH  14  16
ENDBRANCH  12  14
BRANCH  12  18
HETATM   18  N   UNK N   1      30.825  17.690   4.089  0.00  0.00    -0.322 N 
HETATM   19  H   UNK N   1      30.677  18.637   4.434  0.00  0.00     0.181 HD
BRANCH  18  20
HETATM   20  N   UNK N   1      30.107  17.093   3.039  0.00  0.00    -0.348 N 
HETATM   21  H   UNK N   1      29.088  17.062   3.035  0.00  0.00     0.176 HD
HETATM   22  H   UNK N   1      30.618  16.678   2.260  0.00  0.00     0.176 HD
ENDBRANCH  18  20
ENDBRANCH  12  18
ENDBRANCH   1  12
TORSDOF 8
ENDMDL
MODEL 7
REMARK VINA RESULT:      -5.2      7.928     11.940
REMARK  8 active torsions:
REMARK  status: ('A' for Active; 'I' for Inactive)
REMARK    1  A    between atoms: C_6  and  C_5 
REMARK    2  A    between atoms: C_10  and  C_5 
REMARK    3  A    between atoms: O_13  and  C_7 
REMARK    4  A    between atoms: O_14  and  C_8 
REMARK    5  A    between atoms: C_10  and  C_9 
REMARK    6  A    between atoms: O_16  and  C_9 
REMARK    7  A    between atoms: C_10  and  N_12 
REMARK    8  A    between atoms: N_12  and  N_11 
ROOT
HETATM    1  C   UNK N   1      34.186  15.812   7.586  0.00  0.00     0.082 C 
ENDROOT
BRANCH   1   2
HETATM    2  C   UNK N   1      33.515  16.139   6.282  0.00  0.00    -0.052 A 
HETATM    3  C   UNK N   1      33.608  17.454   5.816  0.00  0.00     0.010 A 
HETATM    4  C   UNK N   1      33.038  17.812   4.593  0.00  0.00     0.040 A 
HETATM    5  C   UNK N   1      32.365  16.859   3.827  0.00  0.00     0.098 A 
HETATM    6  C   UNK N   1      32.254  15.540   4.294  0.00  0.00     0.099 A 
HETATM    7  C   UNK N   1      32.830  15.181   5.518  0.00  0.00     0.046 A 
BRANCH   5   8
HETATM    8  O   UNK N   1      31.831  17.211   2.647  0.00  0.00    -0.358 OA
HETATM    9  H   UNK N   1      31.419  18.046   2.546  0.00  0.00     0.217 HD
ENDBRANCH   5   8
BRANCH   6  10
HETATM   10  O   UNK N   1      31.601  14.617   3.567  0.00  0.00    -0.358 OA
HETATM   11  H   UNK N   1      31.868  13.719   3.599  0.00  0.00     0.217 HD
ENDBRANCH   6  10
ENDBRANCH   1   2
BRANCH   1  12
HETATM   12  C   UNK N   1      33.477  16.177   8.904  0.00  0.00     0.130 C 
HETATM   13  C   UNK N   1      31.984  16.370   8.636  0.00  0.00     0.052 C 
BRANCH  12  14
HETATM   14  C   UNK N   1      33.648  15.024   9.882  0.00  0.00     0.170 C 
HETATM   15  O   UNK N   1      34.421  14.107   9.640  0.00  0.00    -0.648 OA
BRANCH  14  16
HETATM   16  O   UNK N   1      32.930  14.990  11.021  0.00  0.00    -0.774 OA
HETATM   17  H   UNK N   1      32.431  15.727  11.315  0.00  0.00     0.167 HD
ENDBRANCH  14  16
ENDBRANCH  12  14
BRANCH  12  18
HETATM   18  N   UNK N   1      34.078  17.408   9.440  0.00  0.00    -0.322 N 
HETATM   19  H   UNK N   1      33.898  18.346   9.084  0.00  0.00     0.181 HD
BRANCH  18  20
HETATM   20  N   UNK N   1      34.936  17.102  10.510  0.00  0.00    -0.348 N 
HETATM   21  H   UNK N   1      34.634  17.182  11.481  0.00  0.00     0.176 HD
HETATM   22  H   UNK N   1      35.887  16.794  10.311  0.00  0.00     0.176 HD
ENDBRANCH  18  20
ENDBRANCH  12  18
ENDBRANCH   1  12
TORSDOF 8
ENDMDL
MODEL 8
REMARK VINA RESULT:      -5.0     10.865     11.884
REMARK  8 active torsions:
REMARK  status: ('A' for Active; 'I' for Inactive)
REMARK    1  A    between atoms: C_6  and  C_5 
REMARK    2  A    between atoms: C_10  and  C_5 
REMARK    3  A    between atoms: O_13  and  C_7 
REMARK    4  A    between atoms: O_14  and  C_8 
REMARK    5  A    between atoms: C_10  and  C_9 
REMARK    6  A    between atoms: O_16  and  C_9 
REMARK    7  A    between atoms: C_10  and  N_12 
REMARK    8  A    between atoms: N_12  and  N_11 
ROOT
HETATM    1  C   UNK N   1      31.593  15.712   6.560  0.00  0.00     0.082 C 
ENDROOT
BRANCH   1   2
HETATM    2  C   UNK N   1      30.559  16.607   7.184  0.00  0.00    -0.052 A 
HETATM    3  C   UNK N   1      29.326  16.724   6.535  0.00  0.00     0.010 A 
HETATM    4  C   UNK N   1      28.311  17.509   7.083  0.00  0.00     0.040 A 
HETATM    5  C   UNK N   1      28.522  18.190   8.283  0.00  0.00     0.098 A 
HETATM    6  C   UNK N   1      29.762  18.091   8.934  0.00  0.00     0.099 A 
HETATM    7  C   UNK N   1      30.777  17.299   8.385  0.00  0.00     0.046 A 
BRANCH   5   8
HETATM    8  O   UNK N   1      27.534  18.933   8.808  0.00  0.00    -0.358 OA
HETATM    9  H   UNK N   1      26.842  19.250   8.263  0.00  0.00     0.217 HD
ENDBRANCH   5   8
BRANCH   6  10
HETATM   10  O   UNK N   1      29.976  18.748  10.086  0.00  0.00    -0.358 OA
HETATM   11  H   UNK N   1      30.655  18.467  10.668  0.00  0.00     0.217 HD
ENDBRANCH   6  10
ENDBRANCH   1   2
BRANCH   1  12
HETATM   12  C   UNK N   1      32.721  16.344   5.722  0.00  0.00     0.130 C 
HETATM   13  C   UNK N   1      32.151  17.503   4.904  0.00  0.00     0.052 C 
BRANCH  12  14
HETATM   14  C   UNK N   1      33.779  16.894   6.668  0.00  0.00     0.170 C 
HETATM   15  O   UNK N   1      34.338  17.956   6.432  0.00  0.00    -0.648 OA
BRANCH  14  16
HETATM   16  O   UNK N   1      34.127  16.202   7.770  0.00  0.00    -0.774 OA
HETATM   17  H   UNK N   1      34.584  16.603   8.483  0.00  0.00     0.167 HD
ENDBRANCH  14  16
ENDBRANCH  12  14
BRANCH  12  18
HETATM   18  N   UNK N   1      33.293  15.313   4.844  0.00  0.00    -0.322 N 
HETATM   19  H   UNK N   1      32.772  14.797   4.135  0.00  0.00     0.181 HD
BRANCH  18  20
HETATM   20  N   UNK N   1      34.660  15.142   5.124  0.00  0.00    -0.348 N 
HETATM   21  H   UNK N   1      35.366  15.785   4.766  0.00  0.00     0.176 HD
HETATM   22  H   UNK N   1      34.954  14.353   5.699  0.00  0.00     0.176 HD
ENDBRANCH  18  20
ENDBRANCH  12  18
ENDBRANCH   1  12
TORSDOF 8
ENDMDL
MODEL 9
REMARK VINA RESULT:      -5.0     22.945     25.296
REMARK  8 active torsions:
REMARK  status: ('A' for Active; 'I' for Inactive)
REMARK    1  A    between atoms: C_6  and  C_5 
REMARK    2  A    between atoms: C_10  and  C_5 
REMARK    3  A    between atoms: O_13  and  C_7 
REMARK    4  A    between atoms: O_14  and  C_8 
REMARK    5  A    between atoms: C_10  and  C_9 
REMARK    6  A    between atoms: O_16  and  C_9 
REMARK    7  A    between atoms: C_10  and  N_12 
REMARK    8  A    between atoms: N_12  and  N_11 
ROOT
HETATM    1  C   UNK N   1      28.153  24.419  -5.551  0.00  0.00     0.082 C 
ENDROOT
BRANCH   1   2
HETATM    2  C   UNK N   1      29.037  23.509  -4.744  0.00  0.00    -0.052 A 
HETATM    3  C   UNK N   1      29.612  22.415  -5.396  0.00  0.00     0.010 A 
HETATM    4  C   UNK N   1      30.472  21.555  -4.711  0.00  0.00     0.040 A 
HETATM    5  C   UNK N   1      30.759  21.779  -3.364  0.00  0.00     0.098 A 
HETATM    6  C   UNK N   1      30.174  22.866  -2.696  0.00  0.00     0.099 A 
HETATM    7  C   UNK N   1      29.316  23.731  -3.386  0.00  0.00     0.046 A 
BRANCH   5   8
HETATM    8  O   UNK N   1      31.597  20.953  -2.717  0.00  0.00    -0.358 OA
HETATM    9  H   UNK N   1      32.523  21.079  -2.778  0.00  0.00     0.217 HD
ENDBRANCH   5   8
BRANCH   6  10
HETATM   10  O   UNK N   1      30.439  23.086  -1.396  0.00  0.00    -0.358 OA
HETATM   11  H   UNK N   1      31.088  22.571  -0.957  0.00  0.00     0.217 HD
ENDBRANCH   6  10
ENDBRANCH   1   2
BRANCH   1  12
HETATM   12  C   UNK N   1      26.628  24.204  -5.517  0.00  0.00     0.130 C 
HETATM   13  C   UNK N   1      26.158  24.163  -4.062  0.00  0.00     0.052 C 
BRANCH  12  14
HETATM   14  C   UNK N   1      25.957  25.380  -6.210  0.00  0.00     0.170 C 
HETATM   15  O   UNK N   1      24.923  25.861  -5.766  0.00  0.00    -0.648 OA
BRANCH  14  16
HETATM   16  O   UNK N   1      26.485  25.894  -7.337  0.00  0.00    -0.774 OA
HETATM   17  H   UNK N   1      25.956  26.317  -7.984  0.00  0.00     0.167 HD
ENDBRANCH  14  16
ENDBRANCH  12  14
BRANCH  12  18
HETATM   18  N   UNK N   1      26.312  22.944  -6.206  0.00  0.00    -0.322 N 
HETATM   19  H   UNK N   1      26.843  22.079  -6.112  0.00  0.00     0.181 HD
BRANCH  18  20
HETATM   20  N   UNK N   1      25.172  23.106  -7.013  0.00  0.00    -0.348 N 
HETATM   21  H   UNK N   1      25.093  22.659  -7.926  0.00  0.00     0.176 HD
HETATM   22  H   UNK N   1      24.405  23.687  -6.678  0.00  0.00     0.176 HD
ENDBRANCH  18  20
ENDBRANCH  12  18
ENDBRANCH   1  12
TORSDOF 8
ENDMDL
