MODEL 1
REMARK VINA RESULT:      -4.9      0.000      0.000
REMARK  5 active torsions:
REMARK  status: ('A' for Active; 'I' for Inactive)
REMARK    1  A    between atoms: C_8  and  C_2 
REMARK    2  A    between atoms: C_12  and  C_5 
REMARK    3  A    between atoms: O_11  and  C_6 
REMARK    4  A    between atoms: O_9  and  C_8 
REMARK    5  A    between atoms: C_12  and  O_13 
ROOT
HETATM    1  C   UNK N   1      21.627  12.901   9.559  0.00  0.00     0.098 A 
HETATM    2  C   UNK N   1      21.701  12.421  10.869  0.00  0.00    -0.008 A 
HETATM    3  N   UNK N   1      22.752  13.213   8.865  0.00  0.00    -0.367 N 
ATOM      4  HN  UNK N   1      22.666  13.559   7.909  1.00  0.00     0.165 HD
HETATM    5  C   UNK N   1      22.979  12.262  11.463  0.00  0.00     0.010 A 
HETATM    6  C   UNK N   1      24.128  12.600  10.721  0.00  0.00     0.096 A 
HETATM    7  C   UNK N   1      23.986  13.077   9.409  0.00  0.00     0.039 A 
HETATM    8  C   UNK N   1      25.184  13.423   8.591  0.00  0.00     0.071 C 
ENDROOT
BRANCH   2   9
HETATM    9  C   UNK N   1      20.390  12.096  11.543  0.00  0.00     0.205 C 
BRANCH   9  10
HETATM   10  O   UNK N   1      19.286  12.731  10.972  0.00  0.00    -0.396 OA
HETATM   11  H   UNK N   1      18.405  12.632  11.363  0.00  0.00     0.209 HD
ENDBRANCH   9  10
ENDBRANCH   2   9
BRANCH   5  12
HETATM   12  C   UNK N   1      23.135  11.707  12.851  0.00  0.00     0.206 C 
BRANCH  12  13
HETATM   13  O   UNK N   1      23.875  12.580  13.648  0.00  0.00    -0.396 OA
HETATM   14  H   UNK N   1      24.517  12.650  14.372  0.00  0.00     0.209 HD
ENDBRANCH  12  13
ENDBRANCH   5  12
BRANCH   6  15
HETATM   15  O   UNK N   1      25.354  12.458  11.259  0.00  0.00    -0.358 OA
HETATM   16  H   UNK N   1      26.110  12.434  10.706  0.00  0.00     0.217 HD
ENDBRANCH   6  15
TORSDOF 5
ENDMDL
MODEL 2
REMARK VINA RESULT:      -4.9      1.706      3.265
REMARK  5 active torsions:
REMARK  status: ('A' for Active; 'I' for Inactive)
REMARK    1  A    between atoms: C_8  and  C_2 
REMARK    2  A    between atoms: C_12  and  C_5 
REMARK    3  A    between atoms: O_11  and  C_6 
REMARK    4  A    between atoms: O_9  and  C_8 
REMARK    5  A    between atoms: C_12  and  O_13 
ROOT
HETATM    1  C   UNK N   1      21.199  12.302  10.430  0.00  0.00     0.098 A 
HETATM    2  C   UNK N   1      22.111  12.466   9.385  0.00  0.00    -0.008 A 
HETATM    3  N   UNK N   1      21.625  12.123  11.707  0.00  0.00    -0.367 N 
ATOM      4  HN  UNK N   1      20.935  12.009  12.449  1.00  0.00     0.165 HD
HETATM    5  C   UNK N   1      23.498  12.444   9.684  0.00  0.00     0.010 A 
HETATM    6  C   UNK N   1      23.910  12.249  11.017  0.00  0.00     0.096 A 
HETATM    7  C   UNK N   1      22.943  12.092  12.021  0.00  0.00     0.039 A 
HETATM    8  C   UNK N   1      23.348  11.905  13.445  0.00  0.00     0.071 C 
ENDROOT
BRANCH   2   9
HETATM    9  C   UNK N   1      21.530  12.668   8.007  0.00  0.00     0.205 C 
BRANCH   9  10
HETATM   10  O   UNK N   1      20.413  13.504   7.980  0.00  0.00    -0.396 OA
HETATM   11  H   UNK N   1      20.487  14.416   7.660  0.00  0.00     0.209 HD
ENDBRANCH   9  10
ENDBRANCH   2   9
BRANCH   5  12
HETATM   12  C   UNK N   1      24.534  12.660   8.617  0.00  0.00     0.206 C 
BRANCH  12  13
HETATM   13  O   UNK N   1      25.302  13.789   8.900  0.00  0.00    -0.396 OA
HETATM   14  H   UNK N   1      25.327  14.642   9.362  0.00  0.00     0.209 HD
ENDBRANCH  12  13
ENDBRANCH   5  12
BRANCH   6  15
HETATM   15  O   UNK N   1      25.219  12.226  11.330  0.00  0.00    -0.358 OA
HETATM   16  H   UNK N   1      25.487  12.160  12.225  0.00  0.00     0.217 HD
ENDBRANCH   6  15
TORSDOF 5
ENDMDL
MODEL 3
REMARK VINA RESULT:      -4.8      1.883      3.021
REMARK  5 active torsions:
REMARK  status: ('A' for Active; 'I' for Inactive)
REMARK    1  A    between atoms: C_8  and  C_2 
REMARK    2  A    between atoms: C_12  and  C_5 
REMARK    3  A    between atoms: O_11  and  C_6 
REMARK    4  A    between atoms: O_9  and  C_8 
REMARK    5  A    between atoms: C_12  and  O_13 
ROOT
HETATM    1  C   UNK N   1      21.228  12.426  11.359  0.00  0.00     0.098 A 
HETATM    2  C   UNK N   1      22.597  12.178  11.483  0.00  0.00    -0.008 A 
HETATM    3  N   UNK N   1      20.717  12.968  10.223  0.00  0.00    -0.367 N 
ATOM      4  HN  UNK N   1      19.713  13.135  10.161  1.00  0.00     0.165 HD
HETATM    5  C   UNK N   1      23.448  12.502  10.395  0.00  0.00     0.010 A 
HETATM    6  C   UNK N   1      22.890  13.070   9.233  0.00  0.00     0.096 A 
HETATM    7  C   UNK N   1      21.506  13.293   9.170  0.00  0.00     0.039 A 
HETATM    8  C   UNK N   1      20.884  13.873   7.945  0.00  0.00     0.071 C 
ENDROOT
BRANCH   2   9
HETATM    9  C   UNK N   1      23.056  11.565  12.783  0.00  0.00     0.205 C 
BRANCH   9  10
HETATM   10  O   UNK N   1      23.803  12.429  13.585  0.00  0.00    -0.396 OA
HETATM   11  H   UNK N   1      24.635  12.135  13.986  0.00  0.00     0.209 HD
ENDBRANCH   9  10
ENDBRANCH   2   9
BRANCH   5  12
HETATM   12  C   UNK N   1      24.923  12.220  10.442  0.00  0.00     0.206 C 
BRANCH  12  13
HETATM   13  O   UNK N   1      25.582  13.178  11.211  0.00  0.00    -0.396 OA
HETATM   14  H   UNK N   1      26.446  13.535  11.474  0.00  0.00     0.209 HD
ENDBRANCH  12  13
ENDBRANCH   5  12
BRANCH   6  15
HETATM   15  O   UNK N   1      23.673  13.386   8.184  0.00  0.00    -0.358 OA
HETATM   16  H   UNK N   1      24.605  13.395   8.278  0.00  0.00     0.217 HD
ENDBRANCH   6  15
TORSDOF 5
ENDMDL
MODEL 4
REMARK VINA RESULT:      -4.8      9.769     11.539
REMARK  5 active torsions:
REMARK  status: ('A' for Active; 'I' for Inactive)
REMARK    1  A    between atoms: C_8  and  C_2 
REMARK    2  A    between atoms: C_12  and  C_5 
REMARK    3  A    between atoms: O_11  and  C_6 
REMARK    4  A    between atoms: O_9  and  C_8 
REMARK    5  A    between atoms: C_12  and  O_13 
ROOT
HETATM    1  C   UNK N   1      22.644  18.856   3.917  0.00  0.00     0.098 A 
HETATM    2  C   UNK N   1      22.312  19.879   3.027  0.00  0.00    -0.008 A 
HETATM    3  N   UNK N   1      21.779  17.837   4.164  0.00  0.00    -0.367 N 
ATOM      4  HN  UNK N   1      22.051  17.103   4.818  1.00  0.00     0.165 HD
HETATM    5  C   UNK N   1      21.051  19.835   2.379  0.00  0.00     0.010 A 
HETATM    6  C   UNK N   1      20.172  18.770   2.661  0.00  0.00     0.096 A 
HETATM    7  C   UNK N   1      20.565  17.772   3.565  0.00  0.00     0.039 A 
HETATM    8  C   UNK N   1      19.665  16.621   3.867  0.00  0.00     0.071 C 
ENDROOT
BRANCH   2   9
HETATM    9  C   UNK N   1      23.350  20.955   2.819  0.00  0.00     0.205 C 
BRANCH   9  10
HETATM   10  O   UNK N   1      24.338  20.619   1.892  0.00  0.00    -0.396 OA
HETATM   11  H   UNK N   1      25.271  20.592   2.153  0.00  0.00     0.209 HD
ENDBRANCH   9  10
ENDBRANCH   2   9
BRANCH   5  12
HETATM   12  C   UNK N   1      20.648  20.877   1.375  0.00  0.00     0.206 C 
BRANCH  12  13
HETATM   13  O   UNK N   1      20.612  20.334   0.091  0.00  0.00    -0.396 OA
HETATM   14  H   UNK N   1      20.241  20.419  -0.801  0.00  0.00     0.209 HD
ENDBRANCH  12  13
ENDBRANCH   5  12
BRANCH   6  15
HETATM   15  O   UNK N   1      18.969  18.701   2.060  0.00  0.00    -0.358 OA
HETATM   16  H   UNK N   1      18.556  17.871   1.929  0.00  0.00     0.217 HD
ENDBRANCH   6  15
TORSDOF 5
ENDMDL
MODEL 5
REMARK VINA RESULT:      -4.8      1.823      4.681
REMARK  5 active torsions:
REMARK  status: ('A' for Active; 'I' for Inactive)
REMARK    1  A    between atoms: C_8  and  C_2 
REMARK    2  A    between atoms: C_12  and  C_5 
REMARK    3  A    between atoms: O_11  and  C_6 
REMARK    4  A    between atoms: O_9  and  C_8 
REMARK    5  A    between atoms: C_12  and  O_13 
ROOT
HETATM    1  C   UNK N   1      23.297  12.031  11.306  0.00  0.00     0.098 A 
HETATM    2  C   UNK N   1      23.346  12.864  10.187  0.00  0.00    -0.008 A 
HETATM    3  N   UNK N   1      22.112  11.714  11.890  0.00  0.00    -0.367 N 
ATOM      4  HN  UNK N   1      22.109  11.101  12.705  1.00  0.00     0.165 HD
HETATM    5  C   UNK N   1      22.130  13.375   9.666  0.00  0.00     0.010 A 
HETATM    6  C   UNK N   1      20.917  13.035  10.297  0.00  0.00     0.096 A 
HETATM    7  C   UNK N   1      20.935  12.192  11.418  0.00  0.00     0.039 A 
HETATM    8  C   UNK N   1      19.665  11.798  12.095  0.00  0.00     0.071 C 
ENDROOT
BRANCH   2   9
HETATM    9  C   UNK N   1      24.714  13.142   9.613  0.00  0.00     0.205 C 
BRANCH   9  10
HETATM   10  O   UNK N   1      25.667  13.503  10.567  0.00  0.00    -0.396 OA
HETATM   11  H   UNK N   1      26.599  13.263  10.448  0.00  0.00     0.209 HD
ENDBRANCH   9  10
ENDBRANCH   2   9
BRANCH   5  12
HETATM   12  C   UNK N   1      22.104  14.240   8.438  0.00  0.00     0.206 C 
BRANCH  12  13
HETATM   13  O   UNK N   1      21.317  15.371   8.649  0.00  0.00    -0.396 OA
HETATM   14  H   UNK N   1      21.321  16.323   8.833  0.00  0.00     0.209 HD
ENDBRANCH  12  13
ENDBRANCH   5  12
BRANCH   6  15
HETATM   15  O   UNK N   1      19.747  13.504   9.824  0.00  0.00    -0.358 OA
HETATM   16  H   UNK N   1      18.951  13.042   9.996  0.00  0.00     0.217 HD
ENDBRANCH   6  15
TORSDOF 5
ENDMDL
MODEL 6
REMARK VINA RESULT:      -4.7      9.764     10.944
REMARK  5 active torsions:
REMARK  status: ('A' for Active; 'I' for Inactive)
REMARK    1  A    between atoms: C_8  and  C_2 
REMARK    2  A    between atoms: C_12  and  C_5 
REMARK    3  A    between atoms: O_11  and  C_6 
REMARK    4  A    between atoms: O_9  and  C_8 
REMARK    5  A    between atoms: C_12  and  O_13 
ROOT
HETATM    1  C   UNK N   1      21.411  17.903   3.946  0.00  0.00     0.098 A 
HETATM    2  C   UNK N   1      20.765  18.775   3.067  0.00  0.00    -0.008 A 
HETATM    3  N   UNK N   1      22.701  18.112   4.315  0.00  0.00    -0.367 N 
ATOM      4  HN  UNK N   1      23.145  17.459   4.960  1.00  0.00     0.165 HD
HETATM    5  C   UNK N   1      21.483  19.891   2.566  0.00  0.00     0.010 A 
HETATM    6  C   UNK N   1      22.821  20.079   2.962  0.00  0.00     0.096 A 
HETATM    7  C   UNK N   1      23.414  19.166   3.848  0.00  0.00     0.039 A 
HETATM    8  C   UNK N   1      24.823  19.351   4.301  0.00  0.00     0.071 C 
ENDROOT
BRANCH   2   9
HETATM    9  C   UNK N   1      19.329  18.453   2.732  0.00  0.00     0.205 C 
BRANCH   9  10
HETATM   10  O   UNK N   1      19.168  17.770   1.525  0.00  0.00    -0.396 OA
HETATM   11  H   UNK N   1      19.349  18.211   0.681  0.00  0.00     0.209 HD
ENDBRANCH   9  10
ENDBRANCH   2   9
BRANCH   5  12
HETATM   12  C   UNK N   1      20.836  20.895   1.655  0.00  0.00     0.206 C 
BRANCH  12  13
HETATM   13  O   UNK N   1      21.338  20.776   0.359  0.00  0.00    -0.396 OA
HETATM   14  H   UNK N   1      21.154  20.914  -0.584  0.00  0.00     0.209 HD
ENDBRANCH  12  13
ENDBRANCH   5  12
BRANCH   6  15
HETATM   15  O   UNK N   1      23.527  21.130   2.504  0.00  0.00    -0.358 OA
HETATM   16  H   UNK N   1      23.227  22.003   2.663  0.00  0.00     0.217 HD
ENDBRANCH   6  15
TORSDOF 5
ENDMDL
MODEL 7
REMARK VINA RESULT:      -4.7      9.492     10.984
REMARK  5 active torsions:
REMARK  status: ('A' for Active; 'I' for Inactive)
REMARK    1  A    between atoms: C_8  and  C_2 
REMARK    2  A    between atoms: C_12  and  C_5 
REMARK    3  A    between atoms: O_11  and  C_6 
REMARK    4  A    between atoms: O_9  and  C_8 
REMARK    5  A    between atoms: C_12  and  O_13 
ROOT
HETATM    1  C   UNK N   1      22.599  20.427   2.597  0.00  0.00     0.098 A 
HETATM    2  C   UNK N   1      21.262  20.192   2.270  0.00  0.00    -0.008 A 
HETATM    3  N   UNK N   1      23.241  19.654   3.511  0.00  0.00    -0.367 N 
ATOM      4  HN  UNK N   1      24.219  19.849   3.728  1.00  0.00     0.165 HD
HETATM    5  C   UNK N   1      20.583  19.123   2.910  0.00  0.00     0.010 A 
HETATM    6  C   UNK N   1      21.273  18.342   3.858  0.00  0.00     0.096 A 
HETATM    7  C   UNK N   1      22.617  18.630   4.142  0.00  0.00     0.039 A 
HETATM    8  C   UNK N   1      23.379  17.808   5.126  0.00  0.00     0.071 C 
ENDROOT
BRANCH   2   9
HETATM    9  C   UNK N   1      20.650  21.105   1.236  0.00  0.00     0.205 C 
BRANCH   9  10
HETATM   10  O   UNK N   1      20.652  20.579  -0.057  0.00  0.00    -0.396 OA
HETATM   11  H   UNK N   1      21.330  19.942  -0.329  0.00  0.00     0.209 HD
ENDBRANCH   9  10
ENDBRANCH   2   9
BRANCH   5  12
HETATM   12  C   UNK N   1      19.160  18.784   2.572  0.00  0.00     0.206 C 
BRANCH  12  13
HETATM   13  O   UNK N   1      19.107  17.699   1.697  0.00  0.00    -0.396 OA
HETATM   14  H   UNK N   1      19.629  17.053   1.195  0.00  0.00     0.209 HD
ENDBRANCH  12  13
ENDBRANCH   5  12
BRANCH   6  15
HETATM   15  O   UNK N   1      20.655  17.320   4.480  0.00  0.00    -0.358 OA
HETATM   16  H   UNK N   1      20.660  17.267   5.415  0.00  0.00     0.217 HD
ENDBRANCH   6  15
TORSDOF 5
ENDMDL
MODEL 8
REMARK VINA RESULT:      -4.6      2.138      4.387
REMARK  5 active torsions:
REMARK  status: ('A' for Active; 'I' for Inactive)
REMARK    1  A    between atoms: C_8  and  C_2 
REMARK    2  A    between atoms: C_12  and  C_5 
REMARK    3  A    between atoms: O_11  and  C_6 
REMARK    4  A    between atoms: O_9  and  C_8 
REMARK    5  A    between atoms: C_12  and  O_13 
ROOT
HETATM    1  C   UNK N   1      25.045  12.784  10.057  0.00  0.00     0.098 A 
HETATM    2  C   UNK N   1      24.040  12.806   9.089  0.00  0.00    -0.008 A 
HETATM    3  N   UNK N   1      24.765  12.466  11.348  0.00  0.00    -0.367 N 
ATOM      4  HN  UNK N   1      25.521  12.457  12.032  1.00  0.00     0.165 HD
HETATM    5  C   UNK N   1      22.713  12.487   9.478  0.00  0.00     0.010 A 
HETATM    6  C   UNK N   1      22.452  12.169  10.825  0.00  0.00     0.096 A 
HETATM    7  C   UNK N   1      23.507  12.164  11.750  0.00  0.00     0.039 A 
HETATM    8  C   UNK N   1      23.264  11.810  13.179  0.00  0.00     0.071 C 
ENDROOT
BRANCH   2   9
HETATM    9  C   UNK N   1      24.464  13.162   7.685  0.00  0.00     0.205 C 
BRANCH   9  10
HETATM   10  O   UNK N   1      25.506  14.088   7.625  0.00  0.00    -0.396 OA
HETATM   11  H   UNK N   1      26.404  13.806   7.392  0.00  0.00     0.209 HD
ENDBRANCH   9  10
ENDBRANCH   2   9
BRANCH   5  12
HETATM   12  C   UNK N   1      21.591  12.446   8.480  0.00  0.00     0.206 C 
BRANCH  12  13
HETATM   13  O   UNK N   1      20.582  13.339   8.838  0.00  0.00    -0.396 OA
HETATM   14  H   UNK N   1      19.656  13.592   8.702  0.00  0.00     0.209 HD
ENDBRANCH  12  13
ENDBRANCH   5  12
BRANCH   6  15
HETATM   15  O   UNK N   1      21.203  11.860  11.223  0.00  0.00    -0.358 OA
HETATM   16  H   UNK N   1      20.559  11.602  10.594  0.00  0.00     0.217 HD
ENDBRANCH   6  15
TORSDOF 5
ENDMDL
MODEL 9
REMARK VINA RESULT:      -4.6      8.577      9.813
REMARK  5 active torsions:
REMARK  status: ('A' for Active; 'I' for Inactive)
REMARK    1  A    between atoms: C_8  and  C_2 
REMARK    2  A    between atoms: C_12  and  C_5 
REMARK    3  A    between atoms: O_11  and  C_6 
REMARK    4  A    between atoms: O_9  and  C_8 
REMARK    5  A    between atoms: C_12  and  O_13 
ROOT
HETATM    1  C   UNK N   1      29.497  17.746   5.214  0.00  0.00     0.098 A 
HETATM    2  C   UNK N   1      29.513  17.658   6.607  0.00  0.00    -0.008 A 
HETATM    3  N   UNK N   1      28.662  18.609   4.578  0.00  0.00    -0.367 N 
ATOM      4  HN  UNK N   1      28.675  18.652   3.559  1.00  0.00     0.165 HD
HETATM    5  C   UNK N   1      28.639  18.491   7.351  0.00  0.00     0.010 A 
HETATM    6  C   UNK N   1      27.780  19.371   6.664  0.00  0.00     0.096 A 
HETATM    7  C   UNK N   1      27.812  19.413   5.262  0.00  0.00     0.039 A 
HETATM    8  C   UNK N   1      26.929  20.349   4.508  0.00  0.00     0.071 C 
ENDROOT
BRANCH   2   9
HETATM    9  C   UNK N   1      30.485  16.673   7.210  0.00  0.00     0.205 C 
BRANCH   9  10
HETATM   10  O   UNK N   1      31.724  17.228   7.536  0.00  0.00    -0.396 OA
HETATM   11  H   UNK N   1      32.383  16.710   8.024  0.00  0.00     0.209 HD
ENDBRANCH   9  10
ENDBRANCH   2   9
BRANCH   5  12
HETATM   12  C   UNK N   1      28.636  18.482   8.854  0.00  0.00     0.206 C 
BRANCH  12  13
HETATM   13  O   UNK N   1      27.387  18.095   9.340  0.00  0.00    -0.396 OA
HETATM   14  H   UNK N   1      26.703  17.408   9.323  0.00  0.00     0.209 HD
ENDBRANCH  12  13
ENDBRANCH   5  12
BRANCH   6  15
HETATM   15  O   UNK N   1      26.940  20.176   7.344  0.00  0.00    -0.358 OA
HETATM   16  H   UNK N   1      26.032  20.208   7.117  0.00  0.00     0.217 HD
ENDBRANCH   6  15
TORSDOF 5
ENDMDL
