MODEL 1
REMARK VINA RESULT:      -8.9      0.000      0.000
REMARK WARNING: 32 MAX_TORS EXCEEDED!!!
REMARK  35 active torsions:
REMARK  status: ('A' for Active; 'I' for Inactive)
REMARK    1  A    between atoms: O_12  and  C_81 
REMARK    2  A    between atoms: O_13  and  C_97 
REMARK       I    between atoms: N_14  and  C_37 
REMARK    3  A    between atoms: C_38  and  N_15 
REMARK       I    between atoms: N_15  and  C_43 
REMARK       I    between atoms: N_16  and  C_39 
REMARK    4  A    between atoms: N_16  and  C_47 
REMARK    5  A    between atoms: C_42  and  N_17 
REMARK       I    between atoms: N_17  and  C_50 
REMARK    6  A    between atoms: N_18  and  C_46 
REMARK    7  A    between atoms: C_51  and  N_20 
REMARK       I    between atoms: N_20  and  C_56 
REMARK       I    between atoms: N_21  and  C_52 
REMARK    8  A    between atoms: C_55  and  N_23 
REMARK       I    between atoms: N_23  and  C_75 
REMARK    9  A    between atoms: C_61  and  N_24 
REMARK       I    between atoms: N_24  and  C_66 
REMARK   10  A    between atoms: C_60  and  N_25 
REMARK       I    between atoms: N_25  and  C_71 
REMARK   11  A    between atoms: C_69  and  N_26 
REMARK       I    between atoms: N_26  and  C_74 
REMARK       I    between atoms: N_27  and  C_57 
REMARK       I    between atoms: N_28  and  C_57 
REMARK   12  A    between atoms: C_33  and  C_39 
REMARK   13  A    between atoms: C_37  and  C_38 
REMARK   14  A    between atoms: C_38  and  C_40 
REMARK   15  A    between atoms: C_40  and  C_41 
REMARK   16  A    between atoms: C_41  and  C_46 
REMARK   17  A    between atoms: C_42  and  C_43 
REMARK   18  A    between atoms: C_42  and  C_44 
REMARK   19  A    between atoms: C_44  and  C_45 
REMARK   20  A    between atoms: C_47  and  C_52 
REMARK   21  A    between atoms: C_50  and  C_51 
REMARK   22  A    between atoms: C_51  and  C_53 
REMARK   23  A    between atoms: C_53  and  C_54 
REMARK   24  A    between atoms: C_55  and  C_56 
REMARK   25  A    between atoms: C_55  and  C_62 
REMARK   26  A    between atoms: C_58  and  C_66 
REMARK   27  A    between atoms: C_60  and  C_65 
REMARK   28  A    between atoms: C_60  and  C_74 
REMARK   29  A    between atoms: C_61  and  C_70 
REMARK   30  A    between atoms: C_61  and  C_71 
REMARK   31  A    between atoms: C_62  and  C_76 
REMARK   32  A    between atoms: C_65  and  C_72 
REMARK   33  A    between atoms: C_69  and  C_75 
REMARK   34  A    between atoms: C_69  and  C_81 
REMARK   35  A    between atoms: C_70  and  C_80 
ROOT
HETATM    1  O   UNK N   1      26.739  15.766   7.135  0.00  0.00    -0.271 OA
HETATM    2  N   UNK N   1      27.520  15.198   5.133  0.00  0.00    -0.346 N 
HETATM    3  C   UNK N   1      27.211  16.121   6.066  0.00  0.00     0.241 C 
HETATM    4  H   UNK N   1      27.459  14.242   5.362  0.00  0.00     0.163 HD
ENDROOT
BRANCH   3   5
HETATM    5  C   UNK N   1      27.553  17.563   5.866  0.00  0.00     0.180 C 
BRANCH   5   6
HETATM    6  N   UNK N   1      28.417  18.152   6.869  0.00  0.00    -0.346 N 
HETATM    7  C   UNK N   1      29.744  17.877   7.032  0.00  0.00     0.243 C 
HETATM    8  O   UNK N   1      30.438  17.492   6.103  0.00  0.00    -0.271 OA
HETATM    9  H   UNK N   1      28.013  18.805   7.486  0.00  0.00     0.163 HD
BRANCH   7  10
HETATM   10  C   UNK N   1      30.204  17.620   8.425  0.00  0.00     0.200 C 
BRANCH  10  11
HETATM   11  N   UNK N   1      31.645  17.600   8.299  0.00  0.00    -0.344 N 
HETATM   12  C   UNK N   1      32.450  16.557   8.651  0.00  0.00     0.241 C 
HETATM   13  O   UNK N   1      32.028  15.639   9.341  0.00  0.00    -0.271 OA
HETATM   14  H   UNK N   1      32.078  18.403   7.930  0.00  0.00     0.163 HD
BRANCH  12  15
HETATM   15  C   UNK N   1      33.866  16.550   8.152  0.00  0.00     0.181 C 
BRANCH  15  16
HETATM   16  N   UNK N   1      34.246  15.175   8.014  0.00  0.00    -0.346 N 
HETATM   17  C   UNK N   1      35.162  14.615   8.841  0.00  0.00     0.241 C 
HETATM   18  O   UNK N   1      36.018  15.303   9.378  0.00  0.00    -0.271 OA
HETATM   19  H   UNK N   1      33.835  14.629   7.308  0.00  0.00     0.163 HD
BRANCH  17  20
HETATM   20  C   UNK N   1      34.818  13.290   9.437  0.00  0.00     0.182 C 
BRANCH  20  21
HETATM   21  N   UNK N   1      34.404  13.584  10.796  0.00  0.00    -0.346 N 
HETATM   22  C   UNK N   1      35.120  13.407  11.941  0.00  0.00     0.241 C 
HETATM   23  O   UNK N   1      34.618  13.767  12.993  0.00  0.00    -0.271 OA
HETATM   24  H   UNK N   1      33.498  13.955  10.903  0.00  0.00     0.163 HD
BRANCH  22  25
HETATM   25  C   UNK N   1      36.484  12.743  12.010  0.00  0.00     0.177 C 
HETATM   26  N   UNK N   1      37.514  13.537  11.409  0.00  0.00    -0.348 N 
HETATM   27  C   UNK N   1      38.343  12.790  10.682  0.00  0.00     0.218 C 
HETATM   28  H   UNK N   1      37.598  14.512  11.519  0.00  0.00     0.163 HD
HETATM   29  O   UNK N   1      39.320  13.258  10.124  0.00  0.00    -0.274 OA
HETATM   30  C   UNK N   1      37.994  11.356  10.644  0.00  0.00     0.105 C 
HETATM   31  C   UNK N   1      36.663  11.338  11.406  0.00  0.00     0.044 C 
ENDBRANCH  22  25
ENDBRANCH  20  21
BRANCH  20  32
HETATM   32  C   UNK N   1      33.644  12.692   8.658  0.00  0.00     0.093 C 
BRANCH  32  33
HETATM   33  C   UNK N   1      33.375  11.251   8.962  0.00  0.00     0.028 A 
HETATM   34  N   UNK N   1      32.267  10.826   9.587  0.00  0.00    -0.354 N 
HETATM   35  C   UNK N   1      32.414   9.490   9.691  0.00  0.00     0.180 A 
HETATM   36  H   UNK N   1      31.511  11.372   9.901  0.00  0.00     0.166 HD
HETATM   37  N   UNK N   1      33.578   9.071   9.151  0.00  0.00    -0.360 N 
HETATM   38  C   UNK N   1      34.188  10.176   8.690  0.00  0.00     0.114 A 
ATOM     39  HN  UNK N   1      33.922   8.112   9.102  1.00  0.00     0.166 HD
ENDBRANCH  32  33
ENDBRANCH  20  32
ENDBRANCH  17  20
ENDBRANCH  15  16
BRANCH  15  40
HETATM   40  C   UNK N   1      34.108  17.385   6.884  0.00  0.00     0.075 C 
BRANCH  40  41
HETATM   41  C   UNK N   1      33.736  16.850   5.527  0.00  0.00    -0.028 A 
HETATM   42  C   UNK N   1      34.137  15.714   4.852  0.00  0.00    -0.002 A 
HETATM   43  C   UNK N   1      33.546  15.764   3.620  0.00  0.00     0.042 A 
HETATM   44  C   UNK N   1      34.977  14.660   5.208  0.00  0.00     0.014 A 
HETATM   45  N   UNK N   1      32.781  16.859   3.490  0.00  0.00    -0.365 N 
HETATM   46  C   UNK N   1      33.764  14.784   2.654  0.00  0.00     0.030 A 
HETATM   47  C   UNK N   1      32.889  17.535   4.660  0.00  0.00     0.096 A 
HETATM   48  H   UNK N   1      32.247  17.120   2.705  0.00  0.00     0.165 HD
HETATM   49  C   UNK N   1      34.617  13.717   2.984  0.00  0.00     0.002 A 
HETATM   50  C   UNK N   1      35.215  13.651   4.260  0.00  0.00     0.001 A 
ENDBRANCH  40  41
ENDBRANCH  15  40
ENDBRANCH  12  15
ENDBRANCH  10  11
BRANCH  10  51
HETATM   51  C   UNK N   1      29.853  18.795   9.347  0.00  0.00     0.199 C 
BRANCH  51  52
HETATM   52  O   UNK N   1      29.626  18.361  10.654  0.00  0.00    -0.398 OA
HETATM   53  H   UNK N   1      30.075  17.727  11.234  0.00  0.00     0.209 HD
ENDBRANCH  51  52
ENDBRANCH  10  51
ENDBRANCH   7  10
ENDBRANCH   5   6
BRANCH   5  54
HETATM   54  C   UNK N   1      27.719  18.104   4.456  0.00  0.00     0.073 C 
BRANCH  54  55
HETATM   55  C   UNK N   1      26.490  18.871   4.071  0.00  0.00    -0.056 A 
HETATM   56  C   UNK N   1      25.211  18.382   4.379  0.00  0.00     0.010 A 
HETATM   57  C   UNK N   1      24.073  19.106   4.002  0.00  0.00     0.037 A 
HETATM   58  C   UNK N   1      24.209  20.316   3.313  0.00  0.00     0.065 A 
HETATM   59  C   UNK N   1      25.483  20.802   3.002  0.00  0.00     0.037 A 
HETATM   60  C   UNK N   1      26.620  20.082   3.383  0.00  0.00     0.010 A 
BRANCH  58  61
HETATM   61  O   UNK N   1      23.119  21.011   2.948  0.00  0.00    -0.361 OA
HETATM   62  H   UNK N   1      22.317  20.905   3.420  0.00  0.00     0.217 HD
ENDBRANCH  58  61
ENDBRANCH  54  55
ENDBRANCH   5  54
ENDBRANCH   3   5
BRANCH   2  63
HETATM   63  C   UNK N   1      27.940  15.578   3.805  0.00  0.00     0.180 C 
BRANCH  63  64
HETATM   64  C   UNK N   1      26.924  15.274   2.782  0.00  0.00     0.241 C 
HETATM   65  O   UNK N   1      27.281  15.042   1.632  0.00  0.00    -0.271 OA
HETATM   66  N   UNK N   1      25.741  14.825   3.244  0.00  0.00    -0.346 N 
HETATM   67  H   UNK N   1      25.241  15.359   3.902  0.00  0.00     0.163 HD
BRANCH  66  68
HETATM   68  C   UNK N   1      25.201  13.577   2.787  0.00  0.00     0.177 C 
BRANCH  68  69
HETATM   69  C   UNK N   1      23.706  13.784   2.798  0.00  0.00     0.241 C 
HETATM   70  O   UNK N   1      23.167  14.241   1.801  0.00  0.00    -0.271 OA
HETATM   71  N   UNK N   1      22.929  13.133   3.693  0.00  0.00    -0.346 N 
HETATM   72  H   UNK N   1      22.286  12.488   3.321  0.00  0.00     0.163 HD
BRANCH  71  73
HETATM   73  C   UNK N   1      22.931  13.274   5.140  0.00  0.00     0.176 C 
BRANCH  73  74
HETATM   74  C   UNK N   1      22.349  14.636   5.582  0.00  0.00     0.243 C 
HETATM   75  O   UNK N   1      22.866  15.183   6.532  0.00  0.00    -0.271 OA
HETATM   76  N   UNK N   1      21.320  15.273   4.934  0.00  0.00    -0.337 N 
HETATM   77  C   UNK N   1      21.174  16.706   4.999  0.00  0.00     0.179 A 
HETATM   78  C   UNK N   1      20.397  14.642   4.038  0.00  0.00     0.127 A 
HETATM   79  C   UNK N   1      19.961  17.043   4.154  0.00  0.00     0.037 A 
HETATM   80  C   UNK N   1      19.462  15.734   3.557  0.00  0.00     0.022 A 
BRANCH  77  81
HETATM   81  C   UNK N   1      21.083  17.316   6.351  0.00  0.00     0.241 C 
HETATM   82  O   UNK N   1      21.740  18.321   6.589  0.00  0.00    -0.271 OA
HETATM   83  N   UNK N   1      20.227  16.820   7.272  0.00  0.00    -0.351 N 
HETATM   84  H   UNK N   1      19.791  15.952   7.111  0.00  0.00     0.163 HD
BRANCH  83  85
HETATM   85  C   UNK N   1      19.940  17.544   8.483  0.00  0.00     0.225 C 
BRANCH  85  86
HETATM   86  C   UNK N   1      18.499  17.321   8.824  0.00  0.00     0.233 C 
HETATM   87  O   UNK N   1      17.828  16.551   8.156  0.00  0.00    -0.272 OA
HETATM   88  N   UNK N   1      17.925  18.016   9.825  0.00  0.00    -0.369 N 
HETATM   89  H   UNK N   1      17.880  18.978  10.028  0.00  0.00     0.159 HD
HETATM   90  H   UNK N   1      17.459  17.451  10.482  0.00  0.00     0.159 HD
ENDBRANCH  85  86
ENDBRANCH  83  85
ENDBRANCH  77  81
ENDBRANCH  73  74
BRANCH  73  91
HETATM   91  C   UNK N   1      22.079  12.068   5.551  0.00  0.00     0.036 C 
BRANCH  91  92
HETATM   92  C   UNK N   1      22.321  11.764   7.053  0.00  0.00     0.023 C 
BRANCH  92  93
HETATM   93  C   UNK N   1      23.764  11.489   7.379  0.00  0.00     0.138 C 
BRANCH  93  94
HETATM   94  N   UNK N   1      23.982  11.761   8.772  0.00  0.00    -0.227 N 
HETATM   95  C   UNK N   1      24.624  12.807   9.153  0.00  0.00     0.665 C 
HETATM   96  N   UNK N   1      24.786  13.056  10.530  0.00  0.00    -0.235 N 
HETATM   97  N   UNK N   1      25.137  13.728   8.207  0.00  0.00    -0.235 N 
HETATM   98  H   UNK N   1      24.016  13.080  11.144  0.00  0.00     0.174 HD
HETATM   99  H   UNK N   1      25.690  13.212  10.887  0.00  0.00     0.174 HD
HETATM  100  H   UNK N   1      25.860  14.388   8.308  0.00  0.00     0.174 HD
HETATM  101  H   UNK N   1      24.707  13.706   7.322  0.00  0.00     0.174 HD
ATOM    102  HN  UNK N   1      23.620  11.113   9.471  1.00  0.00     0.177 HD
ENDBRANCH  93  94
ENDBRANCH  92  93
ENDBRANCH  91  92
ENDBRANCH  73  91
ENDBRANCH  71  73
ENDBRANCH  68  69
BRANCH  68 103
HETATM  103  C   UNK N   1      25.656  12.362   3.604  0.00  0.00     0.038 C 
BRANCH 103 104
HETATM  104  C   UNK N   1      27.111  12.008   3.323  0.00  0.00    -0.020 C 
HETATM  105  C   UNK N   1      27.651  11.055   4.374  0.00  0.00     0.009 C 
HETATM  106  C   UNK N   1      27.206  11.339   1.970  0.00  0.00     0.009 C 
ENDBRANCH 103 104
ENDBRANCH  68 103
ENDBRANCH  66  68
ENDBRANCH  63  64
BRANCH  63 107
HETATM  107  C   UNK N   1      29.420  15.621   3.422  0.00  0.00     0.073 C 
BRANCH 107 108
HETATM  108  C   UNK N   1      30.047  14.421   3.987  0.00  0.00    -0.055 A 
HETATM  109  C   UNK N   1      30.340  13.362   3.137  0.00  0.00     0.019 A 
HETATM  110  C   UNK N   1      31.173  12.344   3.574  0.00  0.00    -0.025 A 
HETATM  111  C   UNK N   1      31.734  12.399   4.871  0.00  0.00    -0.026 A 
HETATM  112  C   UNK N   1      31.488  11.295   2.715  0.00  0.00     0.012 A 
HETATM  113  C   UNK N   1      31.419  13.456   5.726  0.00  0.00     0.013 A 
HETATM  114  C   UNK N   1      32.616  11.402   5.283  0.00  0.00     0.012 A 
HETATM  115  C   UNK N   1      30.582  14.475   5.279  0.00  0.00     0.008 A 
HETATM  116  C   UNK N   1      32.937  10.355   4.413  0.00  0.00     0.001 A 
HETATM  117  C   UNK N   1      32.370  10.299   3.136  0.00  0.00     0.001 A 
ENDBRANCH 107 108
ENDBRANCH  63 107
ENDBRANCH   2  63
TORSDOF 35
ENDMDL
MODEL 2
REMARK VINA RESULT:      -8.8      1.836      3.501
REMARK WARNING: 32 MAX_TORS EXCEEDED!!!
REMARK  35 active torsions:
REMARK  status: ('A' for Active; 'I' for Inactive)
REMARK    1  A    between atoms: O_12  and  C_81 
REMARK    2  A    between atoms: O_13  and  C_97 
REMARK       I    between atoms: N_14  and  C_37 
REMARK    3  A    between atoms: C_38  and  N_15 
REMARK       I    between atoms: N_15  and  C_43 
REMARK       I    between atoms: N_16  and  C_39 
REMARK    4  A    between atoms: N_16  and  C_47 
REMARK    5  A    between atoms: C_42  and  N_17 
REMARK       I    between atoms: N_17  and  C_50 
REMARK    6  A    between atoms: N_18  and  C_46 
REMARK    7  A    between atoms: C_51  and  N_20 
REMARK       I    between atoms: N_20  and  C_56 
REMARK       I    between atoms: N_21  and  C_52 
REMARK    8  A    between atoms: C_55  and  N_23 
REMARK       I    between atoms: N_23  and  C_75 
REMARK    9  A    between atoms: C_61  and  N_24 
REMARK       I    between atoms: N_24  and  C_66 
REMARK   10  A    between atoms: C_60  and  N_25 
REMARK       I    between atoms: N_25  and  C_71 
REMARK   11  A    between atoms: C_69  and  N_26 
REMARK       I    between atoms: N_26  and  C_74 
REMARK       I    between atoms: N_27  and  C_57 
REMARK       I    between atoms: N_28  and  C_57 
REMARK   12  A    between atoms: C_33  and  C_39 
REMARK   13  A    between atoms: C_37  and  C_38 
REMARK   14  A    between atoms: C_38  and  C_40 
REMARK   15  A    between atoms: C_40  and  C_41 
REMARK   16  A    between atoms: C_41  and  C_46 
REMARK   17  A    between atoms: C_42  and  C_43 
REMARK   18  A    between atoms: C_42  and  C_44 
REMARK   19  A    between atoms: C_44  and  C_45 
REMARK   20  A    between atoms: C_47  and  C_52 
REMARK   21  A    between atoms: C_50  and  C_51 
REMARK   22  A    between atoms: C_51  and  C_53 
REMARK   23  A    between atoms: C_53  and  C_54 
REMARK   24  A    between atoms: C_55  and  C_56 
REMARK   25  A    between atoms: C_55  and  C_62 
REMARK   26  A    between atoms: C_58  and  C_66 
REMARK   27  A    between atoms: C_60  and  C_65 
REMARK   28  A    between atoms: C_60  and  C_74 
REMARK   29  A    between atoms: C_61  and  C_70 
REMARK   30  A    between atoms: C_61  and  C_71 
REMARK   31  A    between atoms: C_62  and  C_76 
REMARK   32  A    between atoms: C_65  and  C_72 
REMARK   33  A    between atoms: C_69  and  C_75 
REMARK   34  A    between atoms: C_69  and  C_81 
REMARK   35  A    between atoms: C_70  and  C_80 
ROOT
HETATM    1  O   UNK N   1      26.605  15.762   6.933  0.00  0.00    -0.271 OA
HETATM    2  N   UNK N   1      27.540  15.207   4.995  0.00  0.00    -0.346 N 
HETATM    3  C   UNK N   1      27.184  16.120   5.921  0.00  0.00     0.241 C 
HETATM    4  H   UNK N   1      27.421  14.249   5.193  0.00  0.00     0.163 HD
ENDROOT
BRANCH   3   5
HETATM    5  C   UNK N   1      27.598  17.552   5.788  0.00  0.00     0.180 C 
BRANCH   5   6
HETATM    6  N   UNK N   1      28.476  18.053   6.828  0.00  0.00    -0.346 N 
HETATM    7  C   UNK N   1      29.682  17.517   7.173  0.00  0.00     0.243 C 
HETATM    8  O   UNK N   1      30.354  16.882   6.373  0.00  0.00    -0.271 OA
HETATM    9  H   UNK N   1      28.175  18.847   7.327  0.00  0.00     0.163 HD
BRANCH   7  10
HETATM   10  C   UNK N   1      29.936  17.333   8.629  0.00  0.00     0.200 C 
BRANCH  10  11
HETATM   11  N   UNK N   1      31.341  17.653   8.762  0.00  0.00    -0.344 N 
HETATM   12  C   UNK N   1      32.363  16.756   8.663  0.00  0.00     0.241 C 
HETATM   13  O   UNK N   1      32.152  15.552   8.702  0.00  0.00    -0.271 OA
HETATM   14  H   UNK N   1      31.577  18.593   8.937  0.00  0.00     0.163 HD
BRANCH  12  15
HETATM   15  C   UNK N   1      33.759  17.283   8.485  0.00  0.00     0.181 C 
BRANCH  15  16
HETATM   16  N   UNK N   1      34.647  16.197   8.775  0.00  0.00    -0.346 N 
HETATM   17  C   UNK N   1      35.356  16.159   9.929  0.00  0.00     0.241 C 
HETATM   18  O   UNK N   1      35.647  17.194  10.513  0.00  0.00    -0.271 OA
HETATM   19  H   UNK N   1      34.744  15.465   8.124  0.00  0.00     0.163 HD
BRANCH  17  20
HETATM   20  C   UNK N   1      35.349  14.874  10.689  0.00  0.00     0.182 C 
BRANCH  20  21
HETATM   21  N   UNK N   1      36.373  14.060  10.061  0.00  0.00    -0.346 N 
HETATM   22  C   UNK N   1      36.208  12.883   9.395  0.00  0.00     0.241 C 
HETATM   23  O   UNK N   1      37.191  12.370   8.885  0.00  0.00    -0.271 OA
HETATM   24  H   UNK N   1      37.296  14.398  10.125  0.00  0.00     0.163 HD
BRANCH  22  25
HETATM   25  C   UNK N   1      34.893  12.132   9.284  0.00  0.00     0.177 C 
HETATM   26  N   UNK N   1      35.070  10.711   9.273  0.00  0.00    -0.348 N 
HETATM   27  C   UNK N   1      34.280  10.129   8.372  0.00  0.00     0.218 C 
HETATM   28  H   UNK N   1      35.697  10.225   9.857  0.00  0.00     0.163 HD
HETATM   29  O   UNK N   1      34.235   8.919   8.231  0.00  0.00    -0.274 OA
HETATM   30  C   UNK N   1      33.449  11.069   7.593  0.00  0.00     0.105 C 
HETATM   31  C   UNK N   1      33.964  12.426   8.091  0.00  0.00     0.044 C 
ENDBRANCH  22  25
ENDBRANCH  20  21
BRANCH  20  32
HETATM   32  C   UNK N   1      35.737  15.160  12.141  0.00  0.00     0.093 C 
BRANCH  32  33
HETATM   33  C   UNK N   1      35.585  13.989  13.060  0.00  0.00     0.028 A 
HETATM   34  N   UNK N   1      34.700  13.002  12.851  0.00  0.00    -0.354 N 
HETATM   35  C   UNK N   1      34.855  12.167  13.898  0.00  0.00     0.180 A 
HETATM   36  H   UNK N   1      34.074  12.909  12.098  0.00  0.00     0.166 HD
HETATM   37  N   UNK N   1      35.806  12.602  14.750  0.00  0.00    -0.360 N 
HETATM   38  C   UNK N   1      36.269  13.750  14.228  0.00  0.00     0.114 A 
ATOM     39  HN  UNK N   1      36.111  12.152  15.613  1.00  0.00     0.166 HD
ENDBRANCH  32  33
ENDBRANCH  20  32
ENDBRANCH  17  20
ENDBRANCH  15  16
BRANCH  15  40
HETATM   40  C   UNK N   1      34.028  17.953   7.128  0.00  0.00     0.075 C 
BRANCH  40  41
HETATM   41  C   UNK N   1      33.656  17.265   5.842  0.00  0.00    -0.028 A 
HETATM   42  C   UNK N   1      34.083  16.074   5.288  0.00  0.00    -0.002 A 
HETATM   43  C   UNK N   1      33.476  15.974   4.065  0.00  0.00     0.042 A 
HETATM   44  C   UNK N   1      34.958  15.088   5.743  0.00  0.00     0.014 A 
HETATM   45  N   UNK N   1      32.677  17.027   3.830  0.00  0.00    -0.365 N 
HETATM   46  C   UNK N   1      33.712  14.902   3.208  0.00  0.00     0.030 A 
HETATM   47  C   UNK N   1      32.779  17.828   4.919  0.00  0.00     0.096 A 
HETATM   48  H   UNK N   1      32.127  17.185   3.029  0.00  0.00     0.165 HD
HETATM   49  C   UNK N   1      34.600  13.901   3.638  0.00  0.00     0.002 A 
HETATM   50  C   UNK N   1      35.214  13.990   4.905  0.00  0.00     0.001 A 
ENDBRANCH  40  41
ENDBRANCH  15  40
ENDBRANCH  12  15
ENDBRANCH  10  11
BRANCH  10  51
HETATM   51  C   UNK N   1      29.163  18.367   9.458  0.00  0.00     0.199 C 
BRANCH  51  52
HETATM   52  O   UNK N   1      27.801  18.064   9.500  0.00  0.00    -0.398 OA
HETATM   53  H   UNK N   1      27.038  18.347   8.973  0.00  0.00     0.209 HD
ENDBRANCH  51  52
ENDBRANCH  10  51
ENDBRANCH   7  10
ENDBRANCH   5   6
BRANCH   5  54
HETATM   54  C   UNK N   1      27.811  18.145   4.406  0.00  0.00     0.073 C 
BRANCH  54  55
HETATM   55  C   UNK N   1      26.596  18.929   4.011  0.00  0.00    -0.056 A 
HETATM   56  C   UNK N   1      25.308  18.410   4.214  0.00  0.00     0.010 A 
HETATM   57  C   UNK N   1      24.184  19.152   3.827  0.00  0.00     0.037 A 
HETATM   58  C   UNK N   1      24.344  20.409   3.235  0.00  0.00     0.065 A 
HETATM   59  C   UNK N   1      25.627  20.925   3.029  0.00  0.00     0.037 A 
HETATM   60  C   UNK N   1      26.750  20.187   3.419  0.00  0.00     0.010 A 
BRANCH  58  61
HETATM   61  O   UNK N   1      23.268  21.121   2.863  0.00  0.00    -0.361 OA
HETATM   62  H   UNK N   1      23.224  21.488   2.002  0.00  0.00     0.217 HD
ENDBRANCH  58  61
ENDBRANCH  54  55
ENDBRANCH   5  54
ENDBRANCH   3   5
BRANCH   2  63
HETATM   63  C   UNK N   1      28.092  15.598   3.720  0.00  0.00     0.180 C 
BRANCH  63  64
HETATM   64  C   UNK N   1      27.175  15.325   2.599  0.00  0.00     0.241 C 
HETATM   65  O   UNK N   1      27.623  15.256   1.460  0.00  0.00    -0.271 OA
HETATM   66  N   UNK N   1      26.013  14.725   2.923  0.00  0.00    -0.346 N 
HETATM   67  H   UNK N   1      25.424  15.137   3.597  0.00  0.00     0.163 HD
BRANCH  66  68
HETATM   68  C   UNK N   1      25.623  13.495   2.298  0.00  0.00     0.177 C 
BRANCH  68  69
HETATM   69  C   UNK N   1      24.221  13.751   1.800  0.00  0.00     0.241 C 
HETATM   70  O   UNK N   1      24.063  14.486   0.835  0.00  0.00    -0.271 OA
HETATM   71  N   UNK N   1      23.213  12.911   2.124  0.00  0.00    -0.346 N 
HETATM   72  H   UNK N   1      22.801  12.419   1.379  0.00  0.00     0.163 HD
BRANCH  71  73
HETATM   73  C   UNK N   1      22.665  12.648   3.445  0.00  0.00     0.176 C 
BRANCH  73  74
HETATM   74  C   UNK N   1      22.272  13.955   4.170  0.00  0.00     0.243 C 
HETATM   75  O   UNK N   1      22.079  14.938   3.488  0.00  0.00    -0.271 OA
HETATM   76  N   UNK N   1      22.088  14.048   5.528  0.00  0.00    -0.337 N 
HETATM   77  C   UNK N   1      21.224  15.055   6.094  0.00  0.00     0.179 A 
HETATM   78  C   UNK N   1      22.586  13.113   6.491  0.00  0.00     0.127 A 
HETATM   79  C   UNK N   1      21.248  14.834   7.593  0.00  0.00     0.037 A 
HETATM   80  C   UNK N   1      22.122  13.612   7.844  0.00  0.00     0.022 A 
BRANCH  77  81
HETATM   81  C   UNK N   1      21.516  16.470   5.746  0.00  0.00     0.241 C 
HETATM   82  O   UNK N   1      22.569  16.964   6.127  0.00  0.00    -0.271 OA
HETATM   83  N   UNK N   1      20.676  17.170   4.952  0.00  0.00    -0.351 N 
HETATM   84  H   UNK N   1      19.785  16.804   4.746  0.00  0.00     0.163 HD
BRANCH  83  85
HETATM   85  C   UNK N   1      21.064  18.442   4.400  0.00  0.00     0.225 C 
BRANCH  85  86
HETATM   86  C   UNK N   1      20.336  18.624   3.104  0.00  0.00     0.233 C 
HETATM   87  O   UNK N   1      19.327  17.975   2.877  0.00  0.00    -0.272 OA
HETATM   88  N   UNK N   1      20.825  19.454   2.164  0.00  0.00    -0.369 N 
HETATM   89  H   UNK N   1      21.710  19.533   1.739  0.00  0.00     0.159 HD
HETATM   90  H   UNK N   1      20.169  20.112   1.836  0.00  0.00     0.159 HD
ENDBRANCH  85  86
ENDBRANCH  83  85
ENDBRANCH  77  81
ENDBRANCH  73  74
BRANCH  73  91
HETATM   91  C   UNK N   1      21.477  11.747   3.094  0.00  0.00     0.036 C 
BRANCH  91  92
HETATM   92  C   UNK N   1      21.128  11.926   1.592  0.00  0.00     0.023 C 
BRANCH  92  93
HETATM   93  C   UNK N   1      19.756  12.501   1.365  0.00  0.00     0.138 C 
BRANCH  93  94
HETATM   94  N   UNK N   1      19.886  13.734   0.640  0.00  0.00    -0.227 N 
HETATM   95  C   UNK N   1      19.662  14.865   1.207  0.00  0.00     0.665 C 
HETATM   96  N   UNK N   1      19.836  16.054   0.472  0.00  0.00    -0.235 N 
HETATM   97  N   UNK N   1      19.280  14.931   2.570  0.00  0.00    -0.235 N 
HETATM   98  H   UNK N   1      20.677  16.250  -0.001  0.00  0.00     0.174 HD
HETATM   99  H   UNK N   1      19.098  16.705   0.432  0.00  0.00     0.174 HD
HETATM  100  H   UNK N   1      18.814  15.651   3.053  0.00  0.00     0.174 HD
HETATM  101  H   UNK N   1      19.514  14.143   3.111  0.00  0.00     0.174 HD
ATOM    102  HN  UNK N   1      20.163  13.711  -0.340  1.00  0.00     0.177 HD
ENDBRANCH  93  94
ENDBRANCH  92  93
ENDBRANCH  91  92
ENDBRANCH  73  91
ENDBRANCH  71  73
ENDBRANCH  68  69
BRANCH  68 103
HETATM  103  C   UNK N   1      25.733  12.268   3.208  0.00  0.00     0.038 C 
BRANCH 103 104
HETATM  104  C   UNK N   1      26.692  11.229   2.639  0.00  0.00    -0.020 C 
HETATM  105  C   UNK N   1      27.353  11.738   1.371  0.00  0.00     0.009 C 
HETATM  106  C   UNK N   1      27.767  10.935   3.661  0.00  0.00     0.009 C 
ENDBRANCH 103 104
ENDBRANCH  68 103
ENDBRANCH  66  68
ENDBRANCH  63  64
BRANCH  63 107
HETATM  107  C   UNK N   1      29.602  15.623   3.483  0.00  0.00     0.073 C 
BRANCH 107 108
HETATM  108  C   UNK N   1      30.091  14.253   3.669  0.00  0.00    -0.055 A 
HETATM  109  C   UNK N   1      30.325  13.472   2.544  0.00  0.00     0.019 A 
HETATM  110  C   UNK N   1      31.040  12.292   2.666  0.00  0.00    -0.025 A 
HETATM  111  C   UNK N   1      31.545  11.900   3.928  0.00  0.00    -0.026 A 
HETATM  112  C   UNK N   1      31.297  11.520   1.536  0.00  0.00     0.012 A 
HETATM  113  C   UNK N   1      31.289  12.680   5.057  0.00  0.00     0.013 A 
HETATM  114  C   UNK N   1      32.313  10.742   4.034  0.00  0.00     0.012 A 
HETATM  115  C   UNK N   1      30.569  13.865   4.926  0.00  0.00     0.008 A 
HETATM  116  C   UNK N   1      32.576   9.976   2.894  0.00  0.00     0.001 A 
HETATM  117  C   UNK N   1      32.064  10.361   1.651  0.00  0.00     0.001 A 
ENDBRANCH 107 108
ENDBRANCH  63 107
ENDBRANCH   2  63
TORSDOF 35
ENDMDL
MODEL 3
REMARK VINA RESULT:      -8.7      2.375      4.591
REMARK WARNING: 32 MAX_TORS EXCEEDED!!!
REMARK  35 active torsions:
REMARK  status: ('A' for Active; 'I' for Inactive)
REMARK    1  A    between atoms: O_12  and  C_81 
REMARK    2  A    between atoms: O_13  and  C_97 
REMARK       I    between atoms: N_14  and  C_37 
REMARK    3  A    between atoms: C_38  and  N_15 
REMARK       I    between atoms: N_15  and  C_43 
REMARK       I    between atoms: N_16  and  C_39 
REMARK    4  A    between atoms: N_16  and  C_47 
REMARK    5  A    between atoms: C_42  and  N_17 
REMARK       I    between atoms: N_17  and  C_50 
REMARK    6  A    between atoms: N_18  and  C_46 
REMARK    7  A    between atoms: C_51  and  N_20 
REMARK       I    between atoms: N_20  and  C_56 
REMARK       I    between atoms: N_21  and  C_52 
REMARK    8  A    between atoms: C_55  and  N_23 
REMARK       I    between atoms: N_23  and  C_75 
REMARK    9  A    between atoms: C_61  and  N_24 
REMARK       I    between atoms: N_24  and  C_66 
REMARK   10  A    between atoms: C_60  and  N_25 
REMARK       I    between atoms: N_25  and  C_71 
REMARK   11  A    between atoms: C_69  and  N_26 
REMARK       I    between atoms: N_26  and  C_74 
REMARK       I    between atoms: N_27  and  C_57 
REMARK       I    between atoms: N_28  and  C_57 
REMARK   12  A    between atoms: C_33  and  C_39 
REMARK   13  A    between atoms: C_37  and  C_38 
REMARK   14  A    between atoms: C_38  and  C_40 
REMARK   15  A    between atoms: C_40  and  C_41 
REMARK   16  A    between atoms: C_41  and  C_46 
REMARK   17  A    between atoms: C_42  and  C_43 
REMARK   18  A    between atoms: C_42  and  C_44 
REMARK   19  A    between atoms: C_44  and  C_45 
REMARK   20  A    between atoms: C_47  and  C_52 
REMARK   21  A    between atoms: C_50  and  C_51 
REMARK   22  A    between atoms: C_51  and  C_53 
REMARK   23  A    between atoms: C_53  and  C_54 
REMARK   24  A    between atoms: C_55  and  C_56 
REMARK   25  A    between atoms: C_55  and  C_62 
REMARK   26  A    between atoms: C_58  and  C_66 
REMARK   27  A    between atoms: C_60  and  C_65 
REMARK   28  A    between atoms: C_60  and  C_74 
REMARK   29  A    between atoms: C_61  and  C_70 
REMARK   30  A    between atoms: C_61  and  C_71 
REMARK   31  A    between atoms: C_62  and  C_76 
REMARK   32  A    between atoms: C_65  and  C_72 
REMARK   33  A    between atoms: C_69  and  C_75 
REMARK   34  A    between atoms: C_69  and  C_81 
REMARK   35  A    between atoms: C_70  and  C_80 
ROOT
HETATM    1  O   UNK N   1      30.061  18.468   4.382  0.00  0.00    -0.271 OA
HETATM    2  N   UNK N   1      28.755  16.901   3.498  0.00  0.00    -0.346 N 
HETATM    3  C   UNK N   1      29.091  17.738   4.501  0.00  0.00     0.241 C 
HETATM    4  H   UNK N   1      29.236  16.961   2.641  0.00  0.00     0.163 HD
ENDROOT
BRANCH   3   5
HETATM    5  C   UNK N   1      28.219  17.880   5.709  0.00  0.00     0.180 C 
BRANCH   5   6
HETATM    6  N   UNK N   1      28.574  17.053   6.845  0.00  0.00    -0.346 N 
HETATM    7  C   UNK N   1      29.492  17.373   7.802  0.00  0.00     0.243 C 
HETATM    8  O   UNK N   1      29.757  18.536   8.073  0.00  0.00    -0.271 OA
HETATM    9  H   UNK N   1      28.115  16.186   6.932  0.00  0.00     0.163 HD
BRANCH   7  10
HETATM   10  C   UNK N   1      30.469  16.311   8.170  0.00  0.00     0.200 C 
BRANCH  10  11
HETATM   11  N   UNK N   1      31.381  16.297   7.047  0.00  0.00    -0.344 N 
HETATM   12  C   UNK N   1      31.667  15.205   6.281  0.00  0.00     0.241 C 
HETATM   13  O   UNK N   1      31.357  14.079   6.647  0.00  0.00    -0.271 OA
HETATM   14  H   UNK N   1      31.830  17.142   6.817  0.00  0.00     0.163 HD
BRANCH  12  15
HETATM   15  C   UNK N   1      32.355  15.419   4.964  0.00  0.00     0.181 C 
BRANCH  15  16
HETATM   16  N   UNK N   1      33.685  14.904   5.108  0.00  0.00    -0.346 N 
HETATM   17  C   UNK N   1      34.606  15.543   5.869  0.00  0.00     0.241 C 
HETATM   18  O   UNK N   1      34.530  16.749   6.054  0.00  0.00    -0.271 OA
HETATM   19  H   UNK N   1      33.933  14.072   4.646  0.00  0.00     0.163 HD
BRANCH  17  20
HETATM   20  C   UNK N   1      35.390  14.710   6.828  0.00  0.00     0.182 C 
BRANCH  20  21
HETATM   21  N   UNK N   1      34.480  13.659   7.245  0.00  0.00    -0.346 N 
HETATM   22  C   UNK N   1      34.046  13.386   8.506  0.00  0.00     0.241 C 
HETATM   23  O   UNK N   1      33.232  12.487   8.651  0.00  0.00    -0.271 OA
HETATM   24  H   UNK N   1      34.137  13.074   6.530  0.00  0.00     0.163 HD
BRANCH  22  25
HETATM   25  C   UNK N   1      34.540  14.087   9.759  0.00  0.00     0.177 C 
HETATM   26  N   UNK N   1      34.362  15.508   9.701  0.00  0.00    -0.348 N 
HETATM   27  C   UNK N   1      35.426  16.151  10.179  0.00  0.00     0.218 C 
HETATM   28  H   UNK N   1      33.555  15.951   9.352  0.00  0.00     0.163 HD
HETATM   29  O   UNK N   1      35.464  17.366  10.269  0.00  0.00    -0.274 OA
HETATM   30  C   UNK N   1      36.525  15.269  10.617  0.00  0.00     0.105 C 
HETATM   31  C   UNK N   1      36.003  13.889  10.198  0.00  0.00     0.044 C 
ENDBRANCH  22  25
ENDBRANCH  20  21
BRANCH  20  32
HETATM   32  C   UNK N   1      36.580  14.097   6.087  0.00  0.00     0.093 C 
BRANCH  32  33
HETATM   33  C   UNK N   1      37.500  13.298   6.956  0.00  0.00     0.028 A 
HETATM   34  N   UNK N   1      37.309  11.999   7.229  0.00  0.00    -0.354 N 
HETATM   35  C   UNK N   1      38.323  11.661   8.051  0.00  0.00     0.180 A 
HETATM   36  H   UNK N   1      36.585  11.419   6.901  0.00  0.00     0.166 HD
HETATM   37  N   UNK N   1      39.138  12.708   8.298  0.00  0.00    -0.360 N 
HETATM   38  C   UNK N   1      38.625  13.742   7.610  0.00  0.00     0.114 A 
ATOM     39  HN  UNK N   1      39.972  12.712   8.884  1.00  0.00     0.166 HD
ENDBRANCH  32  33
ENDBRANCH  20  32
ENDBRANCH  17  20
ENDBRANCH  15  16
BRANCH  15  40
HETATM   40  C   UNK N   1      31.607  14.858   3.744  0.00  0.00     0.075 C 
BRANCH  40  41
HETATM   41  C   UNK N   1      32.021  13.553   3.120  0.00  0.00    -0.028 A 
HETATM   42  C   UNK N   1      31.827  12.246   3.522  0.00  0.00    -0.002 A 
HETATM   43  C   UNK N   1      32.485  11.458   2.618  0.00  0.00     0.042 A 
HETATM   44  C   UNK N   1      31.148  11.690   4.606  0.00  0.00     0.014 A 
HETATM   45  N   UNK N   1      33.066  12.197   1.660  0.00  0.00    -0.365 N 
HETATM   46  C   UNK N   1      32.530  10.072   2.739  0.00  0.00     0.030 A 
HETATM   47  C   UNK N   1      32.786  13.489   1.958  0.00  0.00     0.096 A 
HETATM   48  H   UNK N   1      33.590  11.868   0.893  0.00  0.00     0.165 HD
HETATM   49  C   UNK N   1      31.863   9.487   3.830  0.00  0.00     0.002 A 
HETATM   50  C   UNK N   1      31.168  10.293   4.755  0.00  0.00     0.001 A 
ENDBRANCH  40  41
ENDBRANCH  15  40
ENDBRANCH  12  15
ENDBRANCH  10  11
BRANCH  10  51
HETATM   51  C   UNK N   1      31.286  16.719   9.403  0.00  0.00     0.199 C 
BRANCH  51  52
HETATM   52  O   UNK N   1      32.409  17.465   9.040  0.00  0.00    -0.398 OA
HETATM   53  H   UNK N   1      33.204  17.750   9.518  0.00  0.00     0.209 HD
ENDBRANCH  51  52
ENDBRANCH  10  51
ENDBRANCH   7  10
ENDBRANCH   5   6
BRANCH   5  54
HETATM   54  C   UNK N   1      27.620  19.235   6.045  0.00  0.00     0.073 C 
BRANCH  54  55
HETATM   55  C   UNK N   1      26.676  19.644   4.955  0.00  0.00    -0.056 A 
HETATM   56  C   UNK N   1      27.142  20.317   3.815  0.00  0.00     0.010 A 
HETATM   57  C   UNK N   1      26.243  20.702   2.811  0.00  0.00     0.037 A 
HETATM   58  C   UNK N   1      24.880  20.420   2.946  0.00  0.00     0.065 A 
HETATM   59  C   UNK N   1      24.414  19.753   4.083  0.00  0.00     0.037 A 
HETATM   60  C   UNK N   1      25.312  19.364   5.083  0.00  0.00     0.010 A 
BRANCH  58  61
HETATM   61  O   UNK N   1      24.017  20.789   1.985  0.00  0.00    -0.361 OA
HETATM   62  H   UNK N   1      24.336  21.060   1.147  0.00  0.00     0.217 HD
ENDBRANCH  58  61
ENDBRANCH  54  55
ENDBRANCH   5  54
ENDBRANCH   3   5
BRANCH   2  63
HETATM   63  C   UNK N   1      27.709  15.920   3.651  0.00  0.00     0.180 C 
BRANCH  63  64
HETATM   64  C   UNK N   1      26.369  16.476   3.390  0.00  0.00     0.241 C 
HETATM   65  O   UNK N   1      26.177  17.124   2.368  0.00  0.00    -0.271 OA
HETATM   66  N   UNK N   1      25.348  15.873   4.030  0.00  0.00    -0.346 N 
HETATM   67  H   UNK N   1      25.368  15.792   5.011  0.00  0.00     0.163 HD
BRANCH  66  68
HETATM   68  C   UNK N   1      24.232  15.348   3.298  0.00  0.00     0.177 C 
BRANCH  68  69
HETATM   69  C   UNK N   1      23.026  15.731   4.122  0.00  0.00     0.241 C 
HETATM   70  O   UNK N   1      22.936  16.876   4.539  0.00  0.00    -0.271 OA
HETATM   71  N   UNK N   1      21.898  14.986   4.075  0.00  0.00    -0.346 N 
HETATM   72  H   UNK N   1      21.101  15.427   3.703  0.00  0.00     0.163 HD
BRANCH  71  73
HETATM   73  C   UNK N   1      21.723  13.610   4.509  0.00  0.00     0.176 C 
BRANCH  73  74
HETATM   74  C   UNK N   1      21.767  13.486   6.049  0.00  0.00     0.243 C 
HETATM   75  O   UNK N   1      22.414  12.575   6.519  0.00  0.00    -0.271 OA
HETATM   76  N   UNK N   1      21.157  14.371   6.903  0.00  0.00    -0.337 N 
HETATM   77  C   UNK N   1      21.645  14.565   8.247  0.00  0.00     0.179 A 
HETATM   78  C   UNK N   1      20.106  15.273   6.539  0.00  0.00     0.127 A 
HETATM   79  C   UNK N   1      20.751  15.619   8.870  0.00  0.00     0.037 A 
HETATM   80  C   UNK N   1      19.768  16.056   7.792  0.00  0.00     0.022 A 
BRANCH  77  81
HETATM   81  C   UNK N   1      21.750  13.359   9.109  0.00  0.00     0.241 C 
HETATM   82  O   UNK N   1      20.725  12.770   9.424  0.00  0.00    -0.271 OA
HETATM   83  N   UNK N   1      22.960  12.873   9.466  0.00  0.00    -0.351 N 
HETATM   84  H   UNK N   1      23.767  13.414   9.303  0.00  0.00     0.163 HD
BRANCH  83  85
HETATM   85  C   UNK N   1      23.087  11.576  10.078  0.00  0.00     0.225 C 
BRANCH  85  86
HETATM   86  C   UNK N   1      23.400  11.779  11.528  0.00  0.00     0.233 C 
HETATM   87  O   UNK N   1      24.550  12.001  11.876  0.00  0.00    -0.272 OA
HETATM   88  N   UNK N   1      22.432  11.653  12.454  0.00  0.00    -0.369 N 
HETATM   89  H   UNK N   1      21.775  10.943  12.639  0.00  0.00     0.159 HD
HETATM   90  H   UNK N   1      22.366  12.421  13.065  0.00  0.00     0.159 HD
ENDBRANCH  85  86
ENDBRANCH  83  85
ENDBRANCH  77  81
ENDBRANCH  73  74
BRANCH  73  91
HETATM   91  C   UNK N   1      20.358  13.282   3.895  0.00  0.00     0.036 C 
BRANCH  91  92
HETATM   92  C   UNK N   1      20.441  13.444   2.354  0.00  0.00     0.023 C 
BRANCH  92  93
HETATM   93  C   UNK N   1      19.328  14.280   1.784  0.00  0.00     0.138 C 
BRANCH  93  94
HETATM   94  N   UNK N   1      19.859  15.558   1.402  0.00  0.00    -0.227 N 
HETATM   95  C   UNK N   1      19.359  16.219   0.419  0.00  0.00     0.665 C 
HETATM   96  N   UNK N   1      19.885  17.486   0.098  0.00  0.00    -0.235 N 
HETATM   97  N   UNK N   1      18.264  15.706  -0.318  0.00  0.00    -0.235 N 
HETATM   98  H   UNK N   1      19.967  18.197   0.775  0.00  0.00     0.174 HD
HETATM   99  H   UNK N   1      20.177  17.665  -0.825  0.00  0.00     0.174 HD
HETATM  100  H   UNK N   1      17.964  15.932  -1.228  0.00  0.00     0.174 HD
HETATM  101  H   UNK N   1      17.726  15.026   0.147  0.00  0.00     0.174 HD
ATOM    102  HN  UNK N   1      20.645  15.949   1.920  1.00  0.00     0.177 HD
ENDBRANCH  93  94
ENDBRANCH  92  93
ENDBRANCH  91  92
ENDBRANCH  73  91
ENDBRANCH  71  73
ENDBRANCH  68  69
BRANCH  68 103
HETATM  103  C   UNK N   1      24.323  13.846   3.009  0.00  0.00     0.038 C 
BRANCH 103 104
HETATM  104  C   UNK N   1      24.796  13.575   1.586  0.00  0.00    -0.020 C 
HETATM  105  C   UNK N   1      24.994  12.088   1.353  0.00  0.00     0.009 C 
HETATM  106  C   UNK N   1      23.756  14.083   0.613  0.00  0.00     0.009 C 
ENDBRANCH 103 104
ENDBRANCH  68 103
ENDBRANCH  66  68
ENDBRANCH  63  64
BRANCH  63 107
HETATM  107  C   UNK N   1      27.870  14.727   4.594  0.00  0.00     0.073 C 
BRANCH 107 108
HETATM  108  C   UNK N   1      27.856  13.516   3.766  0.00  0.00    -0.055 A 
HETATM  109  C   UNK N   1      28.488  13.550   2.529  0.00  0.00     0.019 A 
HETATM  110  C   UNK N   1      28.734  12.366   1.854  0.00  0.00    -0.025 A 
HETATM  111  C   UNK N   1      28.360  11.132   2.434  0.00  0.00    -0.026 A 
HETATM  112  C   UNK N   1      29.389  12.396   0.626  0.00  0.00     0.012 A 
HETATM  113  C   UNK N   1      27.708  11.107   3.668  0.00  0.00     0.013 A 
HETATM  114  C   UNK N   1      28.663   9.941   1.777  0.00  0.00     0.012 A 
HETATM  115  C   UNK N   1      27.465  12.302   4.341  0.00  0.00     0.008 A 
HETATM  116  C   UNK N   1      29.330   9.975   0.548  0.00  0.00     0.001 A 
HETATM  117  C   UNK N   1      29.686  11.199  -0.028  0.00  0.00     0.001 A 
ENDBRANCH 107 108
ENDBRANCH  63 107
ENDBRANCH   2  63
TORSDOF 35
ENDMDL
MODEL 4
REMARK VINA RESULT:      -8.6      4.011      8.337
REMARK WARNING: 32 MAX_TORS EXCEEDED!!!
REMARK  35 active torsions:
REMARK  status: ('A' for Active; 'I' for Inactive)
REMARK    1  A    between atoms: O_12  and  C_81 
REMARK    2  A    between atoms: O_13  and  C_97 
REMARK       I    between atoms: N_14  and  C_37 
REMARK    3  A    between atoms: C_38  and  N_15 
REMARK       I    between atoms: N_15  and  C_43 
REMARK       I    between atoms: N_16  and  C_39 
REMARK    4  A    between atoms: N_16  and  C_47 
REMARK    5  A    between atoms: C_42  and  N_17 
REMARK       I    between atoms: N_17  and  C_50 
REMARK    6  A    between atoms: N_18  and  C_46 
REMARK    7  A    between atoms: C_51  and  N_20 
REMARK       I    between atoms: N_20  and  C_56 
REMARK       I    between atoms: N_21  and  C_52 
REMARK    8  A    between atoms: C_55  and  N_23 
REMARK       I    between atoms: N_23  and  C_75 
REMARK    9  A    between atoms: C_61  and  N_24 
REMARK       I    between atoms: N_24  and  C_66 
REMARK   10  A    between atoms: C_60  and  N_25 
REMARK       I    between atoms: N_25  and  C_71 
REMARK   11  A    between atoms: C_69  and  N_26 
REMARK       I    between atoms: N_26  and  C_74 
REMARK       I    between atoms: N_27  and  C_57 
REMARK       I    between atoms: N_28  and  C_57 
REMARK   12  A    between atoms: C_33  and  C_39 
REMARK   13  A    between atoms: C_37  and  C_38 
REMARK   14  A    between atoms: C_38  and  C_40 
REMARK   15  A    between atoms: C_40  and  C_41 
REMARK   16  A    between atoms: C_41  and  C_46 
REMARK   17  A    between atoms: C_42  and  C_43 
REMARK   18  A    between atoms: C_42  and  C_44 
REMARK   19  A    between atoms: C_44  and  C_45 
REMARK   20  A    between atoms: C_47  and  C_52 
REMARK   21  A    between atoms: C_50  and  C_51 
REMARK   22  A    between atoms: C_51  and  C_53 
REMARK   23  A    between atoms: C_53  and  C_54 
REMARK   24  A    between atoms: C_55  and  C_56 
REMARK   25  A    between atoms: C_55  and  C_62 
REMARK   26  A    between atoms: C_58  and  C_66 
REMARK   27  A    between atoms: C_60  and  C_65 
REMARK   28  A    between atoms: C_60  and  C_74 
REMARK   29  A    between atoms: C_61  and  C_70 
REMARK   30  A    between atoms: C_61  and  C_71 
REMARK   31  A    between atoms: C_62  and  C_76 
REMARK   32  A    between atoms: C_65  and  C_72 
REMARK   33  A    between atoms: C_69  and  C_75 
REMARK   34  A    between atoms: C_69  and  C_81 
REMARK   35  A    between atoms: C_70  and  C_80 
ROOT
HETATM    1  O   UNK N   1      20.204  17.664   2.647  0.00  0.00    -0.271 OA
HETATM    2  N   UNK N   1      19.417  16.475   4.352  0.00  0.00    -0.346 N 
HETATM    3  C   UNK N   1      20.437  16.956   3.613  0.00  0.00     0.241 C 
HETATM    4  H   UNK N   1      18.501  16.783   4.166  0.00  0.00     0.163 HD
ENDROOT
BRANCH   3   5
HETATM    5  C   UNK N   1      21.858  16.741   4.031  0.00  0.00     0.180 C 
BRANCH   5   6
HETATM    6  N   UNK N   1      22.739  16.198   3.015  0.00  0.00    -0.346 N 
HETATM    7  C   UNK N   1      23.624  15.177   3.198  0.00  0.00     0.243 C 
HETATM    8  O   UNK N   1      23.450  14.322   4.055  0.00  0.00    -0.271 OA
HETATM    9  H   UNK N   1      22.695  16.601   2.117  0.00  0.00     0.163 HD
BRANCH   7  10
HETATM   10  C   UNK N   1      24.998  15.382   2.661  0.00  0.00     0.200 C 
BRANCH  10  11
HETATM   11  N   UNK N   1      25.845  15.083   3.794  0.00  0.00    -0.344 N 
HETATM   12  C   UNK N   1      27.051  15.667   4.050  0.00  0.00     0.241 C 
HETATM   13  O   UNK N   1      27.630  16.320   3.192  0.00  0.00    -0.271 OA
HETATM   14  H   UNK N   1      25.526  14.404   4.432  0.00  0.00     0.163 HD
BRANCH  12  15
HETATM   15  C   UNK N   1      27.644  15.507   5.420  0.00  0.00     0.181 C 
BRANCH  15  16
HETATM   16  N   UNK N   1      28.693  14.537   5.302  0.00  0.00    -0.346 N 
HETATM   17  C   UNK N   1      28.455  13.306   4.790  0.00  0.00     0.241 C 
HETATM   18  O   UNK N   1      27.340  12.809   4.859  0.00  0.00    -0.271 OA
HETATM   19  H   UNK N   1      29.602  14.770   5.599  0.00  0.00     0.163 HD
BRANCH  17  20
HETATM   20  C   UNK N   1      29.410  12.804   3.757  0.00  0.00     0.182 C 
BRANCH  20  21
HETATM   21  N   UNK N   1      28.602  12.582   2.573  0.00  0.00    -0.346 N 
HETATM   22  C   UNK N   1      28.604  11.492   1.756  0.00  0.00     0.241 C 
HETATM   23  O   UNK N   1      27.807  11.465   0.833  0.00  0.00    -0.271 OA
HETATM   24  H   UNK N   1      27.978  13.305   2.332  0.00  0.00     0.163 HD
BRANCH  22  25
HETATM   25  C   UNK N   1      29.566  10.323   1.881  0.00  0.00     0.177 C 
HETATM   26  N   UNK N   1      30.828  10.580   1.254  0.00  0.00    -0.348 N 
HETATM   27  C   UNK N   1      31.262   9.516   0.580  0.00  0.00     0.218 C 
HETATM   28  H   UNK N   1      31.313  11.435   1.313  0.00  0.00     0.163 HD
HETATM   29  O   UNK N   1      32.341   9.502   0.012  0.00  0.00    -0.274 OA
HETATM   30  C   UNK N   1      30.345   8.360   0.612  0.00  0.00     0.105 C 
HETATM   31  C   UNK N   1      29.135   8.942   1.354  0.00  0.00     0.044 C 
ENDBRANCH  22  25
ENDBRANCH  20  21
BRANCH  20  32
HETATM   32  C   UNK N   1      30.446  13.895   3.476  0.00  0.00     0.093 C 
BRANCH  32  33
HETATM   33  C   UNK N   1      31.825  13.573   3.963  0.00  0.00     0.028 A 
HETATM   34  N   UNK N   1      32.731  12.919   3.221  0.00  0.00    -0.354 N 
HETATM   35  C   UNK N   1      33.816  12.807   4.014  0.00  0.00     0.180 A 
HETATM   36  H   UNK N   1      32.626  12.592   2.300  0.00  0.00     0.166 HD
HETATM   37  N   UNK N   1      33.613  13.370   5.223  0.00  0.00    -0.360 N 
HETATM   38  C   UNK N   1      32.360  13.854   5.197  0.00  0.00     0.114 A 
ATOM     39  HN  UNK N   1      34.276  13.418   5.997  1.00  0.00     0.166 HD
ENDBRANCH  32  33
ENDBRANCH  20  32
ENDBRANCH  17  20
ENDBRANCH  15  16
BRANCH  15  40
HETATM   40  C   UNK N   1      28.090  16.817   6.089  0.00  0.00     0.075 C 
BRANCH  40  41
HETATM   41  C   UNK N   1      29.519  17.017   6.515  0.00  0.00    -0.028 A 
HETATM   42  C   UNK N   1      30.672  17.212   5.780  0.00  0.00    -0.002 A 
HETATM   43  C   UNK N   1      31.704  17.255   6.678  0.00  0.00     0.042 A 
HETATM   44  C   UNK N   1      30.901  17.337   4.410  0.00  0.00     0.014 A 
HETATM   45  N   UNK N   1      31.260  17.116   7.937  0.00  0.00    -0.365 N 
HETATM   46  C   UNK N   1      33.028  17.404   6.276  0.00  0.00     0.030 A 
HETATM   47  C   UNK N   1      29.915  16.970   7.849  0.00  0.00     0.096 A 
HETATM   48  H   UNK N   1      31.801  17.120   8.760  0.00  0.00     0.165 HD
HETATM   49  C   UNK N   1      33.287  17.521   4.899  0.00  0.00     0.002 A 
HETATM   50  C   UNK N   1      32.226  17.495   3.971  0.00  0.00     0.001 A 
ENDBRANCH  40  41
ENDBRANCH  15  40
ENDBRANCH  12  15
ENDBRANCH  10  11
BRANCH  10  51
HETATM   51  C   UNK N   1      25.324  14.348   1.575  0.00  0.00     0.199 C 
BRANCH  51  52
HETATM   52  O   UNK N   1      25.619  13.103   2.135  0.00  0.00    -0.398 OA
HETATM   53  H   UNK N   1      25.468  12.190   1.848  0.00  0.00     0.209 HD
ENDBRANCH  51  52
ENDBRANCH  10  51
ENDBRANCH   7  10
ENDBRANCH   5   6
BRANCH   5  54
HETATM   54  C   UNK N   1      22.503  17.704   5.013  0.00  0.00     0.073 C 
BRANCH  54  55
HETATM   55  C   UNK N   1      23.423  18.626   4.271  0.00  0.00    -0.056 A 
HETATM   56  C   UNK N   1      24.815  18.512   4.400  0.00  0.00     0.010 A 
HETATM   57  C   UNK N   1      25.659  19.391   3.708  0.00  0.00     0.037 A 
HETATM   58  C   UNK N   1      25.114  20.387   2.891  0.00  0.00     0.065 A 
HETATM   59  C   UNK N   1      23.726  20.504   2.764  0.00  0.00     0.037 A 
HETATM   60  C   UNK N   1      22.884  19.623   3.451  0.00  0.00     0.010 A 
BRANCH  58  61
HETATM   61  O   UNK N   1      25.921  21.231   2.227  0.00  0.00    -0.361 OA
HETATM   62  H   UNK N   1      26.524  20.900   1.592  0.00  0.00     0.217 HD
ENDBRANCH  58  61
ENDBRANCH  54  55
ENDBRANCH   5  54
ENDBRANCH   3   5
BRANCH   2  63
HETATM   63  C   UNK N   1      19.636  15.518   5.411  0.00  0.00     0.180 C 
BRANCH  63  64
HETATM   64  C   UNK N   1      19.137  14.174   5.070  0.00  0.00     0.241 C 
HETATM   65  O   UNK N   1      17.933  13.999   4.926  0.00  0.00    -0.271 OA
HETATM   66  N   UNK N   1      20.031  13.343   4.500  0.00  0.00    -0.346 N 
HETATM   67  H   UNK N   1      20.882  13.155   4.957  0.00  0.00     0.163 HD
BRANCH  66  68
HETATM   68  C   UNK N   1      19.756  12.728   3.234  0.00  0.00     0.177 C 
BRANCH  68  69
HETATM   69  C   UNK N   1      19.627  11.256   3.548  0.00  0.00     0.241 C 
HETATM   70  O   UNK N   1      18.620  10.861   4.116  0.00  0.00    -0.271 OA
HETATM   71  N   UNK N   1      20.378  10.346   2.888  0.00  0.00    -0.346 N 
HETATM   72  H   UNK N   1      19.888   9.708   2.321  0.00  0.00     0.163 HD
BRANCH  71  73
HETATM   73  C   UNK N   1      21.823  10.196   2.918  0.00  0.00     0.176 C 
BRANCH  73  74
HETATM   74  C   UNK N   1      22.267   9.141   3.956  0.00  0.00     0.243 C 
HETATM   75  O   UNK N   1      22.280   7.981   3.605  0.00  0.00    -0.271 OA
HETATM   76  N   UNK N   1      22.687   9.450   5.226  0.00  0.00    -0.337 N 
HETATM   77  C   UNK N   1      23.581   8.577   5.947  0.00  0.00     0.179 A 
HETATM   78  C   UNK N   1      22.422  10.684   5.903  0.00  0.00     0.127 A 
HETATM   79  C   UNK N   1      23.839   9.249   7.281  0.00  0.00     0.037 A 
HETATM   80  C   UNK N   1      23.093  10.577   7.257  0.00  0.00     0.022 A 
BRANCH  77  81
HETATM   81  C   UNK N   1      23.153   7.164   6.121  0.00  0.00     0.241 C 
HETATM   82  O   UNK N   1      22.182   6.927   6.827  0.00  0.00    -0.271 OA
HETATM   83  N   UNK N   1      23.771   6.171   5.444  0.00  0.00    -0.351 N 
HETATM   84  H   UNK N   1      24.614   6.357   4.972  0.00  0.00     0.163 HD
BRANCH  83  85
HETATM   85  C   UNK N   1      23.213   4.844   5.402  0.00  0.00     0.225 C 
BRANCH  85  86
HETATM   86  C   UNK N   1      22.094   4.846   4.407  0.00  0.00     0.233 C 
HETATM   87  O   UNK N   1      20.952   4.616   4.777  0.00  0.00    -0.272 OA
HETATM   88  N   UNK N   1      22.349   5.036   3.099  0.00  0.00    -0.369 N 
HETATM   89  H   UNK N   1      22.976   4.606   2.474  0.00  0.00     0.159 HD
HETATM   90  H   UNK N   1      21.803   5.744   2.688  0.00  0.00     0.159 HD
ENDBRANCH  85  86
ENDBRANCH  83  85
ENDBRANCH  77  81
ENDBRANCH  73  74
BRANCH  73  91
HETATM   91  C   UNK N   1      22.106   9.801   1.465  0.00  0.00     0.036 C 
BRANCH  91  92
HETATM   92  C   UNK N   1      23.323  10.611   0.945  0.00  0.00     0.023 C 
BRANCH  92  93
HETATM   93  C   UNK N   1      24.616   9.843   1.002  0.00  0.00     0.138 C 
BRANCH  93  94
HETATM   94  N   UNK N   1      25.353  10.264   2.160  0.00  0.00    -0.227 N 
HETATM   95  C   UNK N   1      25.757   9.416   3.035  0.00  0.00     0.665 C 
HETATM   96  N   UNK N   1      26.509   9.865   4.139  0.00  0.00    -0.235 N 
HETATM   97  N   UNK N   1      25.488   8.033   2.884  0.00  0.00    -0.235 N 
HETATM   98  H   UNK N   1      27.321  10.409   4.023  0.00  0.00     0.174 HD
HETATM   99  H   UNK N   1      26.215   9.627   5.048  0.00  0.00     0.174 HD
HETATM  100  H   UNK N   1      25.472   7.322   3.565  0.00  0.00     0.174 HD
HETATM  101  H   UNK N   1      25.290   7.741   1.965  0.00  0.00     0.174 HD
ATOM    102  HN  UNK N   1      25.560  11.254   2.288  1.00  0.00     0.177 HD
ENDBRANCH  93  94
ENDBRANCH  92  93
ENDBRANCH  91  92
ENDBRANCH  73  91
ENDBRANCH  71  73
ENDBRANCH  68  69
BRANCH  68 103
HETATM  103  C   UNK N   1      20.797  13.032   2.151  0.00  0.00     0.038 C 
BRANCH 103 104
HETATM  104  C   UNK N   1      20.139  13.430   0.835  0.00  0.00    -0.020 C 
HETATM  105  C   UNK N   1      19.304  12.290   0.279  0.00  0.00     0.009 C 
HETATM  106  C   UNK N   1      19.236  14.619   1.071  0.00  0.00     0.009 C 
ENDBRANCH 103 104
ENDBRANCH  68 103
ENDBRANCH  66  68
ENDBRANCH  63  64
BRANCH  63 107
HETATM  107  C   UNK N   1      19.713  15.956   6.874  0.00  0.00     0.073 C 
BRANCH 107 108
HETATM  108  C   UNK N   1      20.600  15.011   7.561  0.00  0.00    -0.055 A 
HETATM  109  C   UNK N   1      21.910  14.885   7.116  0.00  0.00     0.019 A 
HETATM  110  C   UNK N   1      22.839  14.224   7.901  0.00  0.00    -0.025 A 
HETATM  111  C   UNK N   1      22.456  13.700   9.158  0.00  0.00    -0.026 A 
HETATM  112  C   UNK N   1      24.158  14.118   7.469  0.00  0.00     0.012 A 
HETATM  113  C   UNK N   1      21.133  13.814   9.590  0.00  0.00     0.013 A 
HETATM  114  C   UNK N   1      23.409  13.087   9.970  0.00  0.00     0.012 A 
HETATM  115  C   UNK N   1      20.205  14.480   8.795  0.00  0.00     0.008 A 
HETATM  116  C   UNK N   1      24.734  12.992   9.534  0.00  0.00     0.001 A 
HETATM  117  C   UNK N   1      25.106  13.500   8.285  0.00  0.00     0.001 A 
ENDBRANCH 107 108
ENDBRANCH  63 107
ENDBRANCH   2  63
TORSDOF 35
ENDMDL
MODEL 5
REMARK VINA RESULT:      -8.5      2.336      4.096
REMARK WARNING: 32 MAX_TORS EXCEEDED!!!
REMARK  35 active torsions:
REMARK  status: ('A' for Active; 'I' for Inactive)
REMARK    1  A    between atoms: O_12  and  C_81 
REMARK    2  A    between atoms: O_13  and  C_97 
REMARK       I    between atoms: N_14  and  C_37 
REMARK    3  A    between atoms: C_38  and  N_15 
REMARK       I    between atoms: N_15  and  C_43 
REMARK       I    between atoms: N_16  and  C_39 
REMARK    4  A    between atoms: N_16  and  C_47 
REMARK    5  A    between atoms: C_42  and  N_17 
REMARK       I    between atoms: N_17  and  C_50 
REMARK    6  A    between atoms: N_18  and  C_46 
REMARK    7  A    between atoms: C_51  and  N_20 
REMARK       I    between atoms: N_20  and  C_56 
REMARK       I    between atoms: N_21  and  C_52 
REMARK    8  A    between atoms: C_55  and  N_23 
REMARK       I    between atoms: N_23  and  C_75 
REMARK    9  A    between atoms: C_61  and  N_24 
REMARK       I    between atoms: N_24  and  C_66 
REMARK   10  A    between atoms: C_60  and  N_25 
REMARK       I    between atoms: N_25  and  C_71 
REMARK   11  A    between atoms: C_69  and  N_26 
REMARK       I    between atoms: N_26  and  C_74 
REMARK       I    between atoms: N_27  and  C_57 
REMARK       I    between atoms: N_28  and  C_57 
REMARK   12  A    between atoms: C_33  and  C_39 
REMARK   13  A    between atoms: C_37  and  C_38 
REMARK   14  A    between atoms: C_38  and  C_40 
REMARK   15  A    between atoms: C_40  and  C_41 
REMARK   16  A    between atoms: C_41  and  C_46 
REMARK   17  A    between atoms: C_42  and  C_43 
REMARK   18  A    between atoms: C_42  and  C_44 
REMARK   19  A    between atoms: C_44  and  C_45 
REMARK   20  A    between atoms: C_47  and  C_52 
REMARK   21  A    between atoms: C_50  and  C_51 
REMARK   22  A    between atoms: C_51  and  C_53 
REMARK   23  A    between atoms: C_53  and  C_54 
REMARK   24  A    between atoms: C_55  and  C_56 
REMARK   25  A    between atoms: C_55  and  C_62 
REMARK   26  A    between atoms: C_58  and  C_66 
REMARK   27  A    between atoms: C_60  and  C_65 
REMARK   28  A    between atoms: C_60  and  C_74 
REMARK   29  A    between atoms: C_61  and  C_70 
REMARK   30  A    between atoms: C_61  and  C_71 
REMARK   31  A    between atoms: C_62  and  C_76 
REMARK   32  A    between atoms: C_65  and  C_72 
REMARK   33  A    between atoms: C_69  and  C_75 
REMARK   34  A    between atoms: C_69  and  C_81 
REMARK   35  A    between atoms: C_70  and  C_80 
ROOT
HETATM    1  O   UNK N   1      30.019  15.017   5.013  0.00  0.00    -0.271 OA
HETATM    2  N   UNK N   1      28.008  14.763   4.101  0.00  0.00    -0.346 N 
HETATM    3  C   UNK N   1      28.877  15.428   4.890  0.00  0.00     0.241 C 
HETATM    4  H   UNK N   1      28.334  14.012   3.552  0.00  0.00     0.163 HD
ENDROOT
BRANCH   3   5
HETATM    5  C   UNK N   1      28.502  16.733   5.518  0.00  0.00     0.180 C 
BRANCH   5   6
HETATM    6  N   UNK N   1      28.517  16.763   6.967  0.00  0.00    -0.346 N 
HETATM    7  C   UNK N   1      29.410  17.450   7.736  0.00  0.00     0.243 C 
HETATM    8  O   UNK N   1      29.973  18.454   7.324  0.00  0.00    -0.271 OA
HETATM    9  H   UNK N   1      27.824  16.243   7.436  0.00  0.00     0.163 HD
BRANCH   7  10
HETATM   10  C   UNK N   1      30.011  16.710   8.880  0.00  0.00     0.200 C 
BRANCH  10  11
HETATM   11  N   UNK N   1      31.367  17.213   8.923  0.00  0.00    -0.344 N 
HETATM   12  C   UNK N   1      32.486  16.478   8.664  0.00  0.00     0.241 C 
HETATM   13  O   UNK N   1      32.442  15.256   8.617  0.00  0.00    -0.271 OA
HETATM   14  H   UNK N   1      31.491  18.161   9.158  0.00  0.00     0.163 HD
BRANCH  12  15
HETATM   15  C   UNK N   1      33.776  17.207   8.417  0.00  0.00     0.181 C 
BRANCH  15  16
HETATM   16  N   UNK N   1      34.832  16.279   8.697  0.00  0.00    -0.346 N 
HETATM   17  C   UNK N   1      35.483  16.296   9.885  0.00  0.00     0.241 C 
HETATM   18  O   UNK N   1      35.557  17.327  10.539  0.00  0.00    -0.271 OA
HETATM   19  H   UNK N   1      35.088  15.619   8.015  0.00  0.00     0.163 HD
BRANCH  17  20
HETATM   20  C   UNK N   1      35.673  14.985  10.574  0.00  0.00     0.182 C 
BRANCH  20  21
HETATM   21  N   UNK N   1      37.094  14.707  10.469  0.00  0.00    -0.346 N 
HETATM   22  C   UNK N   1      37.722  13.917   9.554  0.00  0.00     0.241 C 
HETATM   23  O   UNK N   1      38.940  13.850   9.595  0.00  0.00    -0.271 OA
HETATM   24  H   UNK N   1      37.671  15.141  11.139  0.00  0.00     0.163 HD
BRANCH  22  25
HETATM   25  C   UNK N   1      37.011  13.070   8.514  0.00  0.00     0.177 C 
HETATM   26  N   UNK N   1      36.577  11.807   9.035  0.00  0.00    -0.348 N 
HETATM   27  C   UNK N   1      36.803  10.820   8.170  0.00  0.00     0.218 C 
HETATM   28  H   UNK N   1      36.165  11.685   9.921  0.00  0.00     0.163 HD
HETATM   29  O   UNK N   1      36.465   9.670   8.392  0.00  0.00    -0.274 OA
HETATM   30  C   UNK N   1      37.460  11.246   6.918  0.00  0.00     0.105 C 
HETATM   31  C   UNK N   1      37.742  12.727   7.203  0.00  0.00     0.044 C 
ENDBRANCH  22  25
ENDBRANCH  20  21
BRANCH  20  32
HETATM   32  C   UNK N   1      35.286  15.143  12.046  0.00  0.00     0.093 C 
BRANCH  32  33
HETATM   33  C   UNK N   1      35.268  13.861  12.818  0.00  0.00     0.028 A 
HETATM   34  N   UNK N   1      34.630  12.759  12.395  0.00  0.00    -0.354 N 
HETATM   35  C   UNK N   1      34.827  11.846  13.367  0.00  0.00     0.180 A 
HETATM   36  H   UNK N   1      34.126  12.643  11.558  0.00  0.00     0.166 HD
HETATM   37  N   UNK N   1      35.567  12.344  14.380  0.00  0.00    -0.360 N 
HETATM   38  C   UNK N   1      35.848  13.614  14.039  0.00  0.00     0.114 A 
ATOM     39  HN  UNK N   1      35.855  11.857  15.228  1.00  0.00     0.166 HD
ENDBRANCH  32  33
ENDBRANCH  20  32
ENDBRANCH  17  20
ENDBRANCH  15  16
BRANCH  15  40
HETATM   40  C   UNK N   1      33.889  17.869   7.035  0.00  0.00     0.075 C 
BRANCH  40  41
HETATM   41  C   UNK N   1      33.484  17.127   5.790  0.00  0.00    -0.028 A 
HETATM   42  C   UNK N   1      34.005  15.998   5.190  0.00  0.00    -0.002 A 
HETATM   43  C   UNK N   1      33.297  15.808   4.035  0.00  0.00     0.042 A 
HETATM   44  C   UNK N   1      35.043  15.139   5.550  0.00  0.00     0.014 A 
HETATM   45  N   UNK N   1      32.348  16.745   3.886  0.00  0.00    -0.365 N 
HETATM   46  C   UNK N   1      33.585  14.769   3.153  0.00  0.00     0.030 A 
HETATM   47  C   UNK N   1      32.453  17.563   4.962  0.00  0.00     0.096 A 
HETATM   48  H   UNK N   1      31.704  16.824   3.145  0.00  0.00     0.165 HD
HETATM   49  C   UNK N   1      34.634  13.896   3.488  0.00  0.00     0.002 A 
HETATM   50  C   UNK N   1      35.356  14.076   4.687  0.00  0.00     0.001 A 
ENDBRANCH  40  41
ENDBRANCH  15  40
ENDBRANCH  12  15
ENDBRANCH  10  11
BRANCH  10  51
HETATM   51  C   UNK N   1      29.345  17.107  10.204  0.00  0.00     0.199 C 
BRANCH  51  52
HETATM   52  O   UNK N   1      29.724  16.248  11.237  0.00  0.00    -0.398 OA
HETATM   53  H   UNK N   1      29.263  15.895  12.014  0.00  0.00     0.209 HD
ENDBRANCH  51  52
ENDBRANCH  10  51
ENDBRANCH   7  10
ENDBRANCH   5   6
BRANCH   5  54
HETATM   54  C   UNK N   1      28.886  18.032   4.830  0.00  0.00     0.073 C 
BRANCH  54  55
HETATM   55  C   UNK N   1      27.645  18.818   4.530  0.00  0.00    -0.056 A 
HETATM   56  C   UNK N   1      26.805  18.458   3.466  0.00  0.00     0.010 A 
HETATM   57  C   UNK N   1      25.656  19.211   3.192  0.00  0.00     0.037 A 
HETATM   58  C   UNK N   1      25.346  20.327   3.978  0.00  0.00     0.065 A 
HETATM   59  C   UNK N   1      26.185  20.689   5.037  0.00  0.00     0.037 A 
HETATM   60  C   UNK N   1      27.330  19.934   5.313  0.00  0.00     0.010 A 
BRANCH  58  61
HETATM   61  O   UNK N   1      24.246  21.051   3.717  0.00  0.00    -0.361 OA
HETATM   62  H   UNK N   1      23.583  21.148   4.372  0.00  0.00     0.217 HD
ENDBRANCH  58  61
ENDBRANCH  54  55
ENDBRANCH   5  54
ENDBRANCH   3   5
BRANCH   2  63
HETATM   63  C   UNK N   1      26.612  15.125   4.040  0.00  0.00     0.180 C 
BRANCH  63  64
HETATM   64  C   UNK N   1      25.892  14.814   5.288  0.00  0.00     0.241 C 
HETATM   65  O   UNK N   1      25.450  15.730   5.970  0.00  0.00    -0.271 OA
HETATM   66  N   UNK N   1      25.372  13.574   5.371  0.00  0.00    -0.346 N 
HETATM   67  H   UNK N   1      25.957  12.791   5.250  0.00  0.00     0.163 HD
BRANCH  66  68
HETATM   68  C   UNK N   1      23.976  13.381   5.635  0.00  0.00     0.177 C 
BRANCH  68  69
HETATM   69  C   UNK N   1      23.844  13.561   7.129  0.00  0.00     0.241 C 
HETATM   70  O   UNK N   1      24.659  13.021   7.861  0.00  0.00    -0.271 OA
HETATM   71  N   UNK N   1      23.121  14.585   7.635  0.00  0.00    -0.346 N 
HETATM   72  H   UNK N   1      23.622  15.258   8.150  0.00  0.00     0.163 HD
BRANCH  71  73
HETATM   73  C   UNK N   1      21.691  14.810   7.511  0.00  0.00     0.176 C 
BRANCH  73  74
HETATM   74  C   UNK N   1      21.276  15.054   6.043  0.00  0.00     0.243 C 
HETATM   75  O   UNK N   1      20.707  14.152   5.464  0.00  0.00    -0.271 OA
HETATM   76  N   UNK N   1      21.474  16.240   5.380  0.00  0.00    -0.337 N 
HETATM   77  C   UNK N   1      20.631  16.625   4.275  0.00  0.00     0.179 A 
HETATM   78  C   UNK N   1      22.401  17.258   5.775  0.00  0.00     0.127 A 
HETATM   79  C   UNK N   1      21.126  17.984   3.822  0.00  0.00     0.037 A 
HETATM   80  C   UNK N   1      22.256  18.377   4.764  0.00  0.00     0.022 A 
BRANCH  77  81
HETATM   81  C   UNK N   1      20.530  15.673   3.137  0.00  0.00     0.241 C 
HETATM   82  O   UNK N   1      21.537  15.421   2.490  0.00  0.00    -0.271 OA
HETATM   83  N   UNK N   1      19.367  15.034   2.878  0.00  0.00    -0.351 N 
HETATM   84  H   UNK N   1      18.542  15.326   3.329  0.00  0.00     0.163 HD
BRANCH  83  85
HETATM   85  C   UNK N   1      19.318  13.931   1.954  0.00  0.00     0.225 C 
BRANCH  85  86
HETATM   86  C   UNK N   1      19.065  12.682   2.739  0.00  0.00     0.233 C 
HETATM   87  O   UNK N   1      17.921  12.289   2.904  0.00  0.00    -0.272 OA
HETATM   88  N   UNK N   1      20.089  12.026   3.317  0.00  0.00    -0.369 N 
HETATM   89  H   UNK N   1      20.815  12.318   3.914  0.00  0.00     0.159 HD
HETATM   90  H   UNK N   1      20.117  11.066   3.099  0.00  0.00     0.159 HD
ENDBRANCH  85  86
ENDBRANCH  83  85
ENDBRANCH  77  81
ENDBRANCH  73  74
BRANCH  73  91
HETATM   91  C   UNK N   1      21.138  13.513   8.110  0.00  0.00     0.036 C 
BRANCH  91  92
HETATM   92  C   UNK N   1      20.804  13.745   9.607  0.00  0.00     0.023 C 
BRANCH  92  93
HETATM   93  C   UNK N   1      21.280  12.633  10.502  0.00  0.00     0.138 C 
BRANCH  93  94
HETATM   94  N   UNK N   1      22.611  12.935  10.946  0.00  0.00    -0.227 N 
HETATM   95  C   UNK N   1      23.606  12.189  10.621  0.00  0.00     0.665 C 
HETATM   96  N   UNK N   1      24.902  12.539  11.047  0.00  0.00    -0.235 N 
HETATM   97  N   UNK N   1      23.418  11.043   9.810  0.00  0.00    -0.235 N 
HETATM   98  H   UNK N   1      25.279  13.432  10.872  0.00  0.00     0.174 HD
HETATM   99  H   UNK N   1      25.445  11.874  11.529  0.00  0.00     0.174 HD
HETATM  100  H   UNK N   1      23.989  10.246   9.714  0.00  0.00     0.174 HD
HETATM  101  H   UNK N   1      22.599  11.042   9.264  0.00  0.00     0.174 HD
ATOM    102  HN  UNK N   1      22.770  13.756  11.528  1.00  0.00     0.177 HD
ENDBRANCH  93  94
ENDBRANCH  92  93
ENDBRANCH  91  92
ENDBRANCH  73  91
ENDBRANCH  71  73
ENDBRANCH  68  69
BRANCH  68 103
HETATM  103  C   UNK N   1      23.422  12.045   5.130  0.00  0.00     0.038 C 
BRANCH 103 104
HETATM  104  C   UNK N   1      24.436  10.919   5.290  0.00  0.00    -0.020 C 
HETATM  105  C   UNK N   1      24.064  10.013   6.449  0.00  0.00     0.009 C 
HETATM  106  C   UNK N   1      24.466  10.095   4.022  0.00  0.00     0.009 C 
ENDBRANCH 103 104
ENDBRANCH  68 103
ENDBRANCH  66  68
ENDBRANCH  63  64
BRANCH  63 107
HETATM  107  C   UNK N   1      25.857  15.158   2.710  0.00  0.00     0.073 C 
BRANCH 107 108
HETATM  108  C   UNK N   1      25.660  13.766   2.292  0.00  0.00    -0.055 A 
HETATM  109  C   UNK N   1      24.415  13.388   1.805  0.00  0.00     0.019 A 
HETATM  110  C   UNK N   1      24.275  12.176   1.150  0.00  0.00    -0.025 A 
HETATM  111  C   UNK N   1      25.402  11.341   0.962  0.00  0.00    -0.026 A 
HETATM  112  C   UNK N   1      23.034  11.806   0.640  0.00  0.00     0.012 A 
HETATM  113  C   UNK N   1      26.646  11.719   1.471  0.00  0.00     0.013 A 
HETATM  114  C   UNK N   1      25.267  10.150   0.251  0.00  0.00     0.012 A 
HETATM  115  C   UNK N   1      26.778  12.939   2.128  0.00  0.00     0.008 A 
HETATM  116  C   UNK N   1      24.020   9.788  -0.268  0.00  0.00     0.001 A 
HETATM  117  C   UNK N   1      22.906  10.611  -0.068  0.00  0.00     0.001 A 
ENDBRANCH 107 108
ENDBRANCH  63 107
ENDBRANCH   2  63
TORSDOF 35
ENDMDL
MODEL 6
REMARK VINA RESULT:      -8.5      2.862     10.700
REMARK WARNING: 32 MAX_TORS EXCEEDED!!!
REMARK  35 active torsions:
REMARK  status: ('A' for Active; 'I' for Inactive)
REMARK    1  A    between atoms: O_12  and  C_81 
REMARK    2  A    between atoms: O_13  and  C_97 
REMARK       I    between atoms: N_14  and  C_37 
REMARK    3  A    between atoms: C_38  and  N_15 
REMARK       I    between atoms: N_15  and  C_43 
REMARK       I    between atoms: N_16  and  C_39 
REMARK    4  A    between atoms: N_16  and  C_47 
REMARK    5  A    between atoms: C_42  and  N_17 
REMARK       I    between atoms: N_17  and  C_50 
REMARK    6  A    between atoms: N_18  and  C_46 
REMARK    7  A    between atoms: C_51  and  N_20 
REMARK       I    between atoms: N_20  and  C_56 
REMARK       I    between atoms: N_21  and  C_52 
REMARK    8  A    between atoms: C_55  and  N_23 
REMARK       I    between atoms: N_23  and  C_75 
REMARK    9  A    between atoms: C_61  and  N_24 
REMARK       I    between atoms: N_24  and  C_66 
REMARK   10  A    between atoms: C_60  and  N_25 
REMARK       I    between atoms: N_25  and  C_71 
REMARK   11  A    between atoms: C_69  and  N_26 
REMARK       I    between atoms: N_26  and  C_74 
REMARK       I    between atoms: N_27  and  C_57 
REMARK       I    between atoms: N_28  and  C_57 
REMARK   12  A    between atoms: C_33  and  C_39 
REMARK   13  A    between atoms: C_37  and  C_38 
REMARK   14  A    between atoms: C_38  and  C_40 
REMARK   15  A    between atoms: C_40  and  C_41 
REMARK   16  A    between atoms: C_41  and  C_46 
REMARK   17  A    between atoms: C_42  and  C_43 
REMARK   18  A    between atoms: C_42  and  C_44 
REMARK   19  A    between atoms: C_44  and  C_45 
REMARK   20  A    between atoms: C_47  and  C_52 
REMARK   21  A    between atoms: C_50  and  C_51 
REMARK   22  A    between atoms: C_51  and  C_53 
REMARK   23  A    between atoms: C_53  and  C_54 
REMARK   24  A    between atoms: C_55  and  C_56 
REMARK   25  A    between atoms: C_55  and  C_62 
REMARK   26  A    between atoms: C_58  and  C_66 
REMARK   27  A    between atoms: C_60  and  C_65 
REMARK   28  A    between atoms: C_60  and  C_74 
REMARK   29  A    between atoms: C_61  and  C_70 
REMARK   30  A    between atoms: C_61  and  C_71 
REMARK   31  A    between atoms: C_62  and  C_76 
REMARK   32  A    between atoms: C_65  and  C_72 
REMARK   33  A    between atoms: C_69  and  C_75 
REMARK   34  A    between atoms: C_69  and  C_81 
REMARK   35  A    between atoms: C_70  and  C_80 
ROOT
HETATM    1  O   UNK N   1      23.488  14.928   0.463  0.00  0.00    -0.271 OA
HETATM    2  N   UNK N   1      24.886  13.801   1.774  0.00  0.00    -0.346 N 
HETATM    3  C   UNK N   1      23.683  14.358   1.525  0.00  0.00     0.241 C 
HETATM    4  H   UNK N   1      25.560  13.772   1.056  0.00  0.00     0.163 HD
ENDROOT
BRANCH   3   5
HETATM    5  C   UNK N   1      22.541  14.179   2.475  0.00  0.00     0.180 C 
BRANCH   5   6
HETATM    6  N   UNK N   1      21.870  12.896   2.420  0.00  0.00    -0.346 N 
HETATM    7  C   UNK N   1      20.596  12.686   1.981  0.00  0.00     0.243 C 
HETATM    8  O   UNK N   1      20.064  13.434   1.173  0.00  0.00    -0.271 OA
HETATM    9  H   UNK N   1      22.376  12.109   2.727  0.00  0.00     0.163 HD
BRANCH   7  10
HETATM   10  C   UNK N   1      19.732  11.821   2.832  0.00  0.00     0.200 C 
BRANCH  10  11
HETATM   11  N   UNK N   1      20.582  11.514   3.961  0.00  0.00    -0.344 N 
HETATM   12  C   UNK N   1      20.749  10.273   4.504  0.00  0.00     0.241 C 
HETATM   13  O   UNK N   1      19.989   9.356   4.227  0.00  0.00    -0.271 OA
HETATM   14  H   UNK N   1      21.079  12.259   4.370  0.00  0.00     0.163 HD
BRANCH  12  15
HETATM   15  C   UNK N   1      21.905  10.055   5.438  0.00  0.00     0.181 C 
BRANCH  15  16
HETATM   16  N   UNK N   1      21.593  10.757   6.647  0.00  0.00    -0.346 N 
HETATM   17  C   UNK N   1      22.536  11.474   7.305  0.00  0.00     0.241 C 
HETATM   18  O   UNK N   1      23.720  11.185   7.203  0.00  0.00    -0.271 OA
HETATM   19  H   UNK N   1      20.678  10.718   7.007  0.00  0.00     0.163 HD
BRANCH  17  20
HETATM   20  C   UNK N   1      22.161  12.853   7.738  0.00  0.00     0.182 C 
BRANCH  20  21
HETATM   21  N   UNK N   1      21.022  13.210   6.913  0.00  0.00    -0.346 N 
HETATM   22  C   UNK N   1      20.413  14.424   6.817  0.00  0.00     0.241 C 
HETATM   23  O   UNK N   1      19.496  14.544   6.021  0.00  0.00    -0.271 OA
HETATM   24  H   UNK N   1      20.646  12.489   6.358  0.00  0.00     0.163 HD
BRANCH  22  25
HETATM   25  C   UNK N   1      20.760  15.633   7.667  0.00  0.00     0.177 C 
HETATM   26  N   UNK N   1      19.722  15.969   8.596  0.00  0.00    -0.348 N 
HETATM   27  C   UNK N   1      19.530  17.286   8.656  0.00  0.00     0.218 C 
HETATM   28  H   UNK N   1      19.214  15.310   9.123  0.00  0.00     0.163 HD
HETATM   29  O   UNK N   1      18.727  17.792   9.421  0.00  0.00    -0.274 OA
HETATM   30  C   UNK N   1      20.392  18.069   7.748  0.00  0.00     0.105 C 
HETATM   31  C   UNK N   1      21.113  16.960   6.971  0.00  0.00     0.044 C 
ENDBRANCH  22  25
ENDBRANCH  20  21
BRANCH  20  32
HETATM   32  C   UNK N   1      21.739  12.807   9.208  0.00  0.00     0.093 C 
BRANCH  32  33
HETATM   33  C   UNK N   1      22.867  12.587  10.166  0.00  0.00     0.028 A 
HETATM   34  N   UNK N   1      24.152  12.812   9.851  0.00  0.00    -0.354 N 
HETATM   35  C   UNK N   1      24.847  12.475  10.956  0.00  0.00     0.180 A 
HETATM   36  H   UNK N   1      24.509  13.148   8.998  0.00  0.00     0.166 HD
HETATM   37  N   UNK N   1      24.036  12.049  11.947  0.00  0.00    -0.360 N 
HETATM   38  C   UNK N   1      22.788  12.118  11.455  0.00  0.00     0.114 A 
ATOM     39  HN  UNK N   1      24.315  11.740  12.878  1.00  0.00     0.166 HD
ENDBRANCH  32  33
ENDBRANCH  20  32
ENDBRANCH  17  20
ENDBRANCH  15  16
BRANCH  15  40
HETATM   40  C   UNK N   1      22.284   8.582   5.662  0.00  0.00     0.075 C 
BRANCH  40  41
HETATM   41  C   UNK N   1      23.207   7.871   4.708  0.00  0.00    -0.028 A 
HETATM   42  C   UNK N   1      24.572   7.959   4.523  0.00  0.00    -0.002 A 
HETATM   43  C   UNK N   1      24.875   7.145   3.466  0.00  0.00     0.042 A 
HETATM   44  C   UNK N   1      25.562   8.691   5.178  0.00  0.00     0.014 A 
HETATM   45  N   UNK N   1      23.777   6.537   2.989  0.00  0.00    -0.365 N 
HETATM   46  C   UNK N   1      26.173   7.020   2.977  0.00  0.00     0.030 A 
HETATM   47  C   UNK N   1      22.744   6.976   3.748  0.00  0.00     0.096 A 
HETATM   48  H   UNK N   1      23.732   5.900   2.240  0.00  0.00     0.165 HD
HETATM   49  C   UNK N   1      27.188   7.757   3.612  0.00  0.00     0.002 A 
HETATM   50  C   UNK N   1      26.884   8.583   4.714  0.00  0.00     0.001 A 
ENDBRANCH  40  41
ENDBRANCH  15  40
ENDBRANCH  12  15
ENDBRANCH  10  11
BRANCH  10  51
HETATM   51  C   UNK N   1      18.532  12.607   3.377  0.00  0.00     0.199 C 
BRANCH  51  52
HETATM   52  O   UNK N   1      18.821  13.969   3.470  0.00  0.00    -0.398 OA
HETATM   53  H   UNK N   1      19.095  14.545   4.201  0.00  0.00     0.209 HD
ENDBRANCH  51  52
ENDBRANCH  10  51
ENDBRANCH   7  10
ENDBRANCH   5   6
BRANCH   5  54
HETATM   54  C   UNK N   1      22.598  14.833   3.845  0.00  0.00     0.073 C 
BRANCH  54  55
HETATM   55  C   UNK N   1      22.362  16.307   3.700  0.00  0.00    -0.056 A 
HETATM   56  C   UNK N   1      23.330  17.234   4.114  0.00  0.00     0.010 A 
HETATM   57  C   UNK N   1      23.089  18.608   3.982  0.00  0.00     0.037 A 
HETATM   58  C   UNK N   1      21.879  19.057   3.441  0.00  0.00     0.065 A 
HETATM   59  C   UNK N   1      20.912  18.134   3.032  0.00  0.00     0.037 A 
HETATM   60  C   UNK N   1      21.155  16.762   3.159  0.00  0.00     0.010 A 
BRANCH  58  61
HETATM   61  O   UNK N   1      21.644  20.373   3.315  0.00  0.00    -0.361 OA
HETATM   62  H   UNK N   1      22.098  20.870   2.663  0.00  0.00     0.217 HD
ENDBRANCH  58  61
ENDBRANCH  54  55
ENDBRANCH   5  54
ENDBRANCH   3   5
BRANCH   2  63
HETATM   63  C   UNK N   1      25.210  13.248   3.067  0.00  0.00     0.180 C 
BRANCH  63  64
HETATM   64  C   UNK N   1      26.271  14.004   3.756  0.00  0.00     0.241 C 
HETATM   65  O   UNK N   1      26.539  13.735   4.922  0.00  0.00    -0.271 OA
HETATM   66  N   UNK N   1      27.173  14.608   2.960  0.00  0.00    -0.346 N 
HETATM   67  H   UNK N   1      26.867  15.237   2.266  0.00  0.00     0.163 HD
BRANCH  66  68
HETATM   68  C   UNK N   1      28.575  14.348   3.111  0.00  0.00     0.177 C 
BRANCH  68  69
HETATM   69  C   UNK N   1      29.186  15.703   3.380  0.00  0.00     0.241 C 
HETATM   70  O   UNK N   1      30.062  16.113   2.634  0.00  0.00    -0.271 OA
HETATM   71  N   UNK N   1      28.538  16.606   4.151  0.00  0.00    -0.346 N 
HETATM   72  H   UNK N   1      28.251  17.433   3.702  0.00  0.00     0.163 HD
BRANCH  71  73
HETATM   73  C   UNK N   1      28.218  16.500   5.565  0.00  0.00     0.176 C 
BRANCH  73  74
HETATM   74  C   UNK N   1      29.430  16.859   6.454  0.00  0.00     0.243 C 
HETATM   75  O   UNK N   1      30.536  16.718   5.977  0.00  0.00    -0.271 OA
HETATM   76  N   UNK N   1      29.321  17.367   7.725  0.00  0.00    -0.337 N 
HETATM   77  C   UNK N   1      30.368  18.180   8.294  0.00  0.00     0.179 A 
HETATM   78  C   UNK N   1      28.151  17.281   8.547  0.00  0.00     0.127 A 
HETATM   79  C   UNK N   1      29.888  18.574   9.677  0.00  0.00     0.037 A 
HETATM   80  C   UNK N   1      28.490  17.992   9.841  0.00  0.00     0.022 A 
BRANCH  77  81
HETATM   81  C   UNK N   1      31.733  17.594   8.335  0.00  0.00     0.241 C 
HETATM   82  O   UNK N   1      32.682  18.290   8.002  0.00  0.00    -0.271 OA
HETATM   83  N   UNK N   1      31.929  16.345   8.813  0.00  0.00    -0.351 N 
HETATM   84  H   UNK N   1      31.154  15.758   8.970  0.00  0.00     0.163 HD
BRANCH  83  85
HETATM   85  C   UNK N   1      33.254  15.860   9.098  0.00  0.00     0.225 C 
BRANCH  85  86
HETATM   86  C   UNK N   1      33.700  15.024   7.938  0.00  0.00     0.233 C 
HETATM   87  O   UNK N   1      34.609  15.414   7.222  0.00  0.00    -0.272 OA
HETATM   88  N   UNK N   1      33.060  13.877   7.644  0.00  0.00    -0.369 N 
HETATM   89  H   UNK N   1      32.110  13.661   7.504  0.00  0.00     0.159 HD
HETATM   90  H   UNK N   1      33.660  13.102   7.553  0.00  0.00     0.159 HD
ENDBRANCH  85  86
ENDBRANCH  83  85
ENDBRANCH  77  81
ENDBRANCH  73  74
BRANCH  73  91
HETATM   91  C   UNK N   1      27.050  17.486   5.674  0.00  0.00     0.036 C 
BRANCH  91  92
HETATM   92  C   UNK N   1      26.954  18.308   4.361  0.00  0.00     0.023 C 
BRANCH  92  93
HETATM   93  C   UNK N   1      26.549  19.740   4.585  0.00  0.00     0.138 C 
BRANCH  93  94
HETATM   94  N   UNK N   1      26.071  19.879   5.932  0.00  0.00    -0.227 N 
HETATM   95  C   UNK N   1      26.518  20.804   6.703  0.00  0.00     0.665 C 
HETATM   96  N   UNK N   1      25.997  20.931   8.006  0.00  0.00    -0.235 N 
HETATM   97  N   UNK N   1      27.499  21.719   6.247  0.00  0.00    -0.235 N 
HETATM   98  H   UNK N   1      25.029  21.008   8.169  0.00  0.00     0.174 HD
HETATM   99  H   UNK N   1      26.616  20.943   8.771  0.00  0.00     0.174 HD
HETATM  100  H   UNK N   1      28.126  22.272   6.767  0.00  0.00     0.174 HD
HETATM  101  H   UNK N   1      27.562  21.815   5.270  0.00  0.00     0.174 HD
ATOM    102  HN  UNK N   1      25.363  19.234   6.281  1.00  0.00     0.177 HD
ENDBRANCH  93  94
ENDBRANCH  92  93
ENDBRANCH  91  92
ENDBRANCH  73  91
ENDBRANCH  71  73
ENDBRANCH  68  69
BRANCH  68 103
HETATM  103  C   UNK N   1      29.209  13.619   1.921  0.00  0.00     0.038 C 
BRANCH 103 104
HETATM  104  C   UNK N   1      30.053  12.433   2.372  0.00  0.00    -0.020 C 
HETATM  105  C   UNK N   1      31.511  12.829   2.518  0.00  0.00     0.009 C 
HETATM  106  C   UNK N   1      29.547  11.946   3.711  0.00  0.00     0.009 C 
ENDBRANCH 103 104
ENDBRANCH  68 103
ENDBRANCH  66  68
ENDBRANCH  63  64
BRANCH  63 107
HETATM  107  C   UNK N   1      25.014  11.761   3.366  0.00  0.00     0.073 C 
BRANCH 107 108
HETATM  108  C   UNK N   1      25.300  11.031   2.126  0.00  0.00    -0.055 A 
HETATM  109  C   UNK N   1      26.624  10.883   1.732  0.00  0.00     0.019 A 
HETATM  110  C   UNK N   1      26.944   9.976   0.735  0.00  0.00    -0.025 A 
HETATM  111  C   UNK N   1      25.927   9.192   0.141  0.00  0.00    -0.026 A 
HETATM  112  C   UNK N   1      28.273   9.808   0.355  0.00  0.00     0.012 A 
HETATM  113  C   UNK N   1      24.597   9.359   0.530  0.00  0.00     0.013 A 
HETATM  114  C   UNK N   1      26.263   8.239  -0.819  0.00  0.00     0.012 A 
HETATM  115  C   UNK N   1      24.283  10.274   1.532  0.00  0.00     0.008 A 
HETATM  116  C   UNK N   1      27.601   8.068  -1.190  0.00  0.00     0.001 A 
HETATM  117  C   UNK N   1      28.601   8.855  -0.609  0.00  0.00     0.001 A 
ENDBRANCH 107 108
ENDBRANCH  63 107
ENDBRANCH   2  63
TORSDOF 35
ENDMDL
MODEL 7
REMARK VINA RESULT:      -8.5      3.708     11.332
REMARK WARNING: 32 MAX_TORS EXCEEDED!!!
REMARK  35 active torsions:
REMARK  status: ('A' for Active; 'I' for Inactive)
REMARK    1  A    between atoms: O_12  and  C_81 
REMARK    2  A    between atoms: O_13  and  C_97 
REMARK       I    between atoms: N_14  and  C_37 
REMARK    3  A    between atoms: C_38  and  N_15 
REMARK       I    between atoms: N_15  and  C_43 
REMARK       I    between atoms: N_16  and  C_39 
REMARK    4  A    between atoms: N_16  and  C_47 
REMARK    5  A    between atoms: C_42  and  N_17 
REMARK       I    between atoms: N_17  and  C_50 
REMARK    6  A    between atoms: N_18  and  C_46 
REMARK    7  A    between atoms: C_51  and  N_20 
REMARK       I    between atoms: N_20  and  C_56 
REMARK       I    between atoms: N_21  and  C_52 
REMARK    8  A    between atoms: C_55  and  N_23 
REMARK       I    between atoms: N_23  and  C_75 
REMARK    9  A    between atoms: C_61  and  N_24 
REMARK       I    between atoms: N_24  and  C_66 
REMARK   10  A    between atoms: C_60  and  N_25 
REMARK       I    between atoms: N_25  and  C_71 
REMARK   11  A    between atoms: C_69  and  N_26 
REMARK       I    between atoms: N_26  and  C_74 
REMARK       I    between atoms: N_27  and  C_57 
REMARK       I    between atoms: N_28  and  C_57 
REMARK   12  A    between atoms: C_33  and  C_39 
REMARK   13  A    between atoms: C_37  and  C_38 
REMARK   14  A    between atoms: C_38  and  C_40 
REMARK   15  A    between atoms: C_40  and  C_41 
REMARK   16  A    between atoms: C_41  and  C_46 
REMARK   17  A    between atoms: C_42  and  C_43 
REMARK   18  A    between atoms: C_42  and  C_44 
REMARK   19  A    between atoms: C_44  and  C_45 
REMARK   20  A    between atoms: C_47  and  C_52 
REMARK   21  A    between atoms: C_50  and  C_51 
REMARK   22  A    between atoms: C_51  and  C_53 
REMARK   23  A    between atoms: C_53  and  C_54 
REMARK   24  A    between atoms: C_55  and  C_56 
REMARK   25  A    between atoms: C_55  and  C_62 
REMARK   26  A    between atoms: C_58  and  C_66 
REMARK   27  A    between atoms: C_60  and  C_65 
REMARK   28  A    between atoms: C_60  and  C_74 
REMARK   29  A    between atoms: C_61  and  C_70 
REMARK   30  A    between atoms: C_61  and  C_71 
REMARK   31  A    between atoms: C_62  and  C_76 
REMARK   32  A    between atoms: C_65  and  C_72 
REMARK   33  A    between atoms: C_69  and  C_75 
REMARK   34  A    between atoms: C_69  and  C_81 
REMARK   35  A    between atoms: C_70  and  C_80 
ROOT
HETATM    1  O   UNK N   1      22.724  13.790   0.068  0.00  0.00    -0.271 OA
HETATM    2  N   UNK N   1      24.003  11.982   0.256  0.00  0.00    -0.346 N 
HETATM    3  C   UNK N   1      23.169  12.903   0.779  0.00  0.00     0.241 C 
HETATM    4  H   UNK N   1      24.161  11.973  -0.716  0.00  0.00     0.163 HD
ENDROOT
BRANCH   3   5
HETATM    5  C   UNK N   1      22.678  12.786   2.188  0.00  0.00     0.180 C 
BRANCH   5   6
HETATM    6  N   UNK N   1      23.484  13.450   3.194  0.00  0.00    -0.346 N 
HETATM    7  C   UNK N   1      23.755  14.786   3.237  0.00  0.00     0.243 C 
HETATM    8  O   UNK N   1      23.000  15.610   2.742  0.00  0.00    -0.271 OA
HETATM    9  H   UNK N   1      23.868  12.888   3.906  0.00  0.00     0.163 HD
BRANCH   7  10
HETATM   10  C   UNK N   1      25.173  15.170   3.483  0.00  0.00     0.200 C 
BRANCH  10  11
HETATM   11  N   UNK N   1      25.085  16.579   3.794  0.00  0.00    -0.344 N 
HETATM   12  C   UNK N   1      26.002  17.522   3.432  0.00  0.00     0.241 C 
HETATM   13  O   UNK N   1      27.110  17.201   3.025  0.00  0.00    -0.271 OA
HETATM   14  H   UNK N   1      24.301  16.883   4.306  0.00  0.00     0.163 HD
BRANCH  12  15
HETATM   15  C   UNK N   1      25.611  18.969   3.526  0.00  0.00     0.181 C 
BRANCH  15  16
HETATM   16  N   UNK N   1      24.373  19.013   4.247  0.00  0.00    -0.346 N 
HETATM   17  C   UNK N   1      23.239  19.475   3.666  0.00  0.00     0.241 C 
HETATM   18  O   UNK N   1      23.295  20.281   2.748  0.00  0.00    -0.271 OA
HETATM   19  H   UNK N   1      24.347  18.703   5.180  0.00  0.00     0.163 HD
BRANCH  17  20
HETATM   20  C   UNK N   1      22.007  18.649   3.833  0.00  0.00     0.182 C 
BRANCH  20  21
HETATM   21  N   UNK N   1      21.511  18.976   5.157  0.00  0.00    -0.346 N 
HETATM   22  C   UNK N   1      21.237  18.117   6.178  0.00  0.00     0.241 C 
HETATM   23  O   UNK N   1      20.877  18.589   7.244  0.00  0.00    -0.271 OA
HETATM   24  H   UNK N   1      21.355  19.931   5.339  0.00  0.00     0.163 HD
BRANCH  22  25
HETATM   25  C   UNK N   1      21.297  16.603   6.071  0.00  0.00     0.177 C 
HETATM   26  N   UNK N   1      20.306  15.954   6.877  0.00  0.00    -0.348 N 
HETATM   27  C   UNK N   1      20.807  14.889   7.500  0.00  0.00     0.218 C 
HETATM   28  H   UNK N   1      19.373  16.258   6.960  0.00  0.00     0.163 HD
HETATM   29  O   UNK N   1      20.120  14.163   8.199  0.00  0.00    -0.274 OA
HETATM   30  C   UNK N   1      22.241  14.652   7.244  0.00  0.00     0.105 C 
HETATM   31  C   UNK N   1      22.616  15.883   6.409  0.00  0.00     0.044 C 
ENDBRANCH  22  25
ENDBRANCH  20  21
BRANCH  20  32
HETATM   32  C   UNK N   1      20.983  19.078   2.780  0.00  0.00     0.093 C 
BRANCH  32  33
HETATM   33  C   UNK N   1      20.396  17.946   1.997  0.00  0.00     0.028 A 
HETATM   34  N   UNK N   1      20.232  17.981   0.666  0.00  0.00    -0.354 N 
HETATM   35  C   UNK N   1      19.660  16.801   0.352  0.00  0.00     0.180 A 
HETATM   36  H   UNK N   1      20.477  18.710   0.052  0.00  0.00     0.166 HD
HETATM   37  N   UNK N   1      19.462  16.034   1.445  0.00  0.00    -0.360 N 
HETATM   38  C   UNK N   1      19.924  16.750   2.484  0.00  0.00     0.114 A 
ATOM     39  HN  UNK N   1      19.048  15.103   1.475  1.00  0.00     0.166 HD
ENDBRANCH  32  33
ENDBRANCH  20  32
ENDBRANCH  17  20
ENDBRANCH  15  16
BRANCH  15  40
HETATM   40  C   UNK N   1      26.694  19.895   4.104  0.00  0.00     0.075 C 
BRANCH  40  41
HETATM   41  C   UNK N   1      27.083  19.811   5.556  0.00  0.00    -0.028 A 
HETATM   42  C   UNK N   1      27.971  18.985   6.216  0.00  0.00    -0.002 A 
HETATM   43  C   UNK N   1      27.872  19.290   7.546  0.00  0.00     0.042 A 
HETATM   44  C   UNK N   1      28.837  17.989   5.766  0.00  0.00     0.014 A 
HETATM   45  N   UNK N   1      26.984  20.275   7.755  0.00  0.00    -0.365 N 
HETATM   46  C   UNK N   1      28.609  18.616   8.516  0.00  0.00     0.030 A 
HETATM   47  C   UNK N   1      26.493  20.604   6.535  0.00  0.00     0.096 A 
HETATM   48  H   UNK N   1      26.740  20.679   8.619  0.00  0.00     0.165 HD
HETATM   49  C   UNK N   1      29.481  17.599   8.090  0.00  0.00     0.002 A 
HETATM   50  C   UNK N   1      29.600  17.292   6.718  0.00  0.00     0.001 A 
ENDBRANCH  40  41
ENDBRANCH  15  40
ENDBRANCH  12  15
ENDBRANCH  10  11
BRANCH  10  51
HETATM   51  C   UNK N   1      25.723  14.471   4.734  0.00  0.00     0.199 C 
BRANCH  51  52
HETATM   52  O   UNK N   1      26.331  13.257   4.408  0.00  0.00    -0.398 OA
HETATM   53  H   UNK N   1      26.333  12.380   4.821  0.00  0.00     0.209 HD
ENDBRANCH  51  52
ENDBRANCH  10  51
ENDBRANCH   7  10
ENDBRANCH   5   6
BRANCH   5  54
HETATM   54  C   UNK N   1      21.184  12.753   2.460  0.00  0.00     0.073 C 
BRANCH  54  55
HETATM   55  C   UNK N   1      20.863  11.565   3.316  0.00  0.00    -0.056 A 
HETATM   56  C   UNK N   1      20.731  11.695   4.707  0.00  0.00     0.010 A 
HETATM   57  C   UNK N   1      20.442  10.572   5.493  0.00  0.00     0.037 A 
HETATM   58  C   UNK N   1      20.288   9.318   4.892  0.00  0.00     0.065 A 
HETATM   59  C   UNK N   1      20.423   9.187   3.507  0.00  0.00     0.037 A 
HETATM   60  C   UNK N   1      20.707  10.309   2.721  0.00  0.00     0.010 A 
BRANCH  58  61
HETATM   61  O   UNK N   1      20.012   8.240   5.644  0.00  0.00    -0.361 OA
HETATM   62  H   UNK N   1      19.732   8.347   6.531  0.00  0.00     0.217 HD
ENDBRANCH  58  61
ENDBRANCH  54  55
ENDBRANCH   5  54
ENDBRANCH   3   5
BRANCH   2  63
HETATM   63  C   UNK N   1      24.667  11.006   1.086  0.00  0.00     0.180 C 
BRANCH  63  64
HETATM   64  C   UNK N   1      26.120  11.237   1.178  0.00  0.00     0.241 C 
HETATM   65  O   UNK N   1      26.534  12.220   1.782  0.00  0.00    -0.271 OA
HETATM   66  N   UNK N   1      26.899  10.153   1.002  0.00  0.00    -0.346 N 
HETATM   67  H   UNK N   1      26.811   9.618   0.180  0.00  0.00     0.163 HD
BRANCH  66  68
HETATM   68  C   UNK N   1      27.858   9.769   1.997  0.00  0.00     0.177 C 
BRANCH  68  69
HETATM   69  C   UNK N   1      29.154   9.618   1.237  0.00  0.00     0.241 C 
HETATM   70  O   UNK N   1      29.734   8.543   1.271  0.00  0.00    -0.271 OA
HETATM   71  N   UNK N   1      29.468  10.475   0.239  0.00  0.00    -0.346 N 
HETATM   72  H   UNK N   1      29.529  10.086  -0.663  0.00  0.00     0.163 HD
BRANCH  71  73
HETATM   73  C   UNK N   1      29.728  11.901   0.341  0.00  0.00     0.176 C 
BRANCH  73  74
HETATM   74  C   UNK N   1      30.812  12.210   1.397  0.00  0.00     0.243 C 
HETATM   75  O   UNK N   1      31.872  11.630   1.298  0.00  0.00    -0.271 OA
HETATM   76  N   UNK N   1      30.656  13.132   2.403  0.00  0.00    -0.337 N 
HETATM   77  C   UNK N   1      31.797  13.786   2.996  0.00  0.00     0.179 A 
HETATM   78  C   UNK N   1      29.400  13.641   2.864  0.00  0.00     0.127 A 
HETATM   79  C   UNK N   1      31.241  14.739   4.035  0.00  0.00     0.037 A 
HETATM   80  C   UNK N   1      29.723  14.636   3.960  0.00  0.00     0.022 A 
BRANCH  77  81
HETATM   81  C   UNK N   1      32.856  12.913   3.567  0.00  0.00     0.241 C 
HETATM   82  O   UNK N   1      34.025  13.149   3.292  0.00  0.00    -0.271 OA
HETATM   83  N   UNK N   1      32.539  11.931   4.441  0.00  0.00    -0.351 N 
HETATM   84  H   UNK N   1      31.596  11.679   4.566  0.00  0.00     0.163 HD
BRANCH  83  85
HETATM   85  C   UNK N   1      33.561  11.250   5.193  0.00  0.00     0.225 C 
BRANCH  85  86
HETATM   86  C   UNK N   1      32.896  10.208   6.037  0.00  0.00     0.233 C 
HETATM   87  O   UNK N   1      33.575   9.416   6.672  0.00  0.00    -0.272 OA
HETATM   88  N   UNK N   1      31.554  10.101   6.049  0.00  0.00    -0.369 N 
HETATM   89  H   UNK N   1      30.885  10.022   5.331  0.00  0.00     0.159 HD
HETATM   90  H   UNK N   1      31.165  10.102   6.954  0.00  0.00     0.159 HD
ENDBRANCH  85  86
ENDBRANCH  83  85
ENDBRANCH  77  81
ENDBRANCH  73  74
BRANCH  73  91
HETATM   91  C   UNK N   1      30.145  12.224  -1.097  0.00  0.00     0.036 C 
BRANCH  91  92
HETATM   92  C   UNK N   1      30.470  10.903  -1.842  0.00  0.00     0.023 C 
BRANCH  92  93
HETATM   93  C   UNK N   1      31.921  10.775  -2.221  0.00  0.00     0.138 C 
BRANCH  93  94
HETATM   94  N   UNK N   1      32.594  12.000  -1.892  0.00  0.00    -0.227 N 
HETATM   95  C   UNK N   1      33.394  12.563  -2.725  0.00  0.00     0.665 C 
HETATM   96  N   UNK N   1      34.007  13.784  -2.379  0.00  0.00    -0.235 N 
HETATM   97  N   UNK N   1      33.636  11.991  -3.998  0.00  0.00    -0.235 N 
HETATM   98  H   UNK N   1      33.479  14.559  -2.080  0.00  0.00     0.174 HD
HETATM   99  H   UNK N   1      34.986  13.863  -2.440  0.00  0.00     0.174 HD
HETATM  100  H   UNK N   1      34.397  12.127  -4.609  0.00  0.00     0.174 HD
HETATM  101  H   UNK N   1      32.944  11.369  -4.319  0.00  0.00     0.174 HD
ATOM    102  HN  UNK N   1      32.433  12.431  -0.983  1.00  0.00     0.177 HD
ENDBRANCH  93  94
ENDBRANCH  92  93
ENDBRANCH  91  92
ENDBRANCH  73  91
ENDBRANCH  71  73
ENDBRANCH  68  69
BRANCH  68 103
HETATM  103  C   UNK N   1      27.467   8.520   2.794  0.00  0.00     0.038 C 
BRANCH 103 104
HETATM  104  C   UNK N   1      27.589   8.749   4.295  0.00  0.00    -0.020 C 
HETATM  105  C   UNK N   1      28.726   7.929   4.879  0.00  0.00     0.009 C 
HETATM  106  C   UNK N   1      27.866  10.213   4.552  0.00  0.00     0.009 C 
ENDBRANCH 103 104
ENDBRANCH  68 103
ENDBRANCH  66  68
ENDBRANCH  63  64
BRANCH  63 107
HETATM  107  C   UNK N   1      24.107   9.593   1.256  0.00  0.00     0.073 C 
BRANCH 107 108
HETATM  108  C   UNK N   1      24.198   9.262   2.682  0.00  0.00    -0.055 A 
HETATM  109  C   UNK N   1      24.292  10.300   3.601  0.00  0.00     0.019 A 
HETATM  110  C   UNK N   1      24.100  10.040   4.948  0.00  0.00    -0.025 A 
HETATM  111  C   UNK N   1      23.789   8.729   5.377  0.00  0.00    -0.026 A 
HETATM  112  C   UNK N   1      24.169  11.083   5.868  0.00  0.00     0.012 A 
HETATM  113  C   UNK N   1      23.715   7.688   4.450  0.00  0.00     0.013 A 
HETATM  114  C   UNK N   1      23.539   8.485   6.727  0.00  0.00     0.012 A 
HETATM  115  C   UNK N   1      23.910   7.957   3.098  0.00  0.00     0.008 A 
HETATM  116  C   UNK N   1      23.600   9.538   7.645  0.00  0.00     0.001 A 
HETATM  117  C   UNK N   1      23.921  10.831   7.218  0.00  0.00     0.001 A 
ENDBRANCH 107 108
ENDBRANCH  63 107
ENDBRANCH   2  63
TORSDOF 35
ENDMDL
MODEL 8
REMARK VINA RESULT:      -8.5      2.309      3.564
REMARK WARNING: 32 MAX_TORS EXCEEDED!!!
REMARK  35 active torsions:
REMARK  status: ('A' for Active; 'I' for Inactive)
REMARK    1  A    between atoms: O_12  and  C_81 
REMARK    2  A    between atoms: O_13  and  C_97 
REMARK       I    between atoms: N_14  and  C_37 
REMARK    3  A    between atoms: C_38  and  N_15 
REMARK       I    between atoms: N_15  and  C_43 
REMARK       I    between atoms: N_16  and  C_39 
REMARK    4  A    between atoms: N_16  and  C_47 
REMARK    5  A    between atoms: C_42  and  N_17 
REMARK       I    between atoms: N_17  and  C_50 
REMARK    6  A    between atoms: N_18  and  C_46 
REMARK    7  A    between atoms: C_51  and  N_20 
REMARK       I    between atoms: N_20  and  C_56 
REMARK       I    between atoms: N_21  and  C_52 
REMARK    8  A    between atoms: C_55  and  N_23 
REMARK       I    between atoms: N_23  and  C_75 
REMARK    9  A    between atoms: C_61  and  N_24 
REMARK       I    between atoms: N_24  and  C_66 
REMARK   10  A    between atoms: C_60  and  N_25 
REMARK       I    between atoms: N_25  and  C_71 
REMARK   11  A    between atoms: C_69  and  N_26 
REMARK       I    between atoms: N_26  and  C_74 
REMARK       I    between atoms: N_27  and  C_57 
REMARK       I    between atoms: N_28  and  C_57 
REMARK   12  A    between atoms: C_33  and  C_39 
REMARK   13  A    between atoms: C_37  and  C_38 
REMARK   14  A    between atoms: C_38  and  C_40 
REMARK   15  A    between atoms: C_40  and  C_41 
REMARK   16  A    between atoms: C_41  and  C_46 
REMARK   17  A    between atoms: C_42  and  C_43 
REMARK   18  A    between atoms: C_42  and  C_44 
REMARK   19  A    between atoms: C_44  and  C_45 
REMARK   20  A    between atoms: C_47  and  C_52 
REMARK   21  A    between atoms: C_50  and  C_51 
REMARK   22  A    between atoms: C_51  and  C_53 
REMARK   23  A    between atoms: C_53  and  C_54 
REMARK   24  A    between atoms: C_55  and  C_56 
REMARK   25  A    between atoms: C_55  and  C_62 
REMARK   26  A    between atoms: C_58  and  C_66 
REMARK   27  A    between atoms: C_60  and  C_65 
REMARK   28  A    between atoms: C_60  and  C_74 
REMARK   29  A    between atoms: C_61  and  C_70 
REMARK   30  A    between atoms: C_61  and  C_71 
REMARK   31  A    between atoms: C_62  and  C_76 
REMARK   32  A    between atoms: C_65  and  C_72 
REMARK   33  A    between atoms: C_69  and  C_75 
REMARK   34  A    between atoms: C_69  and  C_81 
REMARK   35  A    between atoms: C_70  and  C_80 
ROOT
HETATM    1  O   UNK N   1      26.215  15.734   6.954  0.00  0.00    -0.271 OA
HETATM    2  N   UNK N   1      27.085  14.813   5.127  0.00  0.00    -0.346 N 
HETATM    3  C   UNK N   1      26.865  15.874   5.930  0.00  0.00     0.241 C 
HETATM    4  H   UNK N   1      26.808  13.917   5.427  0.00  0.00     0.163 HD
ENDROOT
BRANCH   3   5
HETATM    5  C   UNK N   1      27.509  17.196   5.654  0.00  0.00     0.180 C 
BRANCH   5   6
HETATM    6  N   UNK N   1      28.604  17.560   6.532  0.00  0.00    -0.346 N 
HETATM    7  C   UNK N   1      29.924  17.577   6.188  0.00  0.00     0.243 C 
HETATM    8  O   UNK N   1      30.283  17.748   5.032  0.00  0.00    -0.271 OA
HETATM    9  H   UNK N   1      28.375  17.815   7.455  0.00  0.00     0.163 HD
BRANCH   7  10
HETATM   10  C   UNK N   1      30.870  16.939   7.145  0.00  0.00     0.200 C 
BRANCH  10  11
HETATM   11  N   UNK N   1      32.044  16.695   6.337  0.00  0.00    -0.344 N 
HETATM   12  C   UNK N   1      32.323  15.527   5.690  0.00  0.00     0.241 C 
HETATM   13  O   UNK N   1      31.713  14.499   5.952  0.00  0.00    -0.271 OA
HETATM   14  H   UNK N   1      32.693  17.430   6.246  0.00  0.00     0.163 HD
BRANCH  12  15
HETATM   15  C   UNK N   1      33.387  15.536   4.630  0.00  0.00     0.181 C 
BRANCH  15  16
HETATM   16  N   UNK N   1      34.547  14.925   5.208  0.00  0.00    -0.346 N 
HETATM   17  C   UNK N   1      35.071  15.377   6.373  0.00  0.00     0.241 C 
HETATM   18  O   UNK N   1      34.915  16.540   6.715  0.00  0.00    -0.271 OA
HETATM   19  H   UNK N   1      34.970  14.163   4.751  0.00  0.00     0.163 HD
BRANCH  17  20
HETATM   20  C   UNK N   1      35.403  14.355   7.410  0.00  0.00     0.182 C 
BRANCH  20  21
HETATM   21  N   UNK N   1      34.132  13.753   7.766  0.00  0.00    -0.346 N 
HETATM   22  C   UNK N   1      33.402  13.960   8.897  0.00  0.00     0.241 C 
HETATM   23  O   UNK N   1      32.321  13.400   8.993  0.00  0.00    -0.271 OA
HETATM   24  H   UNK N   1      33.753  13.121   7.113  0.00  0.00     0.163 HD
BRANCH  22  25
HETATM   25  C   UNK N   1      33.857  14.801  10.076  0.00  0.00     0.177 C 
HETATM   26  N   UNK N   1      34.100  16.167   9.717  0.00  0.00    -0.348 N 
HETATM   27  C   UNK N   1      35.207  16.632  10.294  0.00  0.00     0.218 C 
HETATM   28  H   UNK N   1      33.521  16.694   9.119  0.00  0.00     0.163 HD
HETATM   29  O   UNK N   1      35.571  17.788  10.162  0.00  0.00    -0.274 OA
HETATM   30  C   UNK N   1      35.923  15.644  11.123  0.00  0.00     0.105 C 
HETATM   31  C   UNK N   1      35.110  14.369  10.861  0.00  0.00     0.044 C 
ENDBRANCH  22  25
ENDBRANCH  20  21
BRANCH  20  32
HETATM   32  C   UNK N   1      36.315  13.298   6.782  0.00  0.00     0.093 C 
BRANCH  32  33
HETATM   33  C   UNK N   1      37.741  13.728   6.631  0.00  0.00     0.028 A 
HETATM   34  N   UNK N   1      38.616  13.739   7.648  0.00  0.00    -0.354 N 
HETATM   35  C   UNK N   1      39.764  14.206   7.116  0.00  0.00     0.180 A 
HETATM   36  H   UNK N   1      38.455  13.467   8.579  0.00  0.00     0.166 HD
HETATM   37  N   UNK N   1      39.630  14.485   5.802  0.00  0.00    -0.360 N 
HETATM   38  C   UNK N   1      38.358  14.185   5.491  0.00  0.00     0.114 A 
ATOM     39  HN  UNK N   1      40.348  14.847   5.175  1.00  0.00     0.166 HD
ENDBRANCH  32  33
ENDBRANCH  20  32
ENDBRANCH  17  20
ENDBRANCH  15  16
BRANCH  15  40
HETATM   40  C   UNK N   1      32.968  14.915   3.288  0.00  0.00     0.075 C 
BRANCH  40  41
HETATM   41  C   UNK N   1      33.504  13.576   2.859  0.00  0.00    -0.028 A 
HETATM   42  C   UNK N   1      33.470  12.339   3.473  0.00  0.00    -0.002 A 
HETATM   43  C   UNK N   1      34.181  11.487   2.674  0.00  0.00     0.042 A 
HETATM   44  C   UNK N   1      32.893  11.900   4.665  0.00  0.00     0.014 A 
HETATM   45  N   UNK N   1      34.644  12.116   1.582  0.00  0.00    -0.365 N 
HETATM   46  C   UNK N   1      34.383  10.151   3.011  0.00  0.00     0.030 A 
HETATM   47  C   UNK N   1      34.232  13.403   1.685  0.00  0.00     0.096 A 
HETATM   48  H   UNK N   1      35.175  11.722   0.852  0.00  0.00     0.165 HD
HETATM   49  C   UNK N   1      33.822   9.686   4.213  0.00  0.00     0.002 A 
HETATM   50  C   UNK N   1      33.073  10.556   5.033  0.00  0.00     0.001 A 
ENDBRANCH  40  41
ENDBRANCH  15  40
ENDBRANCH  12  15
ENDBRANCH  10  11
BRANCH  10  51
HETATM   51  C   UNK N   1      31.284  17.923   8.247  0.00  0.00     0.199 C 
BRANCH  51  52
HETATM   52  O   UNK N   1      32.664  18.135   8.243  0.00  0.00    -0.398 OA
HETATM   53  H   UNK N   1      33.226  18.874   8.520  0.00  0.00     0.209 HD
ENDBRANCH  51  52
ENDBRANCH  10  51
ENDBRANCH   7  10
ENDBRANCH   5   6
BRANCH   5  54
HETATM   54  C   UNK N   1      27.626  17.687   4.221  0.00  0.00     0.073 C 
BRANCH  54  55
HETATM   55  C   UNK N   1      26.478  18.602   3.916  0.00  0.00    -0.056 A 
HETATM   56  C   UNK N   1      25.152  18.170   4.076  0.00  0.00     0.010 A 
HETATM   57  C   UNK N   1      24.091  19.035   3.775  0.00  0.00     0.037 A 
HETATM   58  C   UNK N   1      24.353  20.328   3.311  0.00  0.00     0.065 A 
HETATM   59  C   UNK N   1      25.673  20.758   3.149  0.00  0.00     0.037 A 
HETATM   60  C   UNK N   1      26.733  19.897   3.453  0.00  0.00     0.010 A 
BRANCH  58  61
HETATM   61  O   UNK N   1      23.337  21.158   3.021  0.00  0.00    -0.361 OA
HETATM   62  H   UNK N   1      23.502  21.956   2.558  0.00  0.00     0.217 HD
ENDBRANCH  58  61
ENDBRANCH  54  55
ENDBRANCH   5  54
ENDBRANCH   3   5
BRANCH   2  63
HETATM   63  C   UNK N   1      27.718  14.960   3.838  0.00  0.00     0.180 C 
BRANCH  63  64
HETATM   64  C   UNK N   1      26.777  14.770   2.721  0.00  0.00     0.241 C 
HETATM   65  O   UNK N   1      27.162  14.959   1.573  0.00  0.00    -0.271 OA
HETATM   66  N   UNK N   1      25.716  13.979   2.974  0.00  0.00    -0.346 N 
HETATM   67  H   UNK N   1      25.123  14.188   3.732  0.00  0.00     0.163 HD
BRANCH  66  68
HETATM   68  C   UNK N   1      25.440  12.837   2.152  0.00  0.00     0.177 C 
BRANCH  68  69
HETATM   69  C   UNK N   1      24.020  13.042   1.682  0.00  0.00     0.241 C 
HETATM   70  O   UNK N   1      23.829  13.457   0.549  0.00  0.00    -0.271 OA
HETATM   71  N   UNK N   1      22.994  12.426   2.311  0.00  0.00    -0.346 N 
HETATM   72  H   UNK N   1      22.494  11.765   1.780  0.00  0.00     0.163 HD
BRANCH  71  73
HETATM   73  C   UNK N   1      22.540  12.625   3.677  0.00  0.00     0.176 C 
BRANCH  73  74
HETATM   74  C   UNK N   1      21.668  13.893   3.810  0.00  0.00     0.243 C 
HETATM   75  O   UNK N   1      20.681  13.971   3.109  0.00  0.00    -0.271 OA
HETATM   76  N   UNK N   1      21.924  14.905   4.702  0.00  0.00    -0.337 N 
HETATM   77  C   UNK N   1      20.863  15.754   5.189  0.00  0.00     0.179 A 
HETATM   78  C   UNK N   1      23.183  15.138   5.342  0.00  0.00     0.127 A 
HETATM   79  C   UNK N   1      21.511  16.720   6.161  0.00  0.00     0.037 A 
HETATM   80  C   UNK N   1      22.983  16.338   6.246  0.00  0.00     0.022 A 
BRANCH  77  81
HETATM   81  C   UNK N   1      20.047  16.467   4.171  0.00  0.00     0.241 C 
HETATM   82  O   UNK N   1      18.835  16.528   4.326  0.00  0.00    -0.271 OA
HETATM   83  N   UNK N   1      20.643  17.110   3.142  0.00  0.00    -0.351 N 
HETATM   84  H   UNK N   1      21.599  16.961   2.965  0.00  0.00     0.163 HD
BRANCH  83  85
HETATM   85  C   UNK N   1      19.899  18.010   2.301  0.00  0.00     0.225 C 
BRANCH  85  86
HETATM   86  C   UNK N   1      20.517  19.369   2.418  0.00  0.00     0.233 C 
HETATM   87  O   UNK N   1      21.081  19.865   1.454  0.00  0.00    -0.272 OA
HETATM   88  N   UNK N   1      20.509  20.018   3.597  0.00  0.00    -0.369 N 
HETATM   89  H   UNK N   1      20.787  19.755   4.504  0.00  0.00     0.159 HD
HETATM   90  H   UNK N   1      20.156  20.935   3.542  0.00  0.00     0.159 HD
ENDBRANCH  85  86
ENDBRANCH  83  85
ENDBRANCH  77  81
ENDBRANCH  73  74
BRANCH  73  91
HETATM   91  C   UNK N   1      21.783  11.317   3.926  0.00  0.00     0.036 C 
BRANCH  91  92
HETATM   92  C   UNK N   1      22.008  10.870   5.395  0.00  0.00     0.023 C 
BRANCH  92  93
HETATM   93  C   UNK N   1      23.205  11.519   6.036  0.00  0.00     0.138 C 
BRANCH  93  94
HETATM   94  N   UNK N   1      23.299  11.071   7.397  0.00  0.00    -0.227 N 
HETATM   95  C   UNK N   1      22.944  11.828   8.372  0.00  0.00     0.665 C 
HETATM   96  N   UNK N   1      23.017  11.339   9.691  0.00  0.00    -0.235 N 
HETATM   97  N   UNK N   1      22.444  13.132   8.134  0.00  0.00    -0.235 N 
HETATM   98  H   UNK N   1      22.588  10.491   9.952  0.00  0.00     0.174 HD
HETATM   99  H   UNK N   1      23.508  11.857  10.369  0.00  0.00     0.174 HD
HETATM  100  H   UNK N   1      22.403  13.906   8.741  0.00  0.00     0.174 HD
HETATM  101  H   UNK N   1      22.086  13.287   7.230  0.00  0.00     0.174 HD
ATOM    102  HN  UNK N   1      23.653  10.135   7.593  1.00  0.00     0.177 HD
ENDBRANCH  93  94
ENDBRANCH  92  93
ENDBRANCH  91  92
ENDBRANCH  73  91
ENDBRANCH  71  73
ENDBRANCH  68  69
BRANCH  68 103
HETATM  103  C   UNK N   1      25.664  11.492   2.853  0.00  0.00     0.038 C 
BRANCH 103 104
HETATM  104  C   UNK N   1      25.992  10.386   1.857  0.00  0.00    -0.020 C 
HETATM  105  C   UNK N   1      27.019  10.856   0.843  0.00  0.00     0.009 C 
HETATM  106  C   UNK N   1      26.557   9.199   2.604  0.00  0.00     0.009 C 
ENDBRANCH 103 104
ENDBRANCH  68 103
ENDBRANCH  66  68
ENDBRANCH  63  64
BRANCH  63 107
HETATM  107  C   UNK N   1      29.204  14.656   3.645  0.00  0.00     0.073 C 
BRANCH 107 108
HETATM  108  C   UNK N   1      29.313  13.233   3.303  0.00  0.00    -0.055 A 
HETATM  109  C   UNK N   1      29.971  12.879   2.132  0.00  0.00     0.019 A 
HETATM  110  C   UNK N   1      30.332  11.558   1.923  0.00  0.00    -0.025 A 
HETATM  111  C   UNK N   1      30.048  10.584   2.908  0.00  0.00    -0.026 A 
HETATM  112  C   UNK N   1      31.014  11.205   0.761  0.00  0.00     0.012 A 
HETATM  113  C   UNK N   1      29.369  10.944   4.073  0.00  0.00     0.013 A 
HETATM  114  C   UNK N   1      30.466   9.268   2.717  0.00  0.00     0.012 A 
HETATM  115  C   UNK N   1      29.010  12.274   4.276  0.00  0.00     0.008 A 
HETATM  116  C   UNK N   1      31.159   8.921   1.553  0.00  0.00     0.001 A 
HETATM  117  C   UNK N   1      31.426   9.885   0.576  0.00  0.00     0.001 A 
ENDBRANCH 107 108
ENDBRANCH  63 107
ENDBRANCH   2  63
TORSDOF 35
ENDMDL
MODEL 9
REMARK VINA RESULT:      -8.5      2.475     12.214
REMARK WARNING: 32 MAX_TORS EXCEEDED!!!
REMARK  35 active torsions:
REMARK  status: ('A' for Active; 'I' for Inactive)
REMARK    1  A    between atoms: O_12  and  C_81 
REMARK    2  A    between atoms: O_13  and  C_97 
REMARK       I    between atoms: N_14  and  C_37 
REMARK    3  A    between atoms: C_38  and  N_15 
REMARK       I    between atoms: N_15  and  C_43 
REMARK       I    between atoms: N_16  and  C_39 
REMARK    4  A    between atoms: N_16  and  C_47 
REMARK    5  A    between atoms: C_42  and  N_17 
REMARK       I    between atoms: N_17  and  C_50 
REMARK    6  A    between atoms: N_18  and  C_46 
REMARK    7  A    between atoms: C_51  and  N_20 
REMARK       I    between atoms: N_20  and  C_56 
REMARK       I    between atoms: N_21  and  C_52 
REMARK    8  A    between atoms: C_55  and  N_23 
REMARK       I    between atoms: N_23  and  C_75 
REMARK    9  A    between atoms: C_61  and  N_24 
REMARK       I    between atoms: N_24  and  C_66 
REMARK   10  A    between atoms: C_60  and  N_25 
REMARK       I    between atoms: N_25  and  C_71 
REMARK   11  A    between atoms: C_69  and  N_26 
REMARK       I    between atoms: N_26  and  C_74 
REMARK       I    between atoms: N_27  and  C_57 
REMARK       I    between atoms: N_28  and  C_57 
REMARK   12  A    between atoms: C_33  and  C_39 
REMARK   13  A    between atoms: C_37  and  C_38 
REMARK   14  A    between atoms: C_38  and  C_40 
REMARK   15  A    between atoms: C_40  and  C_41 
REMARK   16  A    between atoms: C_41  and  C_46 
REMARK   17  A    between atoms: C_42  and  C_43 
REMARK   18  A    between atoms: C_42  and  C_44 
REMARK   19  A    between atoms: C_44  and  C_45 
REMARK   20  A    between atoms: C_47  and  C_52 
REMARK   21  A    between atoms: C_50  and  C_51 
REMARK   22  A    between atoms: C_51  and  C_53 
REMARK   23  A    between atoms: C_53  and  C_54 
REMARK   24  A    between atoms: C_55  and  C_56 
REMARK   25  A    between atoms: C_55  and  C_62 
REMARK   26  A    between atoms: C_58  and  C_66 
REMARK   27  A    between atoms: C_60  and  C_65 
REMARK   28  A    between atoms: C_60  and  C_74 
REMARK   29  A    between atoms: C_61  and  C_70 
REMARK   30  A    between atoms: C_61  and  C_71 
REMARK   31  A    between atoms: C_62  and  C_76 
REMARK   32  A    between atoms: C_65  and  C_72 
REMARK   33  A    between atoms: C_69  and  C_75 
REMARK   34  A    between atoms: C_69  and  C_81 
REMARK   35  A    between atoms: C_70  and  C_80 
ROOT
HETATM    1  O   UNK N   1      25.607  17.587   3.664  0.00  0.00    -0.271 OA
HETATM    2  N   UNK N   1      27.259  16.245   3.023  0.00  0.00    -0.346 N 
HETATM    3  C   UNK N   1      26.099  16.470   3.674  0.00  0.00     0.241 C 
HETATM    4  H   UNK N   1      27.642  16.958   2.462  0.00  0.00     0.163 HD
ENDROOT
BRANCH   3   5
HETATM    5  C   UNK N   1      25.338  15.346   4.302  0.00  0.00     0.180 C 
BRANCH   5   6
HETATM    6  N   UNK N   1      25.599  15.116   5.709  0.00  0.00    -0.346 N 
HETATM    7  C   UNK N   1      25.199  14.023   6.421  0.00  0.00     0.243 C 
HETATM    8  O   UNK N   1      25.007  12.942   5.883  0.00  0.00    -0.271 OA
HETATM    9  H   UNK N   1      26.106  15.808   6.193  0.00  0.00     0.163 HD
BRANCH   7  10
HETATM   10  C   UNK N   1      24.575  14.284   7.747  0.00  0.00     0.200 C 
BRANCH  10  11
HETATM   11  N   UNK N   1      23.192  13.912   7.541  0.00  0.00    -0.344 N 
HETATM   12  C   UNK N   1      22.248  14.699   6.948  0.00  0.00     0.241 C 
HETATM   13  O   UNK N   1      22.443  15.893   6.768  0.00  0.00    -0.271 OA
HETATM   14  H   UNK N   1      22.911  13.022   7.852  0.00  0.00     0.163 HD
BRANCH  12  15
HETATM   15  C   UNK N   1      20.965  14.057   6.502  0.00  0.00     0.181 C 
BRANCH  15  16
HETATM   16  N   UNK N   1      20.879  14.254   5.085  0.00  0.00    -0.346 N 
HETATM   17  C   UNK N   1      19.809  14.869   4.526  0.00  0.00     0.241 C 
HETATM   18  O   UNK N   1      18.719  14.843   5.079  0.00  0.00    -0.271 OA
HETATM   19  H   UNK N   1      21.611  13.937   4.509  0.00  0.00     0.163 HD
BRANCH  17  20
HETATM   20  C   UNK N   1      20.088  15.937   3.521  0.00  0.00     0.182 C 
BRANCH  20  21
HETATM   21  N   UNK N   1      21.178  16.710   4.087  0.00  0.00    -0.346 N 
HETATM   22  C   UNK N   1      21.381  18.054   3.995  0.00  0.00     0.241 C 
HETATM   23  O   UNK N   1      22.334  18.532   4.589  0.00  0.00    -0.271 OA
HETATM   24  H   UNK N   1      21.851  16.203   4.597  0.00  0.00     0.163 HD
BRANCH  22  25
HETATM   25  C   UNK N   1      20.533  18.999   3.162  0.00  0.00     0.177 C 
HETATM   26  N   UNK N   1      20.900  18.993   1.778  0.00  0.00    -0.348 N 
HETATM   27  C   UNK N   1      20.912  20.225   1.272  0.00  0.00     0.218 C 
HETATM   28  H   UNK N   1      21.118  18.180   1.265  0.00  0.00     0.163 HD
HETATM   29  O   UNK N   1      21.149  20.443   0.096  0.00  0.00    -0.274 OA
HETATM   30  C   UNK N   1      20.580  21.285   2.244  0.00  0.00     0.105 C 
HETATM   31  C   UNK N   1      20.474  20.488   3.550  0.00  0.00     0.044 C 
ENDBRANCH  22  25
ENDBRANCH  20  21
BRANCH  20  32
HETATM   32  C   UNK N   1      20.546  15.278   2.218  0.00  0.00     0.093 C 
BRANCH  32  33
HETATM   33  C   UNK N   1      19.489  15.205   1.161  0.00  0.00     0.028 A 
HETATM   34  N   UNK N   1      18.672  14.152   1.012  0.00  0.00    -0.354 N 
HETATM   35  C   UNK N   1      17.895  14.459  -0.046  0.00  0.00     0.180 A 
HETATM   36  H   UNK N   1      18.646  13.333   1.557  0.00  0.00     0.166 HD
HETATM   37  N   UNK N   1      18.203  15.668  -0.559  0.00  0.00    -0.360 N 
HETATM   38  C   UNK N   1      19.206  16.144   0.198  0.00  0.00     0.114 A 
ATOM     39  HN  UNK N   1      17.763  16.127  -1.357  1.00  0.00     0.166 HD
ENDBRANCH  32  33
ENDBRANCH  20  32
ENDBRANCH  17  20
ENDBRANCH  15  16
BRANCH  15  40
HETATM   40  C   UNK N   1      20.792  12.592   6.932  0.00  0.00     0.075 C 
BRANCH  40  41
HETATM   41  C   UNK N   1      20.761  11.488   5.909  0.00  0.00    -0.028 A 
HETATM   42  C   UNK N   1      21.733  10.597   5.498  0.00  0.00    -0.002 A 
HETATM   43  C   UNK N   1      21.184   9.863   4.482  0.00  0.00     0.042 A 
HETATM   44  C   UNK N   1      23.046  10.384   5.915  0.00  0.00     0.014 A 
HETATM   45  N   UNK N   1      19.915  10.231   4.246  0.00  0.00    -0.365 N 
HETATM   46  C   UNK N   1      21.906   8.885   3.803  0.00  0.00     0.030 A 
HETATM   47  C   UNK N   1      19.644  11.231   5.120  0.00  0.00     0.096 A 
HETATM   48  H   UNK N   1      19.303   9.852   3.574  0.00  0.00     0.165 HD
HETATM   49  C   UNK N   1      23.236   8.659   4.196  0.00  0.00     0.002 A 
HETATM   50  C   UNK N   1      23.801   9.401   5.255  0.00  0.00     0.001 A 
ENDBRANCH  40  41
ENDBRANCH  15  40
ENDBRANCH  12  15
ENDBRANCH  10  11
BRANCH  10  51
HETATM   51  C   UNK N   1      25.136  13.337   8.816  0.00  0.00     0.199 C 
BRANCH  51  52
HETATM   52  O   UNK N   1      24.429  12.133   8.845  0.00  0.00    -0.398 OA
HETATM   53  H   UNK N   1      24.584  11.279   9.278  0.00  0.00     0.209 HD
ENDBRANCH  51  52
ENDBRANCH  10  51
ENDBRANCH   7  10
ENDBRANCH   5   6
BRANCH   5  54
HETATM   54  C   UNK N   1      23.922  15.050   3.839  0.00  0.00     0.073 C 
BRANCH  54  55
HETATM   55  C   UNK N   1      23.960  14.007   2.763  0.00  0.00    -0.056 A 
HETATM   56  C   UNK N   1      23.720  12.657   3.060  0.00  0.00     0.010 A 
HETATM   57  C   UNK N   1      23.771  11.695   2.043  0.00  0.00     0.037 A 
HETATM   58  C   UNK N   1      24.065  12.079   0.730  0.00  0.00     0.065 A 
HETATM   59  C   UNK N   1      24.308  13.423   0.434  0.00  0.00     0.037 A 
HETATM   60  C   UNK N   1      24.252  14.385   1.448  0.00  0.00     0.010 A 
BRANCH  58  61
HETATM   61  O   UNK N   1      24.116  11.157  -0.246  0.00  0.00    -0.361 OA
HETATM   62  H   UNK N   1      24.878  10.623  -0.346  0.00  0.00     0.217 HD
ENDBRANCH  58  61
ENDBRANCH  54  55
ENDBRANCH   5  54
ENDBRANCH   3   5
BRANCH   2  63
HETATM   63  C   UNK N   1      27.952  14.983   3.128  0.00  0.00     0.180 C 
BRANCH  63  64
HETATM   64  C   UNK N   1      28.934  14.967   4.226  0.00  0.00     0.241 C 
HETATM   65  O   UNK N   1      28.585  14.588   5.338  0.00  0.00    -0.271 OA
HETATM   66  N   UNK N   1      30.229  14.928   3.856  0.00  0.00    -0.346 N 
HETATM   67  H   UNK N   1      30.583  15.619   3.250  0.00  0.00     0.163 HD
BRANCH  66  68
HETATM   68  C   UNK N   1      31.097  13.892   4.334  0.00  0.00     0.177 C 
BRANCH  68  69
HETATM   69  C   UNK N   1      32.405  14.592   4.615  0.00  0.00     0.241 C 
HETATM   70  O   UNK N   1      33.321  14.471   3.816  0.00  0.00    -0.271 OA
HETATM   71  N   UNK N   1      32.455  15.629   5.481  0.00  0.00    -0.346 N 
HETATM   72  H   UNK N   1      32.699  16.502   5.100  0.00  0.00     0.163 HD
BRANCH  71  73
HETATM   73  C   UNK N   1      32.194  15.606   6.911  0.00  0.00     0.176 C 
BRANCH  73  74
HETATM   74  C   UNK N   1      33.461  15.247   7.718  0.00  0.00     0.243 C 
HETATM   75  O   UNK N   1      34.329  16.090   7.802  0.00  0.00    -0.271 OA
HETATM   76  N   UNK N   1      33.635  14.054   8.376  0.00  0.00    -0.337 N 
HETATM   77  C   UNK N   1      34.509  13.956   9.520  0.00  0.00     0.179 A 
HETATM   78  C   UNK N   1      32.896  12.856   8.114  0.00  0.00     0.127 A 
HETATM   79  C   UNK N   1      34.426  12.517   9.988  0.00  0.00     0.037 A 
HETATM   80  C   UNK N   1      33.415  11.818   9.089  0.00  0.00     0.022 A 
BRANCH  77  81
HETATM   81  C   UNK N   1      35.918  14.390   9.333  0.00  0.00     0.241 C 
HETATM   82  O   UNK N   1      36.359  15.280  10.048  0.00  0.00    -0.271 OA
HETATM   83  N   UNK N   1      36.721  13.754   8.451  0.00  0.00    -0.351 N 
HETATM   84  H   UNK N   1      36.329  13.121   7.807  0.00  0.00     0.163 HD
BRANCH  83  85
HETATM   85  C   UNK N   1      38.142  13.987   8.441  0.00  0.00     0.225 C 
BRANCH  85  86
HETATM   86  C   UNK N   1      38.771  13.050   9.424  0.00  0.00     0.233 C 
HETATM   87  O   UNK N   1      39.107  11.931   9.068  0.00  0.00    -0.272 OA
HETATM   88  N   UNK N   1      38.909  13.413  10.713  0.00  0.00    -0.369 N 
HETATM   89  H   UNK N   1      38.275  13.769  11.377  0.00  0.00     0.159 HD
HETATM   90  H   UNK N   1      39.824  13.302  11.060  0.00  0.00     0.159 HD
ENDBRANCH  85  86
ENDBRANCH  83  85
ENDBRANCH  77  81
ENDBRANCH  73  74
BRANCH  73  91
HETATM   91  C   UNK N   1      31.691  17.035   7.138  0.00  0.00     0.036 C 
BRANCH  91  92
HETATM   92  C   UNK N   1      30.231  16.984   7.661  0.00  0.00     0.023 C 
BRANCH  92  93
HETATM   93  C   UNK N   1      29.262  17.739   6.792  0.00  0.00     0.138 C 
BRANCH  93  94
HETATM   94  N   UNK N   1      28.592  18.723   7.595  0.00  0.00    -0.227 N 
HETATM   95  C   UNK N   1      27.529  19.311   7.176  0.00  0.00     0.665 C 
HETATM   96  N   UNK N   1      26.880  20.245   8.008  0.00  0.00    -0.235 N 
HETATM   97  N   UNK N   1      26.982  19.004   5.906  0.00  0.00    -0.235 N 
HETATM   98  H   UNK N   1      26.614  20.017   8.929  0.00  0.00     0.174 HD
HETATM   99  H   UNK N   1      26.689  21.145   7.661  0.00  0.00     0.174 HD
HETATM  100  H   UNK N   1      26.378  19.537   5.341  0.00  0.00     0.174 HD
HETATM  101  H   UNK N   1      27.245  18.131   5.535  0.00  0.00     0.174 HD
ATOM    102  HN  UNK N   1      28.966  18.959   8.514  1.00  0.00     0.177 HD
ENDBRANCH  93  94
ENDBRANCH  92  93
ENDBRANCH  91  92
ENDBRANCH  73  91
ENDBRANCH  71  73
ENDBRANCH  68  69
BRANCH  68 103
HETATM  103  C   UNK N   1      31.235  12.701   3.379  0.00  0.00     0.038 C 
BRANCH 103 104
HETATM  104  C   UNK N   1      30.807  11.396   4.041  0.00  0.00    -0.020 C 
HETATM  105  C   UNK N   1      30.648  10.292   3.012  0.00  0.00     0.009 C 
HETATM  106  C   UNK N   1      31.862  10.979   5.041  0.00  0.00     0.009 C 
ENDBRANCH 103 104
ENDBRANCH  68 103
ENDBRANCH  66  68
ENDBRANCH  63  64
BRANCH  63 107
HETATM  107  C   UNK N   1      28.157  14.085   1.907  0.00  0.00     0.073 C 
BRANCH 107 108
HETATM  108  C   UNK N   1      27.566  12.781   2.227  0.00  0.00    -0.055 A 
HETATM  109  C   UNK N   1      27.529  11.808   1.236  0.00  0.00     0.019 A 
HETATM  110  C   UNK N   1      27.241  10.496   1.576  0.00  0.00    -0.025 A 
HETATM  111  C   UNK N   1      27.008  10.152   2.928  0.00  0.00    -0.026 A 
HETATM  112  C   UNK N   1      27.227   9.514   0.589  0.00  0.00     0.012 A 
HETATM  113  C   UNK N   1      27.028  11.139   3.915  0.00  0.00     0.013 A 
HETATM  114  C   UNK N   1      26.776   8.821   3.271  0.00  0.00     0.012 A 
HETATM  115  C   UNK N   1      27.318  12.455   3.565  0.00  0.00     0.008 A 
HETATM  116  C   UNK N   1      26.773   7.838   2.277  0.00  0.00     0.001 A 
HETATM  117  C   UNK N   1      26.991   8.185   0.939  0.00  0.00     0.001 A 
ENDBRANCH 107 108
ENDBRANCH  63 107
ENDBRANCH   2  63
TORSDOF 35
ENDMDL
