MODEL 1
REMARK VINA RESULT:      -6.3      0.000      0.000
REMARK  14 active torsions:
REMARK  status: ('A' for Active; 'I' for Inactive)
REMARK    1  A    between atoms: C_1  and  O_7 
REMARK    2  A    between atoms: C_2  and  O_8 
REMARK    3  A    between atoms: C_3  and  O_23 
REMARK    4  A    between atoms: C_4  and  O_22 
REMARK    5  A    between atoms: C_5  and  O_7 
REMARK    6  A    between atoms: C_6  and  N_21 
REMARK    7  A    between atoms: C_9  and  O_8 
REMARK    8  A    between atoms: C_10  and  O_26 
REMARK    9  A    between atoms: C_12  and  N_24 
REMARK   10  A    between atoms: C_13  and  N_25 
REMARK   11  A    between atoms: C_30  and  C_16 
REMARK   12  A    between atoms: C_19  and  N_27 
REMARK   13  A    between atoms: C_31  and  N_24 
REMARK   14  A    between atoms: N_28  and  C_30 
ROOT
HETATM    1  C   UNK N   1      35.734  14.365   9.862  0.00  0.00     0.178 C 
HETATM    2  C   UNK N   1      36.567  12.991  11.871  0.00  0.00     0.178 C 
HETATM    3  C   UNK N   1      36.405  14.398  11.250  0.00  0.00     0.180 C 
HETATM    4  C   UNK N   1      36.433  13.392   8.911  0.00  0.00     0.110 C 
HETATM    5  C   UNK N   1      37.167  12.009  10.856  0.00  0.00     0.107 C 
HETATM    6  C   UNK N   1      36.395  12.004   9.545  0.00  0.00     0.054 C 
ENDROOT
BRANCH   1   7
HETATM    7  O   UNK N   1      35.512  15.626   9.249  0.00  0.00    -0.349 OA
BRANCH   7   8
HETATM    8  C   UNK N   1      34.288  16.218   9.639  0.00  0.00     0.291 C 
HETATM    9  C   UNK N   1      33.110  15.467   8.999  0.00  0.00     0.198 C 
HETATM   10  C   UNK N   1      32.614  16.142   7.701  0.00  0.00     0.146 C 
HETATM   11  C   UNK N   1      33.799  16.828   7.000  0.00  0.00     0.098 C 
HETATM   12  C   UNK N   1      34.448  17.850   7.958  0.00  0.00     0.210 C 
HETATM   13  C   UNK N   1      33.365  17.544   5.735  0.00  0.00     0.050 C 
HETATM   14  O   UNK N   1      34.241  17.601   9.344  0.00  0.00    -0.356 OA
BRANCH   9  15
HETATM   15  O   UNK N   1      32.066  15.301   9.913  0.00  0.00    -0.388 OA
HETATM   16  H   UNK N   1      31.963  15.878  10.686  0.00  0.00     0.210 HD
ENDBRANCH   9  15
BRANCH  10  17
HETATM   17  N   UNK N   1      31.566  17.117   7.996  0.00  0.00    -0.416 N 
HETATM   18  C   UNK N   1      30.370  16.674   7.302  0.00  0.00     0.140 C 
HETATM   19  H   UNK N   1      31.658  17.949   8.580  0.00  0.00     0.153 HD
ENDBRANCH  10  17
BRANCH  11  20
HETATM   20  O   UNK N   1      34.747  15.866   6.643  0.00  0.00    -0.386 OA
HETATM   21  H   UNK N   1      35.621  15.450   6.706  0.00  0.00     0.210 HD
ENDBRANCH  11  20
ENDBRANCH   7   8
ENDBRANCH   1   7
BRANCH   3  22
HETATM   22  O   UNK N   1      35.638  15.208  12.091  0.00  0.00    -0.390 OA
HETATM   23  H   UNK N   1      35.860  16.016  12.580  0.00  0.00     0.210 HD
ENDBRANCH   3  22
BRANCH   4  24
HETATM   24  N   UNK N   1      35.740  13.370   7.626  0.00  0.00    -0.415 N 
HETATM   25  H   UNK N   1      34.798  13.721   7.453  0.00  0.00     0.153 HD
BRANCH  24  26
HETATM   26  C   UNK N   1      36.615  12.762   6.631  0.00  0.00     0.110 C 
HETATM   27  C   UNK N   1      37.593  13.787   6.090  0.00  0.00     0.026 C 
ENDBRANCH  24  26
ENDBRANCH   4  24
BRANCH   2  28
HETATM   28  O   UNK N   1      37.445  13.039  12.970  0.00  0.00    -0.349 OA
BRANCH  28  29
HETATM   29  C   UNK N   1      36.745  12.618  14.106  0.00  0.00     0.288 C 
HETATM   30  O   UNK N   1      35.650  11.881  13.698  0.00  0.00    -0.321 OA
HETATM   31  C   UNK N   1      34.599  11.598  14.516  0.00  0.00     0.063 C 
HETATM   32  C   UNK N   1      34.460  12.237  15.688  0.00  0.00     0.009 C 
HETATM   33  C   UNK N   1      35.456  13.284  16.123  0.00  0.00     0.059 C 
HETATM   34  C   UNK N   1      36.282  13.807  14.944  0.00  0.00     0.133 C 
BRANCH  31  35
HETATM   35  C   UNK N   1      33.578  10.586  14.098  0.00  0.00     0.175 C 
BRANCH  35  36
HETATM   36  N   UNK N   1      33.597  10.393  12.656  0.00  0.00    -0.425 N 
HETATM   37  H   UNK N   1      33.559  11.169  11.996  0.00  0.00     0.150 HD
HETATM   38  H   UNK N   1      33.650   9.442  12.292  0.00  0.00     0.150 HD
ENDBRANCH  35  36
ENDBRANCH  31  35
BRANCH  34  39
HETATM   39  N   UNK N   1      37.422  14.555  15.442  0.00  0.00    -0.422 N 
HETATM   40  H   UNK N   1      38.225  14.100  15.879  0.00  0.00     0.150 HD
HETATM   41  H   UNK N   1      37.423  15.570  15.352  0.00  0.00     0.150 HD
ENDBRANCH  34  39
ENDBRANCH  28  29
ENDBRANCH   2  28
BRANCH   5  42
HETATM   42  N   UNK N   1      37.175  10.667  11.411  0.00  0.00    -0.423 N 
HETATM   43  H   UNK N   1      36.365  10.058  11.285  0.00  0.00     0.150 HD
HETATM   44  H   UNK N   1      37.989  10.332  11.925  0.00  0.00     0.150 HD
ENDBRANCH   5  42
TORSDOF 14
ENDMDL
MODEL 2
REMARK VINA RESULT:      -6.3      2.519      7.959
REMARK  14 active torsions:
REMARK  status: ('A' for Active; 'I' for Inactive)
REMARK    1  A    between atoms: C_1  and  O_7 
REMARK    2  A    between atoms: C_2  and  O_8 
REMARK    3  A    between atoms: C_3  and  O_23 
REMARK    4  A    between atoms: C_4  and  O_22 
REMARK    5  A    between atoms: C_5  and  O_7 
REMARK    6  A    between atoms: C_6  and  N_21 
REMARK    7  A    between atoms: C_9  and  O_8 
REMARK    8  A    between atoms: C_10  and  O_26 
REMARK    9  A    between atoms: C_12  and  N_24 
REMARK   10  A    between atoms: C_13  and  N_25 
REMARK   11  A    between atoms: C_30  and  C_16 
REMARK   12  A    between atoms: C_19  and  N_27 
REMARK   13  A    between atoms: C_31  and  N_24 
REMARK   14  A    between atoms: N_28  and  C_30 
ROOT
HETATM    1  C   UNK N   1      34.336  15.738   7.085  0.00  0.00     0.178 C 
HETATM    2  C   UNK N   1      32.198  16.196   5.731  0.00  0.00     0.178 C 
HETATM    3  C   UNK N   1      32.799  15.862   7.116  0.00  0.00     0.180 C 
HETATM    4  C   UNK N   1      34.812  14.770   6.002  0.00  0.00     0.110 C 
HETATM    5  C   UNK N   1      32.779  15.281   4.646  0.00  0.00     0.107 C 
HETATM    6  C   UNK N   1      34.300  15.279   4.656  0.00  0.00     0.054 C 
ENDROOT
BRANCH   1   7
HETATM    7  O   UNK N   1      34.964  15.476   8.332  0.00  0.00    -0.349 OA
BRANCH   7   8
HETATM    8  C   UNK N   1      34.218  14.591   9.146  0.00  0.00     0.291 C 
HETATM    9  C   UNK N   1      34.296  15.033  10.616  0.00  0.00     0.198 C 
HETATM   10  C   UNK N   1      35.386  14.274  11.405  0.00  0.00     0.146 C 
HETATM   11  C   UNK N   1      36.543  13.917  10.455  0.00  0.00     0.098 C 
HETATM   12  C   UNK N   1      36.008  13.076   9.277  0.00  0.00     0.210 C 
HETATM   13  C   UNK N   1      37.632  13.134  11.166  0.00  0.00     0.050 C 
HETATM   14  O   UNK N   1      34.625  13.245   8.989  0.00  0.00    -0.356 OA
BRANCH   9  15
HETATM   15  O   UNK N   1      33.051  14.918  11.239  0.00  0.00    -0.388 OA
HETATM   16  H   UNK N   1      32.832  15.409  12.047  0.00  0.00     0.210 HD
ENDBRANCH   9  15
BRANCH  10  17
HETATM   17  N   UNK N   1      34.835  13.064  12.010  0.00  0.00    -0.416 N 
HETATM   18  C   UNK N   1      35.092  13.151  13.437  0.00  0.00     0.140 C 
HETATM   19  H   UNK N   1      34.361  12.303  11.523  0.00  0.00     0.153 HD
ENDBRANCH  10  17
BRANCH  11  20
HETATM   20  O   UNK N   1      37.117  15.091   9.960  0.00  0.00    -0.386 OA
HETATM   21  H   UNK N   1      37.675  15.584   9.338  0.00  0.00     0.210 HD
ENDBRANCH  11  20
ENDBRANCH   7   8
ENDBRANCH   1   7
BRANCH   3  22
HETATM   22  O   UNK N   1      32.455  16.852   8.039  0.00  0.00    -0.390 OA
HETATM   23  H   UNK N   1      32.932  17.641   8.339  0.00  0.00     0.210 HD
ENDBRANCH   3  22
BRANCH   4  24
HETATM   24  N   UNK N   1      36.271  14.716   5.989  0.00  0.00    -0.415 N 
HETATM   25  H   UNK N   1      36.890  15.219   6.626  0.00  0.00     0.153 HD
BRANCH  24  26
HETATM   26  C   UNK N   1      36.699  13.826   4.916  0.00  0.00     0.110 C 
HETATM   27  C   UNK N   1      38.199  13.922   4.717  0.00  0.00     0.026 C 
ENDBRANCH  24  26
ENDBRANCH   4  24
BRANCH   2  28
HETATM   28  O   UNK N   1      30.805  15.994   5.741  0.00  0.00    -0.349 OA
BRANCH  28  29
HETATM   29  C   UNK N   1      30.186  17.235   5.930  0.00  0.00     0.288 C 
HETATM   30  O   UNK N   1      29.824  17.346   7.259  0.00  0.00    -0.321 OA
HETATM   31  C   UNK N   1      28.933  18.270   7.711  0.00  0.00     0.063 C 
HETATM   32  C   UNK N   1      28.170  18.956   6.846  0.00  0.00     0.009 C 
HETATM   33  C   UNK N   1      28.275  18.717   5.360  0.00  0.00     0.059 C 
HETATM   34  C   UNK N   1      28.949  17.378   5.046  0.00  0.00     0.133 C 
BRANCH  31  35
HETATM   35  C   UNK N   1      28.783  18.508   9.181  0.00  0.00     0.175 C 
BRANCH  35  36
HETATM   36  N   UNK N   1      30.049  18.313   9.871  0.00  0.00    -0.425 N 
HETATM   37  H   UNK N   1      30.384  18.944  10.598  0.00  0.00     0.150 HD
HETATM   38  H   UNK N   1      30.624  17.510   9.616  0.00  0.00     0.150 HD
ENDBRANCH  35  36
ENDBRANCH  31  35
BRANCH  34  39
HETATM   39  N   UNK N   1      29.319  17.335   3.643  0.00  0.00    -0.422 N 
HETATM   40  H   UNK N   1      29.266  18.155   3.039  0.00  0.00     0.150 HD
HETATM   41  H   UNK N   1      29.642  16.453   3.246  0.00  0.00     0.150 HD
ENDBRANCH  34  39
ENDBRANCH  28  29
ENDBRANCH   2  28
BRANCH   5  42
HETATM   42  N   UNK N   1      32.312  15.705   3.337  0.00  0.00    -0.423 N 
HETATM   43  H   UNK N   1      32.444  15.099   2.527  0.00  0.00     0.150 HD
HETATM   44  H   UNK N   1      31.852  16.609   3.229  0.00  0.00     0.150 HD
ENDBRANCH   5  42
TORSDOF 14
ENDMDL
MODEL 3
REMARK VINA RESULT:      -6.3      1.646      2.016
REMARK  14 active torsions:
REMARK  status: ('A' for Active; 'I' for Inactive)
REMARK    1  A    between atoms: C_1  and  O_7 
REMARK    2  A    between atoms: C_2  and  O_8 
REMARK    3  A    between atoms: C_3  and  O_23 
REMARK    4  A    between atoms: C_4  and  O_22 
REMARK    5  A    between atoms: C_5  and  O_7 
REMARK    6  A    between atoms: C_6  and  N_21 
REMARK    7  A    between atoms: C_9  and  O_8 
REMARK    8  A    between atoms: C_10  and  O_26 
REMARK    9  A    between atoms: C_12  and  N_24 
REMARK   10  A    between atoms: C_13  and  N_25 
REMARK   11  A    between atoms: C_30  and  C_16 
REMARK   12  A    between atoms: C_19  and  N_27 
REMARK   13  A    between atoms: C_31  and  N_24 
REMARK   14  A    between atoms: N_28  and  C_30 
ROOT
HETATM    1  C   UNK N   1      35.115  13.589   8.664  0.00  0.00     0.178 C 
HETATM    2  C   UNK N   1      36.337  13.607  10.927  0.00  0.00     0.178 C 
HETATM    3  C   UNK N   1      35.075  14.031  10.141  0.00  0.00     0.180 C 
HETATM    4  C   UNK N   1      36.403  14.032   7.968  0.00  0.00     0.110 C 
HETATM    5  C   UNK N   1      37.612  13.964  10.152  0.00  0.00     0.107 C 
HETATM    6  C   UNK N   1      37.582  13.428   8.728  0.00  0.00     0.054 C 
ENDROOT
BRANCH   1   7
HETATM    7  O   UNK N   1      33.968  13.905   7.889  0.00  0.00    -0.349 OA
BRANCH   7   8
HETATM    8  C   UNK N   1      33.702  15.293   7.844  0.00  0.00     0.291 C 
HETATM    9  C   UNK N   1      32.264  15.571   8.312  0.00  0.00     0.198 C 
HETATM   10  C   UNK N   1      31.274  15.703   7.133  0.00  0.00     0.146 C 
HETATM   11  C   UNK N   1      31.742  14.806   5.974  0.00  0.00     0.098 C 
HETATM   12  C   UNK N   1      33.174  15.200   5.557  0.00  0.00     0.210 C 
HETATM   13  C   UNK N   1      30.827  14.923   4.769  0.00  0.00     0.050 C 
HETATM   14  O   UNK N   1      33.944  15.846   6.564  0.00  0.00    -0.356 OA
BRANCH   9  15
HETATM   15  O   UNK N   1      32.215  16.695   9.140  0.00  0.00    -0.388 OA
HETATM   16  H   UNK N   1      31.378  17.125   9.375  0.00  0.00     0.210 HD
ENDBRANCH   9  15
BRANCH  10  17
HETATM   17  N   UNK N   1      31.182  17.093   6.692  0.00  0.00    -0.416 N 
HETATM   18  C   UNK N   1      29.811  17.518   6.919  0.00  0.00     0.140 C 
HETATM   19  H   UNK N   1      31.936  17.657   6.301  0.00  0.00     0.153 HD
ENDBRANCH  10  17
BRANCH  11  20
HETATM   20  O   UNK N   1      31.733  13.472   6.388  0.00  0.00    -0.386 OA
HETATM   21  H   UNK N   1      31.985  12.538   6.300  0.00  0.00     0.210 HD
ENDBRANCH  11  20
ENDBRANCH   7   8
ENDBRANCH   1   7
BRANCH   3  22
HETATM   22  O   UNK N   1      33.935  13.482  10.733  0.00  0.00    -0.390 OA
HETATM   23  H   UNK N   1      33.536  12.601  10.660  0.00  0.00     0.210 HD
ENDBRANCH   3  22
BRANCH   4  24
HETATM   24  N   UNK N   1      36.409  13.559   6.587  0.00  0.00    -0.415 N 
HETATM   25  H   UNK N   1      35.585  13.427   6.000  0.00  0.00     0.153 HD
BRANCH  24  26
HETATM   26  C   UNK N   1      37.788  13.304   6.184  0.00  0.00     0.110 C 
HETATM   27  C   UNK N   1      38.266  14.380   5.229  0.00  0.00     0.026 C 
ENDBRANCH  24  26
ENDBRANCH   4  24
BRANCH   2  28
HETATM   28  O   UNK N   1      36.397  14.286  12.159  0.00  0.00    -0.349 OA
BRANCH  28  29
HETATM   29  C   UNK N   1      36.351  13.335  13.184  0.00  0.00     0.288 C 
HETATM   30  O   UNK N   1      35.316  12.458  12.922  0.00  0.00    -0.321 OA
HETATM   31  C   UNK N   1      34.798  11.620  13.861  0.00  0.00     0.063 C 
HETATM   32  C   UNK N   1      35.100  11.785  15.158  0.00  0.00     0.009 C 
HETATM   33  C   UNK N   1      36.012  12.900  15.606  0.00  0.00     0.059 C 
HETATM   34  C   UNK N   1      36.134  13.996  14.543  0.00  0.00     0.133 C 
BRANCH  31  35
HETATM   35  C   UNK N   1      33.866  10.523  13.450  0.00  0.00     0.175 C 
BRANCH  35  36
HETATM   36  N   UNK N   1      33.673  10.517  12.009  0.00  0.00    -0.425 N 
HETATM   37  H   UNK N   1      34.298  10.024  11.371  0.00  0.00     0.150 HD
HETATM   38  H   UNK N   1      32.879  11.026  11.621  0.00  0.00     0.150 HD
ENDBRANCH  35  36
ENDBRANCH  31  35
BRANCH  34  39
HETATM   39  N   UNK N   1      37.248  14.868  14.869  0.00  0.00    -0.422 N 
HETATM   40  H   UNK N   1      37.142  15.691  15.462  0.00  0.00     0.150 HD
HETATM   41  H   UNK N   1      38.170  14.652  14.491  0.00  0.00     0.150 HD
ENDBRANCH  34  39
ENDBRANCH  28  29
ENDBRANCH   2  28
BRANCH   5  42
HETATM   42  N   UNK N   1      38.775  13.430  10.838  0.00  0.00    -0.423 N 
HETATM   43  H   UNK N   1      39.483  14.063  11.211  0.00  0.00     0.150 HD
HETATM   44  H   UNK N   1      38.885  12.422  10.947  0.00  0.00     0.150 HD
ENDBRANCH   5  42
TORSDOF 14
ENDMDL
MODEL 4
REMARK VINA RESULT:      -6.2     10.483     14.471
REMARK  14 active torsions:
REMARK  status: ('A' for Active; 'I' for Inactive)
REMARK    1  A    between atoms: C_1  and  O_7 
REMARK    2  A    between atoms: C_2  and  O_8 
REMARK    3  A    between atoms: C_3  and  O_23 
REMARK    4  A    between atoms: C_4  and  O_22 
REMARK    5  A    between atoms: C_5  and  O_7 
REMARK    6  A    between atoms: C_6  and  N_21 
REMARK    7  A    between atoms: C_9  and  O_8 
REMARK    8  A    between atoms: C_10  and  O_26 
REMARK    9  A    between atoms: C_12  and  N_24 
REMARK   10  A    between atoms: C_13  and  N_25 
REMARK   11  A    between atoms: C_30  and  C_16 
REMARK   12  A    between atoms: C_19  and  N_27 
REMARK   13  A    between atoms: C_31  and  N_24 
REMARK   14  A    between atoms: N_28  and  C_30 
ROOT
HETATM    1  C   UNK N   1      22.580  18.062   4.901  0.00  0.00     0.178 C 
HETATM    2  C   UNK N   1      21.139  15.960   5.252  0.00  0.00     0.178 C 
HETATM    3  C   UNK N   1      22.540  16.601   5.393  0.00  0.00     0.180 C 
HETATM    4  C   UNK N   1      22.020  18.206   3.485  0.00  0.00     0.110 C 
HETATM    5  C   UNK N   1      20.556  16.217   3.856  0.00  0.00     0.107 C 
HETATM    6  C   UNK N   1      20.581  17.694   3.492  0.00  0.00     0.054 C 
ENDROOT
BRANCH   1   7
HETATM    7  O   UNK N   1      23.825  18.731   5.041  0.00  0.00    -0.349 OA
BRANCH   7   8
HETATM    8  C   UNK N   1      24.819  18.227   4.170  0.00  0.00     0.291 C 
HETATM    9  C   UNK N   1      25.941  17.558   4.979  0.00  0.00     0.198 C 
HETATM   10  C   UNK N   1      27.138  18.504   5.224  0.00  0.00     0.146 C 
HETATM   11  C   UNK N   1      26.628  19.953   5.318  0.00  0.00     0.098 C 
HETATM   12  C   UNK N   1      25.869  20.322   4.027  0.00  0.00     0.210 C 
HETATM   13  C   UNK N   1      27.767  20.936   5.520  0.00  0.00     0.050 C 
HETATM   14  O   UNK N   1      25.330  19.222   3.303  0.00  0.00    -0.356 OA
BRANCH   9  15
HETATM   15  O   UNK N   1      26.354  16.368   4.375  0.00  0.00    -0.388 OA
HETATM   16  H   UNK N   1      25.861  15.540   4.481  0.00  0.00     0.210 HD
ENDBRANCH   9  15
BRANCH  10  17
HETATM   17  N   UNK N   1      28.119  18.381   4.148  0.00  0.00    -0.416 N 
HETATM   18  C   UNK N   1      29.327  17.833   4.740  0.00  0.00     0.140 C 
HETATM   19  H   UNK N   1      27.981  18.632   3.169  0.00  0.00     0.153 HD
ENDBRANCH  10  17
BRANCH  11  20
HETATM   20  O   UNK N   1      25.764  20.071   6.409  0.00  0.00    -0.386 OA
HETATM   21  H   UNK N   1      24.977  19.823   6.918  0.00  0.00     0.210 HD
ENDBRANCH  11  20
ENDBRANCH   7   8
ENDBRANCH   1   7
BRANCH   3  22
HETATM   22  O   UNK N   1      22.946  16.575   6.729  0.00  0.00    -0.390 OA
HETATM   23  H   UNK N   1      23.819  16.694   7.135  0.00  0.00     0.210 HD
ENDBRANCH   3  22
BRANCH   4  24
HETATM   24  N   UNK N   1      22.046  19.609   3.081  0.00  0.00    -0.415 N 
HETATM   25  H   UNK N   1      22.877  20.198   3.034  0.00  0.00     0.153 HD
BRANCH  24  26
HETATM   26  C   UNK N   1      20.688  20.028   2.755  0.00  0.00     0.110 C 
HETATM   27  C   UNK N   1      20.688  20.906   1.519  0.00  0.00     0.026 C 
ENDBRANCH  24  26
ENDBRANCH   4  24
BRANCH   2  28
HETATM   28  O   UNK N   1      21.221  14.564   5.416  0.00  0.00    -0.349 OA
BRANCH  28  29
HETATM   29  C   UNK N   1      20.688  14.241   6.668  0.00  0.00     0.288 C 
HETATM   30  O   UNK N   1      20.178  15.391   7.239  0.00  0.00    -0.321 OA
HETATM   31  C   UNK N   1      19.880  15.495   8.563  0.00  0.00     0.063 C 
HETATM   32  C   UNK N   1      20.306  14.562   9.428  0.00  0.00     0.009 C 
HETATM   33  C   UNK N   1      21.126  13.386   8.959  0.00  0.00     0.059 C 
HETATM   34  C   UNK N   1      21.751  13.641   7.585  0.00  0.00     0.133 C 
BRANCH  31  35
HETATM   35  C   UNK N   1      19.094  16.667   9.063  0.00  0.00     0.175 C 
BRANCH  35  36
HETATM   36  N   UNK N   1      19.733  17.919   8.688  0.00  0.00    -0.425 N 
HETATM   37  H   UNK N   1      19.249  18.816   8.721  0.00  0.00     0.150 HD
HETATM   38  H   UNK N   1      20.705  17.898   8.381  0.00  0.00     0.150 HD
ENDBRANCH  35  36
ENDBRANCH  31  35
BRANCH  34  39
HETATM   39  N   UNK N   1      22.250  12.392   7.037  0.00  0.00    -0.422 N 
HETATM   40  H   UNK N   1      21.838  11.489   7.273  0.00  0.00     0.150 HD
HETATM   41  H   UNK N   1      23.040  12.418   6.393  0.00  0.00     0.150 HD
ENDBRANCH  34  39
ENDBRANCH  28  29
ENDBRANCH   2  28
BRANCH   5  42
HETATM   42  N   UNK N   1      19.187  15.734   3.795  0.00  0.00    -0.423 N 
HETATM   43  H   UNK N   1      18.919  15.051   3.086  0.00  0.00     0.150 HD
HETATM   44  H   UNK N   1      18.495  16.078   4.459  0.00  0.00     0.150 HD
ENDBRANCH   5  42
TORSDOF 14
ENDMDL
MODEL 5
REMARK VINA RESULT:      -6.1      5.504      9.859
REMARK  14 active torsions:
REMARK  status: ('A' for Active; 'I' for Inactive)
REMARK    1  A    between atoms: C_1  and  O_7 
REMARK    2  A    between atoms: C_2  and  O_8 
REMARK    3  A    between atoms: C_3  and  O_23 
REMARK    4  A    between atoms: C_4  and  O_22 
REMARK    5  A    between atoms: C_5  and  O_7 
REMARK    6  A    between atoms: C_6  and  N_21 
REMARK    7  A    between atoms: C_9  and  O_8 
REMARK    8  A    between atoms: C_10  and  O_26 
REMARK    9  A    between atoms: C_12  and  N_24 
REMARK   10  A    between atoms: C_13  and  N_25 
REMARK   11  A    between atoms: C_30  and  C_16 
REMARK   12  A    between atoms: C_19  and  N_27 
REMARK   13  A    between atoms: C_31  and  N_24 
REMARK   14  A    between atoms: N_28  and  C_30 
ROOT
HETATM    1  C   UNK N   1      30.866  16.355   7.037  0.00  0.00     0.178 C 
HETATM    2  C   UNK N   1      28.326  16.710   7.234  0.00  0.00     0.178 C 
HETATM    3  C   UNK N   1      29.523  16.462   6.286  0.00  0.00     0.180 C 
HETATM    4  C   UNK N   1      31.102  17.548   7.963  0.00  0.00     0.110 C 
HETATM    5  C   UNK N   1      28.636  17.840   8.225  0.00  0.00     0.107 C 
HETATM    6  C   UNK N   1      29.948  17.607   8.961  0.00  0.00     0.054 C 
ENDROOT
BRANCH   1   7
HETATM    7  O   UNK N   1      32.006  16.083   6.235  0.00  0.00    -0.349 OA
BRANCH   7   8
HETATM    8  C   UNK N   1      32.535  14.789   6.454  0.00  0.00     0.291 C 
HETATM    9  C   UNK N   1      34.071  14.833   6.419  0.00  0.00     0.198 C 
HETATM   10  C   UNK N   1      34.642  14.446   5.037  0.00  0.00     0.146 C 
HETATM   11  C   UNK N   1      33.652  14.875   3.940  0.00  0.00     0.098 C 
HETATM   12  C   UNK N   1      32.280  14.214   4.191  0.00  0.00     0.210 C 
HETATM   13  C   UNK N   1      34.142  14.484   2.558  0.00  0.00     0.050 C 
HETATM   14  O   UNK N   1      32.025  13.837   5.540  0.00  0.00    -0.356 OA
BRANCH   9  15
HETATM   15  O   UNK N   1      34.617  14.041   7.431  0.00  0.00    -0.388 OA
HETATM   16  H   UNK N   1      35.572  14.007   7.599  0.00  0.00     0.210 HD
ENDBRANCH   9  15
BRANCH  10  17
HETATM   17  N   UNK N   1      34.886  13.007   4.966  0.00  0.00    -0.416 N 
HETATM   18  C   UNK N   1      36.318  12.828   4.804  0.00  0.00     0.140 C 
HETATM   19  H   UNK N   1      34.183  12.269   5.020  0.00  0.00     0.153 HD
ENDBRANCH  10  17
BRANCH  11  20
HETATM   20  O   UNK N   1      33.505  16.263   3.964  0.00  0.00    -0.386 OA
HETATM   21  H   UNK N   1      33.381  17.111   4.420  0.00  0.00     0.210 HD
ENDBRANCH  11  20
ENDBRANCH   7   8
ENDBRANCH   1   7
BRANCH   3  22
HETATM   22  O   UNK N   1      29.326  15.283   5.565  0.00  0.00    -0.390 OA
HETATM   23  H   UNK N   1      29.344  15.105   4.612  0.00  0.00     0.210 HD
ENDBRANCH   3  22
BRANCH   4  24
HETATM   24  N   UNK N   1      32.366  17.382   8.676  0.00  0.00    -0.415 N 
HETATM   25  H   UNK N   1      32.578  16.641   9.344  0.00  0.00     0.153 HD
BRANCH  24  26
HETATM   26  C   UNK N   1      33.275  18.450   8.276  0.00  0.00     0.110 C 
HETATM   27  C   UNK N   1      34.708  17.958   8.292  0.00  0.00     0.026 C 
ENDBRANCH  24  26
ENDBRANCH   4  24
BRANCH   2  28
HETATM   28  O   UNK N   1      27.193  17.105   6.498  0.00  0.00    -0.349 OA
BRANCH  28  29
HETATM   29  C   UNK N   1      27.496  18.302   5.840  0.00  0.00     0.288 C 
HETATM   30  O   UNK N   1      26.897  19.342   6.525  0.00  0.00    -0.321 OA
HETATM   31  C   UNK N   1      26.724  20.582   5.989  0.00  0.00     0.063 C 
HETATM   32  C   UNK N   1      26.901  20.783   4.674  0.00  0.00     0.009 C 
HETATM   33  C   UNK N   1      27.287  19.646   3.761  0.00  0.00     0.059 C 
HETATM   34  C   UNK N   1      26.998  18.283   4.397  0.00  0.00     0.133 C 
BRANCH  31  35
HETATM   35  C   UNK N   1      26.312  21.724   6.865  0.00  0.00     0.175 C 
BRANCH  35  36
HETATM   36  N   UNK N   1      25.865  21.247   8.165  0.00  0.00    -0.425 N 
HETATM   37  H   UNK N   1      26.126  21.704   9.039  0.00  0.00     0.150 HD
HETATM   38  H   UNK N   1      25.267  20.422   8.203  0.00  0.00     0.150 HD
ENDBRANCH  35  36
ENDBRANCH  31  35
BRANCH  34  39
HETATM   39  N   UNK N   1      27.669  17.240   3.641  0.00  0.00    -0.422 N 
HETATM   40  H   UNK N   1      27.382  16.980   2.697  0.00  0.00     0.150 HD
HETATM   41  H   UNK N   1      28.455  16.751   4.068  0.00  0.00     0.150 HD
ENDBRANCH  34  39
ENDBRANCH  28  29
ENDBRANCH   2  28
BRANCH   5  42
HETATM   42  N   UNK N   1      27.561  17.957   9.195  0.00  0.00    -0.423 N 
HETATM   43  H   UNK N   1      26.609  18.150   8.880  0.00  0.00     0.150 HD
HETATM   44  H   UNK N   1      27.756  17.847  10.189  0.00  0.00     0.150 HD
ENDBRANCH   5  42
TORSDOF 14
ENDMDL
MODEL 6
REMARK VINA RESULT:      -6.0      3.401      8.627
REMARK  14 active torsions:
REMARK  status: ('A' for Active; 'I' for Inactive)
REMARK    1  A    between atoms: C_1  and  O_7 
REMARK    2  A    between atoms: C_2  and  O_8 
REMARK    3  A    between atoms: C_3  and  O_23 
REMARK    4  A    between atoms: C_4  and  O_22 
REMARK    5  A    between atoms: C_5  and  O_7 
REMARK    6  A    between atoms: C_6  and  N_21 
REMARK    7  A    between atoms: C_9  and  O_8 
REMARK    8  A    between atoms: C_10  and  O_26 
REMARK    9  A    between atoms: C_12  and  N_24 
REMARK   10  A    between atoms: C_13  and  N_25 
REMARK   11  A    between atoms: C_30  and  C_16 
REMARK   12  A    between atoms: C_19  and  N_27 
REMARK   13  A    between atoms: C_31  and  N_24 
REMARK   14  A    between atoms: N_28  and  C_30 
ROOT
HETATM    1  C   UNK N   1      32.691  15.725   7.670  0.00  0.00     0.178 C 
HETATM    2  C   UNK N   1      32.360  15.779   5.120  0.00  0.00     0.178 C 
HETATM    3  C   UNK N   1      33.272  15.348   6.292  0.00  0.00     0.180 C 
HETATM    4  C   UNK N   1      32.313  17.204   7.748  0.00  0.00     0.110 C 
HETATM    5  C   UNK N   1      31.906  17.235   5.285  0.00  0.00     0.107 C 
HETATM    6  C   UNK N   1      31.289  17.488   6.652  0.00  0.00     0.054 C 
ENDROOT
BRANCH   1   7
HETATM    7  O   UNK N   1      33.454  15.320   8.797  0.00  0.00    -0.349 OA
BRANCH   7   8
HETATM    8  C   UNK N   1      34.846  15.483   8.605  0.00  0.00     0.291 C 
HETATM    9  C   UNK N   1      35.571  14.147   8.837  0.00  0.00     0.198 C 
HETATM   10  C   UNK N   1      36.143  14.026  10.267  0.00  0.00     0.146 C 
HETATM   11  C   UNK N   1      35.240  14.801  11.242  0.00  0.00     0.098 C 
HETATM   12  C   UNK N   1      35.139  16.275  10.796  0.00  0.00     0.210 C 
HETATM   13  C   UNK N   1      35.774  14.751  12.662  0.00  0.00     0.050 C 
HETATM   14  O   UNK N   1      35.385  16.510   9.414  0.00  0.00    -0.356 OA
BRANCH   9  15
HETATM   15  O   UNK N   1      36.566  13.944   7.877  0.00  0.00    -0.388 OA
HETATM   16  H   UNK N   1      36.370  13.564   7.006  0.00  0.00     0.210 HD
ENDBRANCH   9  15
BRANCH  10  17
HETATM   17  N   UNK N   1      37.509  14.542  10.321  0.00  0.00    -0.416 N 
HETATM   18  C   UNK N   1      38.386  13.399  10.501  0.00  0.00     0.140 C 
HETATM   19  H   UNK N   1      37.791  15.520  10.245  0.00  0.00     0.153 HD
ENDBRANCH  10  17
BRANCH  11  20
HETATM   20  O   UNK N   1      33.964  14.233  11.245  0.00  0.00    -0.386 OA
HETATM   21  H   UNK N   1      33.029  14.207  10.986  0.00  0.00     0.210 HD
ENDBRANCH  11  20
ENDBRANCH   7   8
ENDBRANCH   1   7
BRANCH   3  22
HETATM   22  O   UNK N   1      33.471  13.966   6.260  0.00  0.00    -0.390 OA
HETATM   23  H   UNK N   1      32.920  13.247   5.914  0.00  0.00     0.210 HD
ENDBRANCH   3  22
BRANCH   4  24
HETATM   24  N   UNK N   1      31.736  17.501   9.056  0.00  0.00    -0.415 N 
HETATM   25  H   UNK N   1      32.262  17.675   9.912  0.00  0.00     0.153 HD
BRANCH  24  26
HETATM   26  C   UNK N   1      30.282  17.506   8.937  0.00  0.00     0.110 C 
HETATM   27  C   UNK N   1      29.686  18.601   9.800  0.00  0.00     0.026 C 
ENDBRANCH  24  26
ENDBRANCH   4  24
BRANCH   2  28
HETATM   28  O   UNK N   1      33.059  15.699   3.901  0.00  0.00    -0.349 OA
BRANCH  28  29
HETATM   29  C   UNK N   1      32.440  14.727   3.106  0.00  0.00     0.288 C 
HETATM   30  O   UNK N   1      31.527  14.041   3.885  0.00  0.00    -0.321 OA
HETATM   31  C   UNK N   1      30.992  12.844   3.520  0.00  0.00     0.063 C 
HETATM   32  C   UNK N   1      31.519  12.148   2.501  0.00  0.00     0.009 C 
HETATM   33  C   UNK N   1      32.714  12.669   1.742  0.00  0.00     0.059 C 
HETATM   34  C   UNK N   1      33.461  13.750   2.530  0.00  0.00     0.133 C 
BRANCH  31  35
HETATM   35  C   UNK N   1      29.826  12.286   4.274  0.00  0.00     0.175 C 
BRANCH  35  36
HETATM   36  N   UNK N   1      30.191  11.057   4.962  0.00  0.00    -0.425 N 
HETATM   37  H   UNK N   1      30.390  11.023   5.962  0.00  0.00     0.150 HD
HETATM   38  H   UNK N   1      30.249  10.194   4.422  0.00  0.00     0.150 HD
ENDBRANCH  35  36
ENDBRANCH  31  35
BRANCH  34  39
HETATM   39  N   UNK N   1      34.388  14.441   1.652  0.00  0.00    -0.422 N 
HETATM   40  H   UNK N   1      35.124  13.952   1.142  0.00  0.00     0.150 HD
HETATM   41  H   UNK N   1      34.300  15.450   1.540  0.00  0.00     0.150 HD
ENDBRANCH  34  39
ENDBRANCH  28  29
ENDBRANCH   2  28
BRANCH   5  42
HETATM   42  N   UNK N   1      30.939  17.573   4.255  0.00  0.00    -0.423 N 
HETATM   43  H   UNK N   1      31.154  17.391   3.274  0.00  0.00     0.150 HD
HETATM   44  H   UNK N   1      30.045  17.990   4.512  0.00  0.00     0.150 HD
ENDBRANCH   5  42
TORSDOF 14
ENDMDL
MODEL 7
REMARK VINA RESULT:      -6.0      4.493      7.608
REMARK  14 active torsions:
REMARK  status: ('A' for Active; 'I' for Inactive)
REMARK    1  A    between atoms: C_1  and  O_7 
REMARK    2  A    between atoms: C_2  and  O_8 
REMARK    3  A    between atoms: C_3  and  O_23 
REMARK    4  A    between atoms: C_4  and  O_22 
REMARK    5  A    between atoms: C_5  and  O_7 
REMARK    6  A    between atoms: C_6  and  N_21 
REMARK    7  A    between atoms: C_9  and  O_8 
REMARK    8  A    between atoms: C_10  and  O_26 
REMARK    9  A    between atoms: C_12  and  N_24 
REMARK   10  A    between atoms: C_13  and  N_25 
REMARK   11  A    between atoms: C_30  and  C_16 
REMARK   12  A    between atoms: C_19  and  N_27 
REMARK   13  A    between atoms: C_31  and  N_24 
REMARK   14  A    between atoms: N_28  and  C_30 
ROOT
HETATM    1  C   UNK N   1      30.751  16.761   4.631  0.00  0.00     0.178 C 
HETATM    2  C   UNK N   1      33.095  16.388   5.621  0.00  0.00     0.178 C 
HETATM    3  C   UNK N   1      31.890  17.349   5.488  0.00  0.00     0.180 C 
HETATM    4  C   UNK N   1      31.250  16.272   3.271  0.00  0.00     0.110 C 
HETATM    5  C   UNK N   1      33.502  15.826   4.253  0.00  0.00     0.107 C 
HETATM    6  C   UNK N   1      32.322  15.212   3.516  0.00  0.00     0.054 C 
ENDROOT
BRANCH   1   7
HETATM    7  O   UNK N   1      29.591  17.570   4.500  0.00  0.00    -0.349 OA
BRANCH   7   8
HETATM    8  C   UNK N   1      28.457  17.010   5.136  0.00  0.00     0.291 C 
HETATM    9  C   UNK N   1      27.231  17.113   4.215  0.00  0.00     0.198 C 
HETATM   10  C   UNK N   1      26.357  18.347   4.531  0.00  0.00     0.146 C 
HETATM   11  C   UNK N   1      27.253  19.483   5.054  0.00  0.00     0.098 C 
HETATM   12  C   UNK N   1      28.026  19.003   6.300  0.00  0.00     0.210 C 
HETATM   13  C   UNK N   1      26.443  20.714   5.419  0.00  0.00     0.050 C 
HETATM   14  O   UNK N   1      28.205  17.595   6.399  0.00  0.00    -0.356 OA
BRANCH   9  15
HETATM   15  O   UNK N   1      26.477  15.938   4.252  0.00  0.00    -0.388 OA
HETATM   16  H   UNK N   1      25.719  15.831   4.849  0.00  0.00     0.210 HD
ENDBRANCH   9  15
BRANCH  10  17
HETATM   17  N   UNK N   1      25.332  18.013   5.518  0.00  0.00    -0.416 N 
HETATM   18  C   UNK N   1      24.047  18.167   4.861  0.00  0.00     0.140 C 
HETATM   19  H   UNK N   1      25.492  17.726   6.484  0.00  0.00     0.153 HD
ENDBRANCH  10  17
BRANCH  11  20
HETATM   20  O   UNK N   1      28.163  19.851   4.061  0.00  0.00    -0.386 OA
HETATM   21  H   UNK N   1      28.565  19.765   3.182  0.00  0.00     0.210 HD
ENDBRANCH  11  20
ENDBRANCH   7   8
ENDBRANCH   1   7
BRANCH   3  22
HETATM   22  O   UNK N   1      31.379  17.654   6.751  0.00  0.00    -0.390 OA
HETATM   23  H   UNK N   1      31.702  18.247   7.447  0.00  0.00     0.210 HD
ENDBRANCH   3  22
BRANCH   4  24
HETATM   24  N   UNK N   1      30.144  15.693   2.514  0.00  0.00    -0.415 N 
HETATM   25  H   UNK N   1      29.607  16.168   1.789  0.00  0.00     0.153 HD
BRANCH  24  26
HETATM   26  C   UNK N   1      29.931  14.323   2.968  0.00  0.00     0.110 C 
HETATM   27  C   UNK N   1      29.258  13.506   1.882  0.00  0.00     0.026 C 
ENDBRANCH  24  26
ENDBRANCH   4  24
BRANCH   2  28
HETATM   28  O   UNK N   1      34.212  17.073   6.137  0.00  0.00    -0.349 OA
BRANCH  28  29
HETATM   29  C   UNK N   1      34.561  16.482   7.356  0.00  0.00     0.288 C 
HETATM   30  O   UNK N   1      33.906  15.270   7.459  0.00  0.00    -0.321 OA
HETATM   31  C   UNK N   1      33.771  14.596   8.634  0.00  0.00     0.063 C 
HETATM   32  C   UNK N   1      34.049  15.202   9.799  0.00  0.00     0.009 C 
HETATM   33  C   UNK N   1      34.510  16.638   9.835  0.00  0.00     0.059 C 
HETATM   34  C   UNK N   1      34.178  17.375   8.534  0.00  0.00     0.133 C 
BRANCH  31  35
HETATM   35  C   UNK N   1      33.286  13.180   8.633  0.00  0.00     0.175 C 
BRANCH  35  36
HETATM   36  N   UNK N   1      32.764  12.811   7.326  0.00  0.00    -0.425 N 
HETATM   37  H   UNK N   1      31.834  13.083   7.007  0.00  0.00     0.150 HD
HETATM   38  H   UNK N   1      33.353  12.257   6.704  0.00  0.00     0.150 HD
ENDBRANCH  35  36
ENDBRANCH  31  35
BRANCH  34  39
HETATM   39  N   UNK N   1      34.910  18.628   8.483  0.00  0.00    -0.422 N 
HETATM   40  H   UNK N   1      34.702  19.354   7.796  0.00  0.00     0.150 HD
HETATM   41  H   UNK N   1      35.658  18.789   9.157  0.00  0.00     0.150 HD
ENDBRANCH  34  39
ENDBRANCH  28  29
ENDBRANCH   2  28
BRANCH   5  42
HETATM   42  N   UNK N   1      34.537  14.820   4.419  0.00  0.00    -0.423 N 
HETATM   43  H   UNK N   1      35.480  14.997   4.072  0.00  0.00     0.150 HD
HETATM   44  H   UNK N   1      34.321  13.938   4.883  0.00  0.00     0.150 HD
ENDBRANCH   5  42
TORSDOF 14
ENDMDL
MODEL 8
REMARK VINA RESULT:      -6.0      3.732      7.785
REMARK  14 active torsions:
REMARK  status: ('A' for Active; 'I' for Inactive)
REMARK    1  A    between atoms: C_1  and  O_7 
REMARK    2  A    between atoms: C_2  and  O_8 
REMARK    3  A    between atoms: C_3  and  O_23 
REMARK    4  A    between atoms: C_4  and  O_22 
REMARK    5  A    between atoms: C_5  and  O_7 
REMARK    6  A    between atoms: C_6  and  N_21 
REMARK    7  A    between atoms: C_9  and  O_8 
REMARK    8  A    between atoms: C_10  and  O_26 
REMARK    9  A    between atoms: C_12  and  N_24 
REMARK   10  A    between atoms: C_13  and  N_25 
REMARK   11  A    between atoms: C_30  and  C_16 
REMARK   12  A    between atoms: C_19  and  N_27 
REMARK   13  A    between atoms: C_31  and  N_24 
REMARK   14  A    between atoms: N_28  and  C_30 
ROOT
HETATM    1  C   UNK N   1      31.048  17.194   6.241  0.00  0.00     0.178 C 
HETATM    2  C   UNK N   1      33.596  17.520   6.370  0.00  0.00     0.178 C 
HETATM    3  C   UNK N   1      32.431  16.688   5.784  0.00  0.00     0.180 C 
HETATM    4  C   UNK N   1      30.958  17.320   7.762  0.00  0.00     0.110 C 
HETATM    5  C   UNK N   1      33.419  17.724   7.880  0.00  0.00     0.107 C 
HETATM    6  C   UNK N   1      32.047  18.286   8.222  0.00  0.00     0.054 C 
ENDROOT
BRANCH   1   7
HETATM    7  O   UNK N   1      29.927  16.505   5.706  0.00  0.00    -0.349 OA
BRANCH   7   8
HETATM    8  C   UNK N   1      29.357  17.166   4.594  0.00  0.00     0.291 C 
HETATM    9  C   UNK N   1      28.507  18.357   5.065  0.00  0.00     0.198 C 
HETATM   10  C   UNK N   1      27.006  18.005   5.176  0.00  0.00     0.146 C 
HETATM   11  C   UNK N   1      26.859  16.521   5.554  0.00  0.00     0.098 C 
HETATM   12  C   UNK N   1      27.571  15.644   4.502  0.00  0.00     0.210 C 
HETATM   13  C   UNK N   1      25.402  16.105   5.639  0.00  0.00     0.050 C 
HETATM   14  O   UNK N   1      28.608  16.290   3.773  0.00  0.00    -0.356 OA
BRANCH   9  15
HETATM   15  O   UNK N   1      28.705  19.470   4.244  0.00  0.00    -0.388 OA
HETATM   16  H   UNK N   1      29.346  19.465   3.516  0.00  0.00     0.210 HD
ENDBRANCH   9  15
BRANCH  10  17
HETATM   17  N   UNK N   1      26.320  18.277   3.915  0.00  0.00    -0.416 N 
HETATM   18  C   UNK N   1      25.343  19.318   4.182  0.00  0.00     0.140 C 
HETATM   19  H   UNK N   1      26.495  17.823   3.018  0.00  0.00     0.153 HD
ENDBRANCH  10  17
BRANCH  11  20
HETATM   20  O   UNK N   1      27.440  16.301   6.805  0.00  0.00    -0.386 OA
HETATM   21  H   UNK N   1      28.025  16.543   7.541  0.00  0.00     0.210 HD
ENDBRANCH  11  20
ENDBRANCH   7   8
ENDBRANCH   1   7
BRANCH   3  22
HETATM   22  O   UNK N   1      32.474  16.722   4.388  0.00  0.00    -0.390 OA
HETATM   23  H   UNK N   1      33.197  16.926   3.774  0.00  0.00     0.210 HD
ENDBRANCH   3  22
BRANCH   4  24
HETATM   24  N   UNK N   1      29.645  17.835   8.141  0.00  0.00    -0.415 N 
HETATM   25  H   UNK N   1      28.852  17.962   7.512  0.00  0.00     0.153 HD
BRANCH  24  26
HETATM   26  C   UNK N   1      29.654  18.141   9.567  0.00  0.00     0.110 C 
HETATM   27  C   UNK N   1      29.058  16.993  10.357  0.00  0.00     0.026 C 
ENDBRANCH  24  26
ENDBRANCH   4  24
BRANCH   2  28
HETATM   28  O   UNK N   1      34.819  16.848   6.184  0.00  0.00    -0.349 OA
BRANCH  28  29
HETATM   29  C   UNK N   1      34.712  15.579   6.764  0.00  0.00     0.288 C 
HETATM   30  O   UNK N   1      35.312  15.613   8.008  0.00  0.00    -0.321 OA
HETATM   31  C   UNK N   1      35.663  14.492   8.695  0.00  0.00     0.063 C 
HETATM   32  C   UNK N   1      35.673  13.298   8.083  0.00  0.00     0.009 C 
HETATM   33  C   UNK N   1      35.303  13.170   6.626  0.00  0.00     0.059 C 
HETATM   34  C   UNK N   1      35.384  14.515   5.899  0.00  0.00     0.133 C 
BRANCH  31  35
HETATM   35  C   UNK N   1      36.064  14.591  10.134  0.00  0.00     0.175 C 
BRANCH  35  36
HETATM   36  N   UNK N   1      37.507  14.714  10.264  0.00  0.00    -0.425 N 
HETATM   37  H   UNK N   1      37.993  14.592  11.152  0.00  0.00     0.150 HD
HETATM   38  H   UNK N   1      38.055  14.932   9.432  0.00  0.00     0.150 HD
ENDBRANCH  35  36
ENDBRANCH  31  35
BRANCH  34  39
HETATM   39  N   UNK N   1      34.722  14.414   4.611  0.00  0.00    -0.422 N 
HETATM   40  H   UNK N   1      35.224  14.524   3.729  0.00  0.00     0.150 HD
HETATM   41  H   UNK N   1      33.720  14.226   4.586  0.00  0.00     0.150 HD
ENDBRANCH  34  39
ENDBRANCH  28  29
ENDBRANCH   2  28
BRANCH   5  42
HETATM   42  N   UNK N   1      34.442  18.625   8.382  0.00  0.00    -0.423 N 
HETATM   43  H   UNK N   1      34.173  19.490   8.852  0.00  0.00     0.150 HD
HETATM   44  H   UNK N   1      35.428  18.393   8.265  0.00  0.00     0.150 HD
ENDBRANCH   5  42
TORSDOF 14
ENDMDL
MODEL 9
REMARK VINA RESULT:      -5.9      8.126     13.946
REMARK  14 active torsions:
REMARK  status: ('A' for Active; 'I' for Inactive)
REMARK    1  A    between atoms: C_1  and  O_7 
REMARK    2  A    between atoms: C_2  and  O_8 
REMARK    3  A    between atoms: C_3  and  O_23 
REMARK    4  A    between atoms: C_4  and  O_22 
REMARK    5  A    between atoms: C_5  and  O_7 
REMARK    6  A    between atoms: C_6  and  N_21 
REMARK    7  A    between atoms: C_9  and  O_8 
REMARK    8  A    between atoms: C_10  and  O_26 
REMARK    9  A    between atoms: C_12  and  N_24 
REMARK   10  A    between atoms: C_13  and  N_25 
REMARK   11  A    between atoms: C_30  and  C_16 
REMARK   12  A    between atoms: C_19  and  N_27 
REMARK   13  A    between atoms: C_31  and  N_24 
REMARK   14  A    between atoms: N_28  and  C_30 
ROOT
HETATM    1  C   UNK N   1      25.443  17.189   4.789  0.00  0.00     0.178 C 
HETATM    2  C   UNK N   1      22.892  16.987   5.053  0.00  0.00     0.178 C 
HETATM    3  C   UNK N   1      24.226  16.242   4.808  0.00  0.00     0.180 C 
HETATM    4  C   UNK N   1      25.247  18.355   3.819  0.00  0.00     0.110 C 
HETATM    5  C   UNK N   1      22.776  18.216   4.143  0.00  0.00     0.107 C 
HETATM    6  C   UNK N   1      23.996  19.119   4.246  0.00  0.00     0.054 C 
ENDROOT
BRANCH   1   7
HETATM    7  O   UNK N   1      26.709  16.570   4.613  0.00  0.00    -0.349 OA
BRANCH   7   8
HETATM    8  C   UNK N   1      27.275  16.123   5.830  0.00  0.00     0.291 C 
HETATM    9  C   UNK N   1      27.765  17.322   6.657  0.00  0.00     0.198 C 
HETATM   10  C   UNK N   1      29.274  17.595   6.467  0.00  0.00     0.146 C 
HETATM   11  C   UNK N   1      29.687  17.187   5.041  0.00  0.00     0.098 C 
HETATM   12  C   UNK N   1      29.345  15.701   4.806  0.00  0.00     0.210 C 
HETATM   13  C   UNK N   1      31.172  17.396   4.807  0.00  0.00     0.050 C 
HETATM   14  O   UNK N   1      28.308  15.178   5.628  0.00  0.00    -0.356 OA
BRANCH   9  15
HETATM   15  O   UNK N   1      27.448  17.162   8.008  0.00  0.00    -0.388 OA
HETATM   16  H   UNK N   1      27.198  16.302   8.380  0.00  0.00     0.210 HD
ENDBRANCH   9  15
BRANCH  10  17
HETATM   17  N   UNK N   1      30.058  16.855   7.453  0.00  0.00    -0.416 N 
HETATM   18  C   UNK N   1      30.676  17.839   8.324  0.00  0.00     0.140 C 
HETATM   19  H   UNK N   1      30.153  15.841   7.516  0.00  0.00     0.153 HD
ENDBRANCH  10  17
BRANCH  11  20
HETATM   20  O   UNK N   1      28.994  17.971   4.116  0.00  0.00    -0.386 OA
HETATM   21  H   UNK N   1      28.297  18.116   3.457  0.00  0.00     0.210 HD
ENDBRANCH  11  20
ENDBRANCH   7   8
ENDBRANCH   1   7
BRANCH   3  22
HETATM   22  O   UNK N   1      24.428  15.284   5.804  0.00  0.00    -0.390 OA
HETATM   23  H   UNK N   1      24.242  14.332   5.823  0.00  0.00     0.210 HD
ENDBRANCH   3  22
BRANCH   4  24
HETATM   24  N   UNK N   1      26.409  19.239   3.865  0.00  0.00    -0.415 N 
HETATM   25  H   UNK N   1      27.270  19.117   3.334  0.00  0.00     0.153 HD
BRANCH  24  26
HETATM   26  C   UNK N   1      26.134  20.326   4.798  0.00  0.00     0.110 C 
HETATM   27  C   UNK N   1      27.418  20.801   5.448  0.00  0.00     0.026 C 
ENDBRANCH  24  26
ENDBRANCH   4  24
BRANCH   2  28
HETATM   28  O   UNK N   1      21.802  16.147   4.757  0.00  0.00    -0.349 OA
BRANCH  28  29
HETATM   29  C   UNK N   1      21.933  15.713   3.434  0.00  0.00     0.288 C 
HETATM   30  O   UNK N   1      21.079  16.456   2.641  0.00  0.00    -0.321 OA
HETATM   31  C   UNK N   1      20.726  16.086   1.380  0.00  0.00     0.063 C 
HETATM   32  C   UNK N   1      20.992  14.848   0.937  0.00  0.00     0.009 C 
HETATM   33  C   UNK N   1      21.679  13.838   1.823  0.00  0.00     0.059 C 
HETATM   34  C   UNK N   1      21.596  14.230   3.301  0.00  0.00     0.133 C 
BRANCH  31  35
HETATM   35  C   UNK N   1      20.015  17.056   0.488  0.00  0.00     0.175 C 
BRANCH  35  36
HETATM   36  N   UNK N   1      18.702  16.552   0.114  0.00  0.00    -0.425 N 
HETATM   37  H   UNK N   1      18.082  17.050  -0.524  0.00  0.00     0.150 HD
HETATM   38  H   UNK N   1      18.391  15.664   0.507  0.00  0.00     0.150 HD
ENDBRANCH  35  36
ENDBRANCH  31  35
BRANCH  34  39
HETATM   39  N   UNK N   1      22.527  13.425   4.072  0.00  0.00    -0.422 N 
HETATM   40  H   UNK N   1      22.220  12.791   4.810  0.00  0.00     0.150 HD
HETATM   41  H   UNK N   1      23.524  13.496   3.869  0.00  0.00     0.150 HD
ENDBRANCH  34  39
ENDBRANCH  28  29
ENDBRANCH   2  28
BRANCH   5  42
HETATM   42  N   UNK N   1      21.588  18.979   4.490  0.00  0.00    -0.423 N 
HETATM   43  H   UNK N   1      21.617  19.999   4.484  0.00  0.00     0.150 HD
HETATM   44  H   UNK N   1      20.726  18.494   4.739  0.00  0.00     0.150 HD
ENDBRANCH   5  42
TORSDOF 14
ENDMDL
