REMARK  7 active torsions:
REMARK  status: ('A' for Active; 'I' for Inactive)
REMARK    1  A    between atoms: C_14  and  C_1 
REMARK       I    between atoms: C_1  and  N_32 
REMARK    2  A    between atoms: C_5  and  N_2 
REMARK    3  A    between atoms: C_4  and  O_9 
REMARK    4  A    between atoms: C_7  and  O_13 
REMARK    5  A    between atoms: C_10  and  O_16 
REMARK    6  A    between atoms: C_17  and  O_20 
REMARK    7  A    between atoms: C_24  and  O_28 
ROOT
HETATM    1  C   UNK N   1       7.559  -4.799  -0.643  0.00  0.00     0.075 C 
HETATM    2  C   UNK N   1       7.470  -3.562   0.267  0.00  0.00     0.177 C 
HETATM    3  C   UNK N   1       8.948  -5.514  -0.510  0.00  0.00     0.286 C 
HETATM    4  C   UNK N   1       6.383  -5.722  -0.363  0.00  0.00     0.023 C 
HETATM    5  C   UNK N   1       6.103  -2.890   0.183  0.00  0.00     0.097 C 
HETATM    6  C   UNK N   1       8.628  -2.659  -0.108  0.00  0.00     0.208 C 
HETATM    7  C   UNK N   1      10.143  -4.588  -0.341  0.00  0.00     0.096 C 
HETATM    8  C   UNK N   1       5.027  -5.044  -0.576  0.00  0.00     0.059 C 
HETATM    9  C   UNK N   1       4.988  -3.581  -0.192  0.00  0.00     0.032 C 
HETATM   10  C   UNK N   1      10.004  -3.240  -0.170  0.00  0.00     0.112 C 
HETATM   11  O   UNK N   1       8.451  -1.470  -0.328  0.00  0.00    -0.288 OA
HETATM   12  C   UNK N   1       3.964  -5.835   0.201  0.00  0.00     0.162 C 
HETATM   13  C   UNK N   1       3.647  -2.942  -0.224  0.00  0.00     0.194 C 
HETATM   14  C   UNK N   1       2.571  -5.202   0.135  0.00  0.00     0.010 A 
HETATM   15  C   UNK N   1       2.430  -3.802  -0.101  0.00  0.00     0.058 A 
HETATM   16  O   UNK N   1       3.543  -1.724  -0.259  0.00  0.00    -0.287 OA
HETATM   17  C   UNK N   1       1.402  -5.976   0.377  0.00  0.00     0.044 A 
HETATM   18  C   UNK N   1       1.135  -3.229  -0.135  0.00  0.00     0.080 A 
HETATM   19  C   UNK N   1       0.145  -5.379   0.331  0.00  0.00     0.027 A 
HETATM   20 Cl   UNK N   1       1.447  -7.690   0.779  0.00  0.00    -0.084 Cl
HETATM   21  C   UNK N   1       0.011  -4.023   0.067  0.00  0.00     0.039 A 
ENDROOT
BRANCH  10  22
HETATM   22  C   UNK N   1      11.193  -2.324  -0.055  0.00  0.00     0.255 C 
HETATM   23  O   UNK N   1      11.028  -1.126   0.104  0.00  0.00    -0.268 OA
HETATM   24  N   UNK N   1      12.454  -2.805  -0.085  0.00  0.00    -0.366 N 
HETATM   25  H   UNK N   1      12.609  -3.777  -0.107  0.00  0.00     0.159 HD
HETATM   26  H   UNK N   1      13.218  -2.184  -0.085  0.00  0.00     0.159 HD
ENDBRANCH  10  22
BRANCH   7  27
HETATM   27  O   UNK N   1      11.370  -5.147  -0.399  0.00  0.00    -0.362 OA
HETATM   28  H   UNK N   1      11.459  -6.079  -0.438  0.00  0.00     0.217 HD
ENDBRANCH   7  27
BRANCH   3  29
HETATM   29  N   UNK N   1       9.066  -6.691   0.373  0.00  0.00     0.091 NA
HETATM   30  C   UNK N   1       8.530  -7.864  -0.298  0.00  0.00     0.310 C 
HETATM   31  C   UNK N   1       8.430  -6.553   1.674  0.00  0.00     0.310 C 
ENDBRANCH   3  29
BRANCH   2  32
HETATM   32  O   UNK N   1       7.650  -3.924   1.603  0.00  0.00    -0.374 OA
HETATM   33  H   UNK N   1       7.494  -4.158   2.531  0.00  0.00     0.211 HD
ENDBRANCH   2  32
BRANCH   5  34
HETATM   34  O   UNK N   1       5.988  -1.606   0.587  0.00  0.00    -0.361 OA
HETATM   35  H   UNK N   1       6.720  -1.092   0.867  0.00  0.00     0.217 HD
ENDBRANCH   5  34
BRANCH  12  36
HETATM   36  O   UNK N   1       3.954  -7.139  -0.305  0.00  0.00    -0.390 OA
HETATM   37  H   UNK N   1       3.167  -7.585  -0.656  0.00  0.00     0.210 HD
ENDBRANCH  12  36
BRANCH  18  38
HETATM   38  O   UNK N   1       0.961  -1.913  -0.348  0.00  0.00    -0.360 OA
HETATM   39  H   UNK N   1       1.694  -1.349  -0.497  0.00  0.00     0.217 HD
ENDBRANCH  18  38
TORSDOF 7
