MODEL 1
REMARK VINA RESULT:      -5.7      0.000      0.000
REMARK  5 active torsions:
REMARK  status: ('A' for Active; 'I' for Inactive)
REMARK    1  A    between atoms: C_5  and  C_1 
REMARK    2  A    between atoms: C_7  and  N_2 
REMARK    3  A    between atoms: O_11  and  C_5 
REMARK    4  A    between atoms: C_10  and  C_7 
REMARK    5  A    between atoms: C_15  and  O_11 
ROOT
HETATM    1  C   UNK N   1      33.456  16.908   8.520  0.00  0.00     0.127 A 
HETATM    2  N   UNK N   1      32.114  16.758   8.578  0.00  0.00    -0.328 N 
HETATM    3  N   UNK N   1      33.070  15.168   9.818  0.00  0.00    -0.360 N 
ATOM      4  HN  UNK N   1      33.188  14.361  10.430  1.00  0.00     0.166 HD
HETATM    5  C   UNK N   1      31.907  15.688   9.374  0.00  0.00     0.184 A 
HETATM    6  C   UNK N   1      34.047  15.931   9.291  0.00  0.00     0.125 A 
ENDROOT
BRANCH   2   7
HETATM    7  C   UNK N   1      31.100  17.632   7.942  0.00  0.00     0.120 C 
HETATM    8  C   UNK N   1      30.474  18.518   9.015  0.00  0.00     0.038 C 
BRANCH   7   9
HETATM    9  C   UNK N   1      29.970  16.962   7.169  0.00  0.00    -0.035 A 
HETATM   10  C   UNK N   1      28.647  17.304   7.498  0.00  0.00     0.009 A 
HETATM   11  C   UNK N   1      27.569  16.689   6.855  0.00  0.00     0.001 A 
HETATM   12  C   UNK N   1      27.801  15.731   5.868  0.00  0.00     0.000 A 
HETATM   13  C   UNK N   1      29.109  15.392   5.518  0.00  0.00     0.001 A 
HETATM   14  C   UNK N   1      30.186  16.003   6.167  0.00  0.00     0.009 A 
ENDBRANCH   7   9
ENDBRANCH   2   7
BRANCH   1  15
HETATM   15  C   UNK N   1      34.206  17.937   7.769  0.00  0.00     0.311 C 
HETATM   16  O   UNK N   1      34.513  18.996   8.303  0.00  0.00    -0.258 OA
BRANCH  15  17
HETATM   17  O   UNK N   1      34.539  17.700   6.478  0.00  0.00    -0.317 OA
BRANCH  17  18
HETATM   18  C   UNK N   1      33.852  16.811   5.686  0.00  0.00     0.175 C 
HETATM   19  C   UNK N   1      33.045  17.581   4.663  0.00  0.00     0.034 C 
ENDBRANCH  17  18
ENDBRANCH  15  17
ENDBRANCH   1  15
TORSDOF 5
ENDMDL
MODEL 2
REMARK VINA RESULT:      -5.7      2.399      5.491
REMARK  5 active torsions:
REMARK  status: ('A' for Active; 'I' for Inactive)
REMARK    1  A    between atoms: C_5  and  C_1 
REMARK    2  A    between atoms: C_7  and  N_2 
REMARK    3  A    between atoms: O_11  and  C_5 
REMARK    4  A    between atoms: C_10  and  C_7 
REMARK    5  A    between atoms: C_15  and  O_11 
ROOT
HETATM    1  C   UNK N   1      33.186  17.279   8.385  0.00  0.00     0.127 A 
HETATM    2  N   UNK N   1      33.376  16.093   9.004  0.00  0.00    -0.328 N 
HETATM    3  N   UNK N   1      31.212  16.626   9.118  0.00  0.00    -0.360 N 
ATOM      4  HN  UNK N   1      30.216  16.580   9.335  1.00  0.00     0.166 HD
HETATM    5  C   UNK N   1      32.156  15.718   9.445  0.00  0.00     0.184 A 
HETATM    6  C   UNK N   1      31.849  17.605   8.449  0.00  0.00     0.125 A 
ENDROOT
BRANCH   2   7
HETATM    7  C   UNK N   1      34.653  15.350   9.114  0.00  0.00     0.120 C 
HETATM    8  C   UNK N   1      34.651  14.218   8.089  0.00  0.00     0.038 C 
BRANCH   7   9
HETATM    9  C   UNK N   1      35.014  14.753  10.469  0.00  0.00    -0.035 A 
HETATM   10  C   UNK N   1      35.635  15.584  11.417  0.00  0.00     0.009 A 
HETATM   11  C   UNK N   1      36.030  15.079  12.659  0.00  0.00     0.001 A 
HETATM   12  C   UNK N   1      35.800  13.740  12.973  0.00  0.00     0.000 A 
HETATM   13  C   UNK N   1      35.169  12.906  12.049  0.00  0.00     0.001 A 
HETATM   14  C   UNK N   1      34.781  13.409  10.804  0.00  0.00     0.009 A 
ENDBRANCH   7   9
ENDBRANCH   2   7
BRANCH   1  15
HETATM   15  C   UNK N   1      34.212  18.118   7.732  0.00  0.00     0.311 C 
HETATM   16  O   UNK N   1      34.806  18.981   8.365  0.00  0.00    -0.258 OA
BRANCH  15  17
HETATM   17  O   UNK N   1      34.479  17.929   6.417  0.00  0.00    -0.317 OA
BRANCH  17  18
HETATM   18  C   UNK N   1      33.874  16.946   5.671  0.00  0.00     0.175 C 
HETATM   19  C   UNK N   1      32.933  17.590   4.675  0.00  0.00     0.034 C 
ENDBRANCH  17  18
ENDBRANCH  15  17
ENDBRANCH   1  15
TORSDOF 5
ENDMDL
MODEL 3
REMARK VINA RESULT:      -5.6      3.277      4.614
REMARK  5 active torsions:
REMARK  status: ('A' for Active; 'I' for Inactive)
REMARK    1  A    between atoms: C_5  and  C_1 
REMARK    2  A    between atoms: C_7  and  N_2 
REMARK    3  A    between atoms: O_11  and  C_5 
REMARK    4  A    between atoms: C_10  and  C_7 
REMARK    5  A    between atoms: C_15  and  O_11 
ROOT
HETATM    1  C   UNK N   1      34.556  15.459   9.863  0.00  0.00     0.127 A 
HETATM    2  N   UNK N   1      33.933  16.032   8.809  0.00  0.00    -0.328 N 
HETATM    3  N   UNK N   1      32.406  15.022  10.085  0.00  0.00    -0.360 N 
ATOM      4  HN  UNK N   1      31.509  14.679  10.429  1.00  0.00     0.166 HD
HETATM    5  C   UNK N   1      32.623  15.747   8.968  0.00  0.00     0.184 A 
HETATM    6  C   UNK N   1      33.613  14.842  10.655  0.00  0.00     0.125 A 
ENDROOT
BRANCH   2   7
HETATM    7  C   UNK N   1      34.567  16.846   7.746  0.00  0.00     0.120 C 
HETATM    8  C   UNK N   1      34.387  18.322   8.086  0.00  0.00     0.038 C 
BRANCH   7   9
HETATM    9  C   UNK N   1      34.094  16.636   6.312  0.00  0.00    -0.035 A 
HETATM   10  C   UNK N   1      33.331  17.650   5.709  0.00  0.00     0.009 A 
HETATM   11  C   UNK N   1      32.832  17.493   4.413  0.00  0.00     0.001 A 
HETATM   12  C   UNK N   1      33.097  16.323   3.700  0.00  0.00     0.000 A 
HETATM   13  C   UNK N   1      33.867  15.314   4.279  0.00  0.00     0.001 A 
HETATM   14  C   UNK N   1      34.360  15.468   5.578  0.00  0.00     0.009 A 
ENDBRANCH   7   9
ENDBRANCH   2   7
BRANCH   1  15
HETATM   15  C   UNK N   1      36.004  15.472  10.158  0.00  0.00     0.311 C 
HETATM   16  O   UNK N   1      36.515  16.429  10.726  0.00  0.00    -0.258 OA
BRANCH  15  17
HETATM   17  O   UNK N   1      36.764  14.417   9.779  0.00  0.00    -0.317 OA
BRANCH  17  18
HETATM   18  C   UNK N   1      37.367  13.575  10.682  0.00  0.00     0.175 C 
HETATM   19  C   UNK N   1      38.772  13.265  10.209  0.00  0.00     0.034 C 
ENDBRANCH  17  18
ENDBRANCH  15  17
ENDBRANCH   1  15
TORSDOF 5
ENDMDL
MODEL 4
REMARK VINA RESULT:      -5.5      9.702     11.872
REMARK  5 active torsions:
REMARK  status: ('A' for Active; 'I' for Inactive)
REMARK    1  A    between atoms: C_5  and  C_1 
REMARK    2  A    between atoms: C_7  and  N_2 
REMARK    3  A    between atoms: O_11  and  C_5 
REMARK    4  A    between atoms: C_10  and  C_7 
REMARK    5  A    between atoms: C_15  and  O_11 
ROOT
HETATM    1  C   UNK N   1      20.437  16.177   6.624  0.00  0.00     0.127 A 
HETATM    2  N   UNK N   1      21.099  15.001   6.706  0.00  0.00    -0.328 N 
HETATM    3  N   UNK N   1      19.518  14.830   5.140  0.00  0.00    -0.360 N 
ATOM      4  HN  UNK N   1      18.923  14.445   4.407  1.00  0.00     0.166 HD
HETATM    5  C   UNK N   1      20.516  14.197   5.792  0.00  0.00     0.184 A 
HETATM    6  C   UNK N   1      19.466  16.074   5.652  0.00  0.00     0.125 A 
ENDROOT
BRANCH   2   7
HETATM    7  C   UNK N   1      22.256  14.699   7.581  0.00  0.00     0.120 C 
HETATM    8  C   UNK N   1      23.368  14.093   6.730  0.00  0.00     0.038 C 
BRANCH   7   9
HETATM    9  C   UNK N   1      22.024  13.778   8.773  0.00  0.00    -0.035 A 
HETATM   10  C   UNK N   1      20.792  13.859   9.445  0.00  0.00     0.009 A 
HETATM   11  C   UNK N   1      20.541  13.071  10.572  0.00  0.00     0.001 A 
HETATM   12  C   UNK N   1      21.515  12.186  11.036  0.00  0.00     0.000 A 
HETATM   13  C   UNK N   1      22.736  12.082  10.369  0.00  0.00     0.001 A 
HETATM   14  C   UNK N   1      22.990  12.875   9.246  0.00  0.00     0.009 A 
ENDBRANCH   7   9
ENDBRANCH   2   7
BRANCH   1  15
HETATM   15  C   UNK N   1      20.685  17.396   7.422  0.00  0.00     0.311 C 
HETATM   16  O   UNK N   1      21.194  18.384   6.908  0.00  0.00    -0.258 OA
BRANCH  15  17
HETATM   17  O   UNK N   1      20.352  17.404   8.735  0.00  0.00    -0.317 OA
BRANCH  17  18
HETATM   18  C   UNK N   1      19.227  18.034   9.211  0.00  0.00     0.175 C 
HETATM   19  C   UNK N   1      18.075  17.051   9.220  0.00  0.00     0.034 C 
ENDBRANCH  17  18
ENDBRANCH  15  17
ENDBRANCH   1  15
TORSDOF 5
ENDMDL
MODEL 5
REMARK VINA RESULT:      -5.5     15.475     17.198
REMARK  5 active torsions:
REMARK  status: ('A' for Active; 'I' for Inactive)
REMARK    1  A    between atoms: C_5  and  C_1 
REMARK    2  A    between atoms: C_7  and  N_2 
REMARK    3  A    between atoms: O_11  and  C_5 
REMARK    4  A    between atoms: C_10  and  C_7 
REMARK    5  A    between atoms: C_15  and  O_11 
ROOT
HETATM    1  C   UNK N   1      26.482  24.347  -5.286  0.00  0.00     0.127 A 
HETATM    2  N   UNK N   1      25.959  25.442  -5.882  0.00  0.00    -0.328 N 
HETATM    3  N   UNK N   1      25.785  23.710  -7.279  0.00  0.00    -0.360 N 
ATOM      4  HN  UNK N   1      25.569  23.155  -8.107  1.00  0.00     0.166 HD
HETATM    5  C   UNK N   1      25.544  25.025  -7.097  0.00  0.00     0.184 A 
HETATM    6  C   UNK N   1      26.368  23.276  -6.145  0.00  0.00     0.125 A 
ENDROOT
BRANCH   2   7
HETATM    7  C   UNK N   1      25.826  26.792  -5.286  0.00  0.00     0.120 C 
HETATM    8  C   UNK N   1      24.424  27.319  -5.574  0.00  0.00     0.038 C 
BRANCH   7   9
HETATM    9  C   UNK N   1      26.825  27.860  -5.716  0.00  0.00    -0.035 A 
HETATM   10  C   UNK N   1      26.969  28.999  -4.906  0.00  0.00     0.009 A 
HETATM   11  C   UNK N   1      27.836  30.032  -5.274  0.00  0.00     0.001 A 
HETATM   12  C   UNK N   1      28.577  29.934  -6.452  0.00  0.00     0.000 A 
HETATM   13  C   UNK N   1      28.458  28.802  -7.259  0.00  0.00     0.001 A 
HETATM   14  C   UNK N   1      27.585  27.772  -6.894  0.00  0.00     0.009 A 
ENDBRANCH   7   9
ENDBRANCH   2   7
BRANCH   1  15
HETATM   15  C   UNK N   1      27.083  24.267  -3.938  0.00  0.00     0.311 C 
HETATM   16  O   UNK N   1      26.378  24.092  -2.953  0.00  0.00    -0.258 OA
BRANCH  15  17
HETATM   17  O   UNK N   1      28.424  24.404  -3.804  0.00  0.00    -0.317 OA
BRANCH  17  18
HETATM   18  C   UNK N   1      29.197  25.071  -4.725  0.00  0.00     0.175 C 
HETATM   19  C   UNK N   1      29.715  26.350  -4.102  0.00  0.00     0.034 C 
ENDBRANCH  17  18
ENDBRANCH  15  17
ENDBRANCH   1  15
TORSDOF 5
ENDMDL
MODEL 6
REMARK VINA RESULT:      -5.4     13.136     14.731
REMARK  5 active torsions:
REMARK  status: ('A' for Active; 'I' for Inactive)
REMARK    1  A    between atoms: C_5  and  C_1 
REMARK    2  A    between atoms: C_7  and  N_2 
REMARK    3  A    between atoms: O_11  and  C_5 
REMARK    4  A    between atoms: C_10  and  C_7 
REMARK    5  A    between atoms: C_15  and  O_11 
ROOT
HETATM    1  C   UNK N   1      30.281  24.244  -3.540  0.00  0.00     0.127 A 
HETATM    2  N   UNK N   1      29.307  24.888  -4.220  0.00  0.00    -0.328 N 
HETATM    3  N   UNK N   1      31.258  25.885  -4.643  0.00  0.00    -0.360 N 
ATOM      4  HN  UNK N   1      31.949  26.533  -5.020  1.00  0.00     0.166 HD
HETATM    5  C   UNK N   1      29.929  25.886  -4.882  0.00  0.00     0.184 A 
HETATM    6  C   UNK N   1      31.487  24.854  -3.807  0.00  0.00     0.125 A 
ENDROOT
BRANCH   2   7
HETATM    7  C   UNK N   1      27.871  24.522  -4.262  0.00  0.00     0.120 C 
HETATM    8  C   UNK N   1      27.650  23.539  -5.409  0.00  0.00     0.038 C 
BRANCH   7   9
HETATM    9  C   UNK N   1      26.855  25.648  -4.409  0.00  0.00    -0.035 A 
HETATM   10  C   UNK N   1      26.118  25.727  -5.602  0.00  0.00     0.009 A 
HETATM   11  C   UNK N   1      25.205  26.765  -5.811  0.00  0.00     0.001 A 
HETATM   12  C   UNK N   1      25.011  27.732  -4.824  0.00  0.00     0.000 A 
HETATM   13  C   UNK N   1      25.723  27.658  -3.626  0.00  0.00     0.001 A 
HETATM   14  C   UNK N   1      26.641  26.624  -3.421  0.00  0.00     0.009 A 
ENDBRANCH   7   9
ENDBRANCH   2   7
BRANCH   1  15
HETATM   15  C   UNK N   1      30.124  23.073  -2.652  0.00  0.00     0.311 C 
HETATM   16  O   UNK N   1      30.300  23.180  -1.445  0.00  0.00    -0.258 OA
BRANCH  15  17
HETATM   17  O   UNK N   1      29.796  21.875  -3.192  0.00  0.00    -0.317 OA
BRANCH  17  18
HETATM   18  C   UNK N   1      30.722  21.052  -3.788  0.00  0.00     0.175 C 
HETATM   19  C   UNK N   1      30.442  20.988  -5.274  0.00  0.00     0.034 C 
ENDBRANCH  17  18
ENDBRANCH  15  17
ENDBRANCH   1  15
TORSDOF 5
ENDMDL
MODEL 7
REMARK VINA RESULT:      -5.3      9.584     11.368
REMARK  5 active torsions:
REMARK  status: ('A' for Active; 'I' for Inactive)
REMARK    1  A    between atoms: C_5  and  C_1 
REMARK    2  A    between atoms: C_7  and  N_2 
REMARK    3  A    between atoms: O_11  and  C_5 
REMARK    4  A    between atoms: C_10  and  C_7 
REMARK    5  A    between atoms: C_15  and  O_11 
ROOT
HETATM    1  C   UNK N   1      20.712  18.252   3.578  0.00  0.00     0.127 A 
HETATM    2  N   UNK N   1      20.969  17.218   4.409  0.00  0.00    -0.328 N 
HETATM    3  N   UNK N   1      19.665  16.498   2.748  0.00  0.00    -0.360 N 
ATOM      4  HN  UNK N   1      19.099  15.885   2.160  1.00  0.00     0.166 HD
HETATM    5  C   UNK N   1      20.316  16.161   3.881  0.00  0.00     0.184 A 
HETATM    6  C   UNK N   1      19.913  17.806   2.547  0.00  0.00     0.125 A 
ENDROOT
BRANCH   2   7
HETATM    7  C   UNK N   1      21.836  17.247   5.610  0.00  0.00     0.120 C 
HETATM    8  C   UNK N   1      23.238  16.791   5.214  0.00  0.00     0.038 C 
BRANCH   7   9
HETATM    9  C   UNK N   1      21.402  16.427   6.820  0.00  0.00    -0.035 A 
HETATM   10  C   UNK N   1      20.411  16.959   7.662  0.00  0.00     0.009 A 
HETATM   11  C   UNK N   1      20.006  16.274   8.811  0.00  0.00     0.001 A 
HETATM   12  C   UNK N   1      20.581  15.042   9.127  0.00  0.00     0.000 A 
HETATM   13  C   UNK N   1      21.554  14.492   8.292  0.00  0.00     0.001 A 
HETATM   14  C   UNK N   1      21.964  15.182   7.147  0.00  0.00     0.009 A 
ENDBRANCH   7   9
ENDBRANCH   2   7
BRANCH   1  15
HETATM   15  C   UNK N   1      21.192  19.644   3.711  0.00  0.00     0.311 C 
HETATM   16  O   UNK N   1      20.396  20.568   3.822  0.00  0.00    -0.258 OA
BRANCH  15  17
HETATM   17  O   UNK N   1      22.524  19.886   3.695  0.00  0.00    -0.317 OA
BRANCH  17  18
HETATM   18  C   UNK N   1      23.127  20.650   2.724  0.00  0.00     0.175 C 
HETATM   19  C   UNK N   1      24.628  20.477   2.819  0.00  0.00     0.034 C 
ENDBRANCH  17  18
ENDBRANCH  15  17
ENDBRANCH   1  15
TORSDOF 5
ENDMDL
MODEL 8
REMARK VINA RESULT:      -5.2      1.448      2.334
REMARK  5 active torsions:
REMARK  status: ('A' for Active; 'I' for Inactive)
REMARK    1  A    between atoms: C_5  and  C_1 
REMARK    2  A    between atoms: C_7  and  N_2 
REMARK    3  A    between atoms: O_11  and  C_5 
REMARK    4  A    between atoms: C_10  and  C_7 
REMARK    5  A    between atoms: C_15  and  O_11 
ROOT
HETATM    1  C   UNK N   1      33.459  16.439   8.327  0.00  0.00     0.127 A 
HETATM    2  N   UNK N   1      32.111  16.438   8.235  0.00  0.00    -0.328 N 
HETATM    3  N   UNK N   1      32.710  15.257  10.031  0.00  0.00    -0.360 N 
ATOM      4  HN  UNK N   1      32.652  14.685  10.874  1.00  0.00     0.166 HD
HETATM    5  C   UNK N   1      31.679  15.708   9.285  0.00  0.00     0.184 A 
HETATM    6  C   UNK N   1      33.829  15.716   9.441  0.00  0.00     0.125 A 
ENDROOT
BRANCH   2   7
HETATM    7  C   UNK N   1      31.296  17.146   7.220  0.00  0.00     0.120 C 
HETATM    8  C   UNK N   1      29.855  17.223   7.714  0.00  0.00     0.038 C 
BRANCH   7   9
HETATM    9  C   UNK N   1      31.276  16.580   5.805  0.00  0.00    -0.035 A 
HETATM   10  C   UNK N   1      31.756  17.387   4.759  0.00  0.00     0.009 A 
HETATM   11  C   UNK N   1      31.719  16.938   3.436  0.00  0.00     0.001 A 
HETATM   12  C   UNK N   1      31.211  15.673   3.143  0.00  0.00     0.000 A 
HETATM   13  C   UNK N   1      30.746  14.852   4.171  0.00  0.00     0.001 A 
HETATM   14  C   UNK N   1      30.777  15.304   5.494  0.00  0.00     0.009 A 
ENDBRANCH   7   9
ENDBRANCH   2   7
BRANCH   1  15
HETATM   15  C   UNK N   1      34.415  17.097   7.412  0.00  0.00     0.311 C 
HETATM   16  O   UNK N   1      34.676  18.287   7.534  0.00  0.00    -0.258 OA
BRANCH  15  17
HETATM   17  O   UNK N   1      34.992  16.368   6.426  0.00  0.00    -0.317 OA
BRANCH  17  18
HETATM   18  C   UNK N   1      34.657  15.057   6.181  0.00  0.00     0.175 C 
HETATM   19  C   UNK N   1      34.548  14.846   4.686  0.00  0.00     0.034 C 
ENDBRANCH  17  18
ENDBRANCH  15  17
ENDBRANCH   1  15
TORSDOF 5
ENDMDL
MODEL 9
REMARK VINA RESULT:      -5.1      2.805      4.278
REMARK  5 active torsions:
REMARK  status: ('A' for Active; 'I' for Inactive)
REMARK    1  A    between atoms: C_5  and  C_1 
REMARK    2  A    between atoms: C_7  and  N_2 
REMARK    3  A    between atoms: O_11  and  C_5 
REMARK    4  A    between atoms: C_10  and  C_7 
REMARK    5  A    between atoms: C_15  and  O_11 
ROOT
HETATM    1  C   UNK N   1      31.683  17.181   6.527  0.00  0.00     0.127 A 
HETATM    2  N   UNK N   1      30.674  17.363   5.646  0.00  0.00    -0.328 N 
HETATM    3  N   UNK N   1      32.616  17.549   4.563  0.00  0.00    -0.360 N 
ATOM      4  HN  UNK N   1      33.294  17.688   3.813  1.00  0.00     0.166 HD
HETATM    5  C   UNK N   1      31.271  17.589   4.457  0.00  0.00     0.184 A 
HETATM    6  C   UNK N   1      32.883  17.288   5.856  0.00  0.00     0.125 A 
ENDROOT
BRANCH   2   7
HETATM    7  C   UNK N   1      29.224  17.272   5.937  0.00  0.00     0.120 C 
HETATM    8  C   UNK N   1      28.678  15.994   5.308  0.00  0.00     0.038 C 
BRANCH   7   9
HETATM    9  C   UNK N   1      28.336  18.428   5.493  0.00  0.00    -0.035 A 
HETATM   10  C   UNK N   1      27.981  19.398   6.446  0.00  0.00     0.009 A 
HETATM   11  C   UNK N   1      27.132  20.455   6.108  0.00  0.00     0.001 A 
HETATM   12  C   UNK N   1      26.635  20.562   4.809  0.00  0.00     0.000 A 
HETATM   13  C   UNK N   1      26.992  19.618   3.846  0.00  0.00     0.001 A 
HETATM   14  C   UNK N   1      27.835  18.556   4.187  0.00  0.00     0.009 A 
ENDBRANCH   7   9
ENDBRANCH   2   7
BRANCH   1  15
HETATM   15  C   UNK N   1      31.566  16.906   7.974  0.00  0.00     0.311 C 
HETATM   16  O   UNK N   1      31.475  15.755   8.383  0.00  0.00    -0.258 OA
BRANCH  15  17
HETATM   17  O   UNK N   1      31.547  17.944   8.843  0.00  0.00    -0.317 OA
BRANCH  17  18
HETATM   18  C   UNK N   1      30.462  18.777   8.980  0.00  0.00     0.175 C 
HETATM   19  C   UNK N   1      29.370  18.047   9.733  0.00  0.00     0.034 C 
ENDBRANCH  17  18
ENDBRANCH  15  17
ENDBRANCH   1  15
TORSDOF 5
ENDMDL
