MODEL 1
REMARK VINA RESULT:      -7.7      0.000      0.000
REMARK  13 active torsions:
REMARK  status: ('A' for Active; 'I' for Inactive)
REMARK    1  A    between atoms: O_1  and  C_24 
REMARK    2  A    between atoms: O_3  and  C_28 
REMARK    3  A    between atoms: O_5  and  C_51 
REMARK    4  A    between atoms: O_7  and  C_54 
REMARK    5  A    between atoms: C_16  and  C_24 
REMARK    6  A    between atoms: C_20  and  C_28 
REMARK    7  A    between atoms: C_31  and  C_34 
REMARK    8  A    between atoms: C_34  and  C_42 
REMARK    9  A    between atoms: C_37  and  C_49 
REMARK   10  A    between atoms: C_41  and  C_47 
REMARK   11  A    between atoms: C_42  and  C_51 
REMARK   12  A    between atoms: C_47  and  C_52 
REMARK   13  A    between atoms: C_52  and  C_54 
ROOT
HETATM    1  N   UNK N   1      27.660  13.232   2.110  0.00  0.00    -0.358 N 
ATOM      2  HN  UNK N   1      27.473  14.167   2.472  1.00  0.00     0.166 HD
HETATM    3  N   UNK N   1      29.353  15.447   3.090  0.00  0.00    -0.355 N 
HETATM    4  N   UNK N   1      25.345  14.797   2.781  0.00  0.00    -0.355 N 
HETATM    5  N   UNK N   1      27.020  16.980   3.721  0.00  0.00    -0.355 N 
ATOM      6  HN  UNK N   1      27.198  16.089   3.257  1.00  0.00     0.166 HD
HETATM    7  C   UNK N   1      28.886  11.268   1.397  0.00  0.00     0.045 A 
HETATM    8  C   UNK N   1      29.429  10.855   0.022  0.00  0.00     0.143 C 
HETATM    9  C   UNK N   1      27.401  11.128   1.326  0.00  0.00    -0.016 A 
HETATM   10  C   UNK N   1      28.946  12.698   1.833  0.00  0.00     0.026 A 
HETATM   11  C   UNK N   1      29.454  10.384   2.516  0.00  0.00     0.028 C 
HETATM   12  C   UNK N   1      29.037   9.369  -0.173  0.00  0.00     0.032 C 
HETATM   13  C   UNK N   1      26.773  12.351   1.831  0.00  0.00     0.042 A 
HETATM   14  C   UNK N   1      26.835  10.042   0.773  0.00  0.00     0.011 C 
HETATM   15  C   UNK N   1      27.759   9.027   0.169  0.00  0.00     0.015 C 
HETATM   16  C   UNK N   1      30.115  13.289   2.097  0.00  0.00     0.056 C 
HETATM   17  C   UNK N   1      25.316  12.524   2.041  0.00  0.00     0.060 C 
HETATM   18  C   UNK N   1      30.324  14.591   2.719  0.00  0.00     0.041 A 
HETATM   19  C   UNK N   1      31.562  15.052   3.112  0.00  0.00    -0.027 A 
HETATM   20  C   UNK N   1      24.715  13.640   2.485  0.00  0.00     0.041 A 
HETATM   21  C   UNK N   1      31.347  16.246   3.757  0.00  0.00    -0.023 A 
HETATM   22  C   UNK N   1      29.981  16.462   3.722  0.00  0.00     0.041 A 
HETATM   23  C   UNK N   1      23.355  13.746   2.732  0.00  0.00    -0.023 A 
HETATM   24  C   UNK N   1      32.863  14.350   2.916  0.00  0.00     0.051 C 
HETATM   25  C   UNK N   1      24.377  15.651   3.198  0.00  0.00     0.045 A 
HETATM   26  C   UNK N   1      23.142  15.034   3.185  0.00  0.00    -0.002 A 
HETATM   27  C   UNK N   1      29.306  17.615   4.330  0.00  0.00     0.060 C 
HETATM   28  C   UNK N   1      27.986  17.829   4.304  0.00  0.00     0.041 A 
HETATM   29  C   UNK N   1      27.296  18.977   4.895  0.00  0.00    -0.023 A 
HETATM   30  C   UNK N   1      24.575  16.891   3.648  0.00  0.00     0.060 C 
HETATM   31  C   UNK N   1      25.874  17.541   3.883  0.00  0.00     0.041 A 
HETATM   32  C   UNK N   1      22.338  12.664   2.583  0.00  0.00     0.051 C 
HETATM   33  C   UNK N   1      26.010  18.815   4.607  0.00  0.00    -0.027 A 
HETATM   34  C   UNK N   1      24.895  19.721   5.015  0.00  0.00     0.051 C 
HETATM   35  H   UNK N   1      28.385  15.353   2.933  0.00  0.00     0.166 HD
HETATM   36  H   UNK N   1      26.309  14.984   2.708  0.00  0.00     0.166 HD
ENDROOT
BRANCH  21  37
HETATM   37  C   UNK N   1      32.354  17.125   4.446  0.00  0.00     0.051 C 
BRANCH  37  38
HETATM   38  C   UNK N   1      32.696  16.753   5.890  0.00  0.00     0.116 C 
BRANCH  38  39
HETATM   39  C   UNK N   1      34.152  16.909   6.237  0.00  0.00     0.258 C 
HETATM   40  O   UNK N   1      34.951  16.068   5.861  0.00  0.00    -0.265 OA
BRANCH  39  41
HETATM   41  O   UNK N   1      34.600  17.991   6.921  0.00  0.00    -0.326 OA
HETATM   42  C   UNK N   1      34.130  18.332   8.168  0.00  0.00     0.213 C 
ENDBRANCH  39  41
ENDBRANCH  38  39
ENDBRANCH  37  38
ENDBRANCH  21  37
BRANCH  29  43
HETATM   43  C   UNK N   1      27.864  20.092   5.731  0.00  0.00     0.052 C 
BRANCH  43  44
HETATM   44  C   UNK N   1      27.374  20.066   7.170  0.00  0.00     0.115 C 
BRANCH  44  45
HETATM   45  C   UNK N   1      28.047  19.010   7.988  0.00  0.00     0.139 C 
HETATM   46  O   UNK N   1      29.156  18.621   7.665  0.00  0.00    -0.650 OA
BRANCH  45  47
HETATM   47  O   UNK N   1      27.447  18.487   9.076  0.00  0.00    -0.776 OA
HETATM   48  H   UNK N   1      27.592  18.474  10.002  0.00  0.00     0.167 HD
ENDBRANCH  45  47
ENDBRANCH  44  45
ENDBRANCH  43  44
ENDBRANCH  29  43
BRANCH   8  49
HETATM   49  C   UNK N   1      30.868  11.256  -0.173  0.00  0.00     0.268 C 
HETATM   50  O   UNK N   1      31.730  10.733   0.519  0.00  0.00    -0.264 OA
BRANCH  49  51
HETATM   51  O   UNK N   1      31.205  12.135  -1.149  0.00  0.00    -0.326 OA
HETATM   52  C   UNK N   1      32.444  12.132  -1.746  0.00  0.00     0.213 C 
ENDBRANCH  49  51
ENDBRANCH   8  49
BRANCH  12  53
HETATM   53  C   UNK N   1      30.022   8.324  -0.641  0.00  0.00     0.289 C 
HETATM   54  O   UNK N   1      30.582   7.627   0.189  0.00  0.00    -0.260 OA
BRANCH  53  55
HETATM   55  O   UNK N   1      30.316   8.093  -1.953  0.00  0.00    -0.323 OA
HETATM   56  C   UNK N   1      30.021   8.924  -3.007  0.00  0.00     0.213 C 
ENDBRANCH  53  55
ENDBRANCH  12  53
BRANCH  26  57
HETATM   57  C   UNK N   1      21.884  15.658   3.657  0.00  0.00     0.004 C 
HETATM   58  C   UNK N   1      20.861  15.920   2.847  0.00  0.00     0.012 C 
ENDBRANCH  26  57
TORSDOF 13
ENDMDL
MODEL 2
REMARK VINA RESULT:      -7.7      3.167      7.796
REMARK  13 active torsions:
REMARK  status: ('A' for Active; 'I' for Inactive)
REMARK    1  A    between atoms: O_1  and  C_24 
REMARK    2  A    between atoms: O_3  and  C_28 
REMARK    3  A    between atoms: O_5  and  C_51 
REMARK    4  A    between atoms: O_7  and  C_54 
REMARK    5  A    between atoms: C_16  and  C_24 
REMARK    6  A    between atoms: C_20  and  C_28 
REMARK    7  A    between atoms: C_31  and  C_34 
REMARK    8  A    between atoms: C_34  and  C_42 
REMARK    9  A    between atoms: C_37  and  C_49 
REMARK   10  A    between atoms: C_41  and  C_47 
REMARK   11  A    between atoms: C_42  and  C_51 
REMARK   12  A    between atoms: C_47  and  C_52 
REMARK   13  A    between atoms: C_52  and  C_54 
ROOT
HETATM    1  N   UNK N   1      25.320  13.655   2.329  0.00  0.00    -0.358 N 
ATOM      2  HN  UNK N   1      26.301  13.870   2.507  1.00  0.00     0.166 HD
HETATM    3  N   UNK N   1      26.771  16.039   3.301  0.00  0.00    -0.355 N 
HETATM    4  N   UNK N   1      27.853  12.346   1.971  0.00  0.00    -0.355 N 
HETATM    5  N   UNK N   1      29.270  14.688   2.950  0.00  0.00    -0.355 N 
ATOM      6  HN  UNK N   1      28.287  14.425   2.873  1.00  0.00     0.166 HD
HETATM    7  C   UNK N   1      22.918  13.934   2.171  0.00  0.00     0.045 A 
HETATM    8  C   UNK N   1      21.796  13.644   3.178  0.00  0.00     0.143 C 
HETATM    9  C   UNK N   1      23.418  12.608   1.700  0.00  0.00    -0.016 A 
HETATM   10  C   UNK N   1      24.223  14.500   2.640  0.00  0.00     0.026 A 
HETATM   11  C   UNK N   1      22.413  14.768   0.986  0.00  0.00     0.028 C 
HETATM   12  C   UNK N   1      20.688  12.900   2.391  0.00  0.00     0.032 C 
HETATM   13  C   UNK N   1      24.879  12.579   1.792  0.00  0.00     0.042 A 
HETATM   14  C   UNK N   1      22.563  11.629   1.360  0.00  0.00     0.011 C 
HETATM   15  C   UNK N   1      21.102  11.906   1.550  0.00  0.00     0.015 C 
HETATM   16  C   UNK N   1      24.300  15.747   3.114  0.00  0.00     0.056 C 
HETATM   17  C   UNK N   1      25.733  11.479   1.284  0.00  0.00     0.060 C 
HETATM   18  C   UNK N   1      25.512  16.502   3.411  0.00  0.00     0.041 A 
HETATM   19  C   UNK N   1      25.508  17.842   3.735  0.00  0.00    -0.027 A 
HETATM   20  C   UNK N   1      27.072  11.421   1.371  0.00  0.00     0.041 A 
HETATM   21  C   UNK N   1      26.824  18.225   3.827  0.00  0.00    -0.023 A 
HETATM   22  C   UNK N   1      27.574  17.094   3.559  0.00  0.00     0.041 A 
HETATM   23  C   UNK N   1      27.845  10.407   0.826  0.00  0.00    -0.023 A 
HETATM   24  C   UNK N   1      24.301  18.703   3.893  0.00  0.00     0.051 C 
HETATM   25  C   UNK N   1      29.127  11.907   1.824  0.00  0.00     0.045 A 
HETATM   26  C   UNK N   1      29.158  10.719   1.120  0.00  0.00    -0.002 A 
HETATM   27  C   UNK N   1      29.040  17.060   3.518  0.00  0.00     0.060 C 
HETATM   28  C   UNK N   1      29.773  15.971   3.257  0.00  0.00     0.041 A 
HETATM   29  C   UNK N   1      31.235  15.915   3.222  0.00  0.00    -0.023 A 
HETATM   30  C   UNK N   1      30.224  12.556   2.218  0.00  0.00     0.060 C 
HETATM   31  C   UNK N   1      30.282  13.912   2.787  0.00  0.00     0.041 A 
HETATM   32  C   UNK N   1      27.351   9.240   0.038  0.00  0.00     0.051 C 
HETATM   33  C   UNK N   1      31.543  14.648   2.967  0.00  0.00    -0.027 A 
HETATM   34  C   UNK N   1      32.921  14.091   2.812  0.00  0.00     0.051 C 
HETATM   35  H   UNK N   1      27.049  15.121   3.079  0.00  0.00     0.166 HD
HETATM   36  H   UNK N   1      27.558  13.170   2.422  0.00  0.00     0.166 HD
ENDROOT
BRANCH  21  37
HETATM   37  C   UNK N   1      27.376  19.601   4.080  0.00  0.00     0.051 C 
BRANCH  37  38
HETATM   38  C   UNK N   1      28.292  19.746   5.297  0.00  0.00     0.116 C 
BRANCH  38  39
HETATM   39  C   UNK N   1      27.567  19.757   6.615  0.00  0.00     0.258 C 
HETATM   40  O   UNK N   1      26.661  20.554   6.794  0.00  0.00    -0.265 OA
BRANCH  39  41
HETATM   41  O   UNK N   1      27.871  18.868   7.593  0.00  0.00    -0.326 OA
HETATM   42  C   UNK N   1      28.615  17.734   7.364  0.00  0.00     0.213 C 
ENDBRANCH  39  41
ENDBRANCH  38  39
ENDBRANCH  37  38
ENDBRANCH  21  37
BRANCH  29  43
HETATM   43  C   UNK N   1      32.227  17.039   3.359  0.00  0.00     0.052 C 
BRANCH  43  44
HETATM   44  C   UNK N   1      32.349  17.552   4.785  0.00  0.00     0.115 C 
BRANCH  44  45
HETATM   45  C   UNK N   1      33.654  17.186   5.419  0.00  0.00     0.139 C 
HETATM   46  O   UNK N   1      34.182  17.967   6.193  0.00  0.00    -0.650 OA
BRANCH  45  47
HETATM   47  O   UNK N   1      34.251  16.008   5.148  0.00  0.00    -0.776 OA
HETATM   48  H   UNK N   1      35.054  15.578   5.368  0.00  0.00     0.167 HD
ENDBRANCH  45  47
ENDBRANCH  44  45
ENDBRANCH  43  44
ENDBRANCH  29  43
BRANCH   8  49
HETATM   49  C   UNK N   1      21.420  14.858   3.986  0.00  0.00     0.268 C 
HETATM   50  O   UNK N   1      21.644  14.866   5.188  0.00  0.00    -0.264 OA
BRANCH  49  51
HETATM   51  O   UNK N   1      20.902  15.951   3.373  0.00  0.00    -0.326 OA
HETATM   52  C   UNK N   1      19.870  16.680   3.918  0.00  0.00     0.213 C 
ENDBRANCH  49  51
ENDBRANCH   8  49
BRANCH  12  53
HETATM   53  C   UNK N   1      19.230  13.288   2.477  0.00  0.00     0.289 C 
HETATM   54  O   UNK N   1      18.735  13.923   1.561  0.00  0.00    -0.260 OA
BRANCH  53  55
HETATM   55  O   UNK N   1      18.417  12.953   3.519  0.00  0.00    -0.323 OA
HETATM   56  C   UNK N   1      18.754  12.151   4.583  0.00  0.00     0.213 C 
ENDBRANCH  53  55
ENDBRANCH  12  53
BRANCH  26  57
HETATM   57  C   UNK N   1      30.396  10.011   0.716  0.00  0.00     0.004 C 
HETATM   58  C   UNK N   1      30.918  10.112  -0.504  0.00  0.00     0.012 C 
ENDBRANCH  26  57
TORSDOF 13
ENDMDL
MODEL 3
REMARK VINA RESULT:      -7.7      2.787      9.101
REMARK  13 active torsions:
REMARK  status: ('A' for Active; 'I' for Inactive)
REMARK    1  A    between atoms: O_1  and  C_24 
REMARK    2  A    between atoms: O_3  and  C_28 
REMARK    3  A    between atoms: O_5  and  C_51 
REMARK    4  A    between atoms: O_7  and  C_54 
REMARK    5  A    between atoms: C_16  and  C_24 
REMARK    6  A    between atoms: C_20  and  C_28 
REMARK    7  A    between atoms: C_31  and  C_34 
REMARK    8  A    between atoms: C_34  and  C_42 
REMARK    9  A    between atoms: C_37  and  C_49 
REMARK   10  A    between atoms: C_41  and  C_47 
REMARK   11  A    between atoms: C_42  and  C_51 
REMARK   12  A    between atoms: C_47  and  C_52 
REMARK   13  A    between atoms: C_52  and  C_54 
ROOT
HETATM    1  N   UNK N   1      30.980  14.785   4.983  0.00  0.00    -0.358 N 
ATOM      2  HN  UNK N   1      30.571  14.093   4.354  1.00  0.00     0.166 HD
HETATM    3  N   UNK N   1      32.050  13.033   2.857  0.00  0.00    -0.355 N 
HETATM    4  N   UNK N   1      28.349  13.804   4.370  0.00  0.00    -0.355 N 
HETATM    5  N   UNK N   1      29.414  12.067   2.296  0.00  0.00    -0.355 N 
ATOM      6  HN  UNK N   1      29.828  12.679   3.001  1.00  0.00     0.166 HD
HETATM    7  C   UNK N   1      32.635  16.195   6.052  0.00  0.00     0.045 A 
HETATM    8  C   UNK N   1      33.500  15.973   7.301  0.00  0.00     0.143 C 
HETATM    9  C   UNK N   1      31.238  16.406   6.536  0.00  0.00    -0.016 A 
HETATM   10  C   UNK N   1      32.366  15.062   5.111  0.00  0.00     0.026 A 
HETATM   11  C   UNK N   1      33.111  17.409   5.243  0.00  0.00     0.028 C 
HETATM   12  C   UNK N   1      33.409  17.279   8.129  0.00  0.00     0.032 C 
HETATM   13  C   UNK N   1      30.327  15.543   5.782  0.00  0.00     0.042 A 
HETATM   14  C   UNK N   1      30.983  17.215   7.578  0.00  0.00     0.011 C 
HETATM   15  C   UNK N   1      32.165  17.826   8.269  0.00  0.00     0.015 C 
HETATM   16  C   UNK N   1      33.344  14.541   4.365  0.00  0.00     0.056 C 
HETATM   17  C   UNK N   1      28.849  15.580   5.891  0.00  0.00     0.060 C 
HETATM   18  C   UNK N   1      33.205  13.590   3.268  0.00  0.00     0.041 A 
HETATM   19  C   UNK N   1      34.245  13.234   2.438  0.00  0.00    -0.027 A 
HETATM   20  C   UNK N   1      27.993  14.788   5.224  0.00  0.00     0.041 A 
HETATM   21  C   UNK N   1      33.710  12.423   1.467  0.00  0.00    -0.023 A 
HETATM   22  C   UNK N   1      32.361  12.315   1.755  0.00  0.00     0.041 A 
HETATM   23  C   UNK N   1      26.613  14.894   5.300  0.00  0.00    -0.023 A 
HETATM   24  C   UNK N   1      35.658  13.696   2.553  0.00  0.00     0.051 C 
HETATM   25  C   UNK N   1      27.189  13.268   3.917  0.00  0.00     0.045 A 
HETATM   26  C   UNK N   1      26.102  13.919   4.466  0.00  0.00    -0.002 A 
HETATM   27  C   UNK N   1      31.396  11.561   0.947  0.00  0.00     0.060 C 
HETATM   28  C   UNK N   1      30.090  11.456   1.217  0.00  0.00     0.041 A 
HETATM   29  C   UNK N   1      29.114  10.700   0.429  0.00  0.00    -0.023 A 
HETATM   30  C   UNK N   1      27.083  12.305   3.001  0.00  0.00     0.060 C 
HETATM   31  C   UNK N   1      28.182  11.708   2.225  0.00  0.00     0.041 A 
HETATM   32  C   UNK N   1      25.842  15.897   6.092  0.00  0.00     0.051 C 
HETATM   33  C   UNK N   1      27.956  10.829   1.067  0.00  0.00    -0.027 A 
HETATM   34  C   UNK N   1      26.646  10.253   0.638  0.00  0.00     0.051 C 
HETATM   35  H   UNK N   1      31.162  13.129   3.272  0.00  0.00     0.166 HD
HETATM   36  H   UNK N   1      29.263  13.532   4.126  0.00  0.00     0.166 HD
ENDROOT
BRANCH  21  37
HETATM   37  C   UNK N   1      34.399  11.824   0.272  0.00  0.00     0.051 C 
BRANCH  37  38
HETATM   38  C   UNK N   1      34.902  12.812  -0.782  0.00  0.00     0.116 C 
BRANCH  38  39
HETATM   39  C   UNK N   1      33.920  13.084  -1.889  0.00  0.00     0.258 C 
HETATM   40  O   UNK N   1      32.942  12.364  -2.013  0.00  0.00    -0.265 OA
BRANCH  39  41
HETATM   41  O   UNK N   1      34.076  14.141  -2.724  0.00  0.00    -0.326 OA
HETATM   42  C   UNK N   1      35.212  14.917  -2.740  0.00  0.00     0.213 C 
ENDBRANCH  39  41
ENDBRANCH  38  39
ENDBRANCH  37  38
ENDBRANCH  21  37
BRANCH  29  43
HETATM   43  C   UNK N   1      29.311   9.978  -0.876  0.00  0.00     0.052 C 
BRANCH  43  44
HETATM   44  C   UNK N   1      29.770  10.895  -2.000  0.00  0.00     0.115 C 
BRANCH  44  45
HETATM   45  C   UNK N   1      30.440  10.152  -3.111  0.00  0.00     0.139 C 
HETATM   46  O   UNK N   1      29.788   9.822  -4.087  0.00  0.00    -0.650 OA
BRANCH  45  47
HETATM   47  O   UNK N   1      31.752   9.846  -3.050  0.00  0.00    -0.776 OA
HETATM   48  H   UNK N   1      32.539  10.253  -2.744  0.00  0.00     0.167 HD
ENDBRANCH  45  47
ENDBRANCH  44  45
ENDBRANCH  43  44
ENDBRANCH  29  43
BRANCH   8  49
HETATM   49  C   UNK N   1      34.861  15.420   6.968  0.00  0.00     0.268 C 
HETATM   50  O   UNK N   1      35.532  15.970   6.105  0.00  0.00    -0.264 OA
BRANCH  49  51
HETATM   51  O   UNK N   1      35.358  14.369   7.664  0.00  0.00    -0.326 OA
HETATM   52  C   UNK N   1      34.560  13.349   8.128  0.00  0.00     0.213 C 
ENDBRANCH  49  51
ENDBRANCH   8  49
BRANCH  12  53
HETATM   53  C   UNK N   1      34.629  17.969   8.696  0.00  0.00     0.289 C 
HETATM   54  O   UNK N   1      35.010  19.007   8.184  0.00  0.00    -0.260 OA
BRANCH  53  55
HETATM   55  O   UNK N   1      35.330  17.506   9.770  0.00  0.00    -0.323 OA
HETATM   56  C   UNK N   1      34.998  16.422  10.547  0.00  0.00     0.213 C 
ENDBRANCH  53  55
ENDBRANCH  12  53
BRANCH  26  57
HETATM   57  C   UNK N   1      24.688  13.636   4.121  0.00  0.00     0.004 C 
HETATM   58  C   UNK N   1      23.900  12.879   4.880  0.00  0.00     0.012 C 
ENDBRANCH  26  57
TORSDOF 13
ENDMDL
MODEL 4
REMARK VINA RESULT:      -7.7      1.813      2.446
REMARK  13 active torsions:
REMARK  status: ('A' for Active; 'I' for Inactive)
REMARK    1  A    between atoms: O_1  and  C_24 
REMARK    2  A    between atoms: O_3  and  C_28 
REMARK    3  A    between atoms: O_5  and  C_51 
REMARK    4  A    between atoms: O_7  and  C_54 
REMARK    5  A    between atoms: C_16  and  C_24 
REMARK    6  A    between atoms: C_20  and  C_28 
REMARK    7  A    between atoms: C_31  and  C_34 
REMARK    8  A    between atoms: C_34  and  C_42 
REMARK    9  A    between atoms: C_37  and  C_49 
REMARK   10  A    between atoms: C_41  and  C_47 
REMARK   11  A    between atoms: C_42  and  C_51 
REMARK   12  A    between atoms: C_47  and  C_52 
REMARK   13  A    between atoms: C_52  and  C_54 
ROOT
HETATM    1  N   UNK N   1      29.854  13.415   2.298  0.00  0.00    -0.358 N 
ATOM      2  HN  UNK N   1      29.454  14.286   2.649  1.00  0.00     0.166 HD
HETATM    3  N   UNK N   1      30.924  15.722   3.802  0.00  0.00    -0.355 N 
HETATM    4  N   UNK N   1      27.251  14.627   2.426  0.00  0.00    -0.355 N 
HETATM    5  N   UNK N   1      28.319  16.904   3.886  0.00  0.00    -0.355 N 
ATOM      6  HN  UNK N   1      28.729  16.084   3.437  1.00  0.00     0.166 HD
HETATM    7  C   UNK N   1      31.478  11.681   1.824  0.00  0.00     0.045 A 
HETATM    8  C   UNK N   1      32.400  11.459   0.616  0.00  0.00     0.143 C 
HETATM    9  C   UNK N   1      30.093  11.372   1.362  0.00  0.00    -0.016 A 
HETATM   10  C   UNK N   1      31.229  13.065   2.336  0.00  0.00     0.026 A 
HETATM   11  C   UNK N   1      31.864  10.778   3.003  0.00  0.00     0.028 C 
HETATM   12  C   UNK N   1      32.279   9.960   0.247  0.00  0.00     0.032 C 
HETATM   13  C   UNK N   1      29.195  12.462   1.751  0.00  0.00     0.042 A 
HETATM   14  C   UNK N   1      29.839  10.279   0.622  0.00  0.00     0.011 C 
HETATM   15  C   UNK N   1      31.016   9.438   0.225  0.00  0.00     0.015 C 
HETATM   16  C   UNK N   1      32.202  13.766   2.926  0.00  0.00     0.056 C 
HETATM   17  C   UNK N   1      27.723  12.441   1.583  0.00  0.00     0.060 C 
HETATM   18  C   UNK N   1      32.066  15.024   3.651  0.00  0.00     0.041 A 
HETATM   19  C   UNK N   1      33.090  15.594   4.377  0.00  0.00    -0.027 A 
HETATM   20  C   UNK N   1      26.882  13.433   1.916  0.00  0.00     0.041 A 
HETATM   21  C   UNK N   1      32.557  16.692   5.007  0.00  0.00    -0.023 A 
HETATM   22  C   UNK N   1      31.227  16.746   4.630  0.00  0.00     0.041 A 
HETATM   23  C   UNK N   1      25.502  13.354   1.806  0.00  0.00    -0.023 A 
HETATM   24  C   UNK N   1      34.482  15.072   4.489  0.00  0.00     0.051 C 
HETATM   25  C   UNK N   1      26.102  15.319   2.623  0.00  0.00     0.045 A 
HETATM   26  C   UNK N   1      25.006  14.563   2.256  0.00  0.00    -0.002 A 
HETATM   27  C   UNK N   1      30.269  17.752   5.102  0.00  0.00     0.060 C 
HETATM   28  C   UNK N   1      28.981  17.808   4.746  0.00  0.00     0.041 A 
HETATM   29  C   UNK N   1      28.013  18.809   5.198  0.00  0.00    -0.023 A 
HETATM   30  C   UNK N   1      26.007  16.530   3.175  0.00  0.00     0.060 C 
HETATM   31  C   UNK N   1      27.103  17.308   3.775  0.00  0.00     0.041 A 
HETATM   32  C   UNK N   1      24.715  12.176   1.339  0.00  0.00     0.051 C 
HETATM   33  C   UNK N   1      26.875  18.520   4.576  0.00  0.00    -0.027 A 
HETATM   34  C   UNK N   1      25.579  19.247   4.729  0.00  0.00     0.051 C 
HETATM   35  H   UNK N   1      30.049  15.527   3.394  0.00  0.00     0.166 HD
HETATM   36  H   UNK N   1      28.167  14.934   2.617  0.00  0.00     0.166 HD
ENDROOT
BRANCH  21  37
HETATM   37  C   UNK N   1      33.228  17.621   5.981  0.00  0.00     0.051 C 
BRANCH  37  38
HETATM   38  C   UNK N   1      33.426  17.083   7.399  0.00  0.00     0.116 C 
BRANCH  38  39
HETATM   39  C   UNK N   1      34.408  17.870   8.224  0.00  0.00     0.258 C 
HETATM   40  O   UNK N   1      34.931  18.864   7.747  0.00  0.00    -0.265 OA
BRANCH  39  41
HETATM   41  O   UNK N   1      34.689  17.521   9.504  0.00  0.00    -0.326 OA
HETATM   42  C   UNK N   1      34.694  16.216   9.938  0.00  0.00     0.213 C 
ENDBRANCH  39  41
ENDBRANCH  38  39
ENDBRANCH  37  38
ENDBRANCH  21  37
BRANCH  29  43
HETATM   43  C   UNK N   1      28.194  19.907   6.211  0.00  0.00     0.052 C 
BRANCH  43  44
HETATM   44  C   UNK N   1      27.432  19.654   7.503  0.00  0.00     0.115 C 
BRANCH  44  45
HETATM   45  C   UNK N   1      28.178  18.766   8.447  0.00  0.00     0.139 C 
HETATM   46  O   UNK N   1      29.395  18.715   8.384  0.00  0.00    -0.650 OA
BRANCH  45  47
HETATM   47  O   UNK N   1      27.526  18.025   9.366  0.00  0.00    -0.776 OA
HETATM   48  H   UNK N   1      27.736  17.576  10.162  0.00  0.00     0.167 HD
ENDBRANCH  45  47
ENDBRANCH  44  45
ENDBRANCH  43  44
ENDBRANCH  29  43
BRANCH   8  49
HETATM   49  C   UNK N   1      33.772  12.045   0.825  0.00  0.00     0.268 C 
HETATM   50  O   UNK N   1      34.533  11.510   1.620  0.00  0.00    -0.264 OA
BRANCH  49  51
HETATM   51  O   UNK N   1      34.178  13.109   0.089  0.00  0.00    -0.326 OA
HETATM   52  C   UNK N   1      35.091  12.991  -0.933  0.00  0.00     0.213 C 
ENDBRANCH  49  51
ENDBRANCH   8  49
BRANCH  12  53
HETATM   53  C   UNK N   1      33.485   9.084  -0.005  0.00  0.00     0.289 C 
HETATM   54  O   UNK N   1      33.821   8.283   0.851  0.00  0.00    -0.260 OA
BRANCH  53  55
HETATM   55  O   UNK N   1      34.221   9.121  -1.152  0.00  0.00    -0.323 OA
HETATM   56  C   UNK N   1      35.579   9.315  -1.237  0.00  0.00     0.213 C 
ENDBRANCH  53  55
ENDBRANCH  12  53
BRANCH  26  57
HETATM   57  C   UNK N   1      23.596  14.988   2.418  0.00  0.00     0.004 C 
HETATM   58  C   UNK N   1      22.847  14.621   3.455  0.00  0.00     0.012 C 
ENDBRANCH  26  57
TORSDOF 13
ENDMDL
MODEL 5
REMARK VINA RESULT:      -7.5      3.297      7.263
REMARK  13 active torsions:
REMARK  status: ('A' for Active; 'I' for Inactive)
REMARK    1  A    between atoms: O_1  and  C_24 
REMARK    2  A    between atoms: O_3  and  C_28 
REMARK    3  A    between atoms: O_5  and  C_51 
REMARK    4  A    between atoms: O_7  and  C_54 
REMARK    5  A    between atoms: C_16  and  C_24 
REMARK    6  A    between atoms: C_20  and  C_28 
REMARK    7  A    between atoms: C_31  and  C_34 
REMARK    8  A    between atoms: C_34  and  C_42 
REMARK    9  A    between atoms: C_37  and  C_49 
REMARK   10  A    between atoms: C_41  and  C_47 
REMARK   11  A    between atoms: C_42  and  C_51 
REMARK   12  A    between atoms: C_47  and  C_52 
REMARK   13  A    between atoms: C_52  and  C_54 
ROOT
HETATM    1  N   UNK N   1      27.309  13.645   2.696  0.00  0.00    -0.358 N 
ATOM      2  HN  UNK N   1      28.205  13.933   3.089  1.00  0.00     0.166 HD
HETATM    3  N   UNK N   1      28.223  15.964   4.284  0.00  0.00    -0.355 N 
HETATM    4  N   UNK N   1      30.024  12.709   2.630  0.00  0.00    -0.355 N 
HETATM    5  N   UNK N   1      30.910  14.982   4.212  0.00  0.00    -0.355 N 
ATOM      6  HN  UNK N   1      30.001  14.630   3.909  1.00  0.00     0.166 HD
HETATM    7  C   UNK N   1      24.954  13.681   2.127  0.00  0.00     0.045 A 
HETATM    8  C   UNK N   1      23.729  13.094   2.843  0.00  0.00     0.143 C 
HETATM    9  C   UNK N   1      25.708  12.523   1.561  0.00  0.00    -0.016 A 
HETATM   10  C   UNK N   1      26.066  14.295   2.918  0.00  0.00     0.026 A 
HETATM   11  C   UNK N   1      24.544  14.651   1.011  0.00  0.00     0.028 C 
HETATM   12  C   UNK N   1      22.887  12.384   1.754  0.00  0.00     0.032 C 
HETATM   13  C   UNK N   1      27.122  12.640   1.924  0.00  0.00     0.042 A 
HETATM   14  C   UNK N   1      25.070  11.532   0.917  0.00  0.00     0.011 C 
HETATM   15  C   UNK N   1      23.574  11.607   0.864  0.00  0.00     0.015 C 
HETATM   16  C   UNK N   1      25.886  15.439   3.586  0.00  0.00     0.056 C 
HETATM   17  C   UNK N   1      28.196  11.750   1.425  0.00  0.00     0.060 C 
HETATM   18  C   UNK N   1      26.910  16.258   4.222  0.00  0.00     0.041 A 
HETATM   19  C   UNK N   1      26.662  17.510   4.742  0.00  0.00    -0.027 A 
HETATM   20  C   UNK N   1      29.495  11.825   1.757  0.00  0.00     0.041 A 
HETATM   21  C   UNK N   1      27.876  18.014   5.142  0.00  0.00    -0.023 A 
HETATM   22  C   UNK N   1      28.813  17.038   4.851  0.00  0.00     0.041 A 
HETATM   23  C   UNK N   1      30.485  11.016   1.219  0.00  0.00    -0.023 A 
HETATM   24  C   UNK N   1      25.336  18.191   4.798  0.00  0.00     0.051 C 
HETATM   25  C   UNK N   1      31.355  12.447   2.663  0.00  0.00     0.045 A 
HETATM   26  C   UNK N   1      31.672  11.414   1.803  0.00  0.00    -0.002 A 
HETATM   27  C   UNK N   1      30.255  17.174   5.086  0.00  0.00     0.060 C 
HETATM   28  C   UNK N   1      31.168  16.238   4.804  0.00  0.00     0.041 A 
HETATM   29  C   UNK N   1      32.607  16.351   5.041  0.00  0.00    -0.023 A 
HETATM   30  C   UNK N   1      32.265  13.133   3.355  0.00  0.00     0.060 C 
HETATM   31  C   UNK N   1      32.035  14.364   4.127  0.00  0.00     0.041 A 
HETATM   32  C   UNK N   1      30.301   9.961   0.180  0.00  0.00     0.051 C 
HETATM   33  C   UNK N   1      33.130  15.191   4.657  0.00  0.00    -0.027 A 
HETATM   34  C   UNK N   1      34.578  14.827   4.684  0.00  0.00     0.051 C 
HETATM   35  H   UNK N   1      28.661  15.137   3.980  0.00  0.00     0.166 HD
HETATM   36  H   UNK N   1      29.544  13.402   3.138  0.00  0.00     0.166 HD
ENDROOT
BRANCH  21  37
HETATM   37  C   UNK N   1      28.177  19.375   5.706  0.00  0.00     0.051 C 
BRANCH  37  38
HETATM   38  C   UNK N   1      27.831  19.586   7.181  0.00  0.00     0.116 C 
BRANCH  38  39
HETATM   39  C   UNK N   1      28.573  18.676   8.123  0.00  0.00     0.258 C 
HETATM   40  O   UNK N   1      29.717  18.950   8.444  0.00  0.00    -0.265 OA
BRANCH  39  41
HETATM   41  O   UNK N   1      27.977  17.581   8.657  0.00  0.00    -0.326 OA
HETATM   42  C   UNK N   1      28.403  16.995   9.826  0.00  0.00     0.213 C 
ENDBRANCH  39  41
ENDBRANCH  38  39
ENDBRANCH  37  38
ENDBRANCH  21  37
BRANCH  29  43
HETATM   43  C   UNK N   1      33.393  17.535   5.537  0.00  0.00     0.052 C 
BRANCH  43  44
HETATM   44  C   UNK N   1      34.129  17.256   6.838  0.00  0.00     0.115 C 
BRANCH  44  45
HETATM   45  C   UNK N   1      33.847  18.281   7.890  0.00  0.00     0.139 C 
HETATM   46  O   UNK N   1      34.747  19.011   8.269  0.00  0.00    -0.650 OA
BRANCH  45  47
HETATM   47  O   UNK N   1      32.615  18.409   8.422  0.00  0.00    -0.776 OA
HETATM   48  H   UNK N   1      31.981  19.091   8.532  0.00  0.00     0.167 HD
ENDBRANCH  45  47
ENDBRANCH  44  45
ENDBRANCH  43  44
ENDBRANCH  29  43
BRANCH   8  49
HETATM   49  C   UNK N   1      23.053  14.096   3.742  0.00  0.00     0.268 C 
HETATM   50  O   UNK N   1      22.995  13.873   4.944  0.00  0.00    -0.264 OA
BRANCH  49  51
HETATM   51  O   UNK N   1      22.578  15.259   3.232  0.00  0.00    -0.326 OA
HETATM   52  C   UNK N   1      22.149  16.292   4.032  0.00  0.00     0.213 C 
ENDBRANCH  49  51
ENDBRANCH   8  49
BRANCH  12  53
HETATM   53  C   UNK N   1      21.396  12.587   1.619  0.00  0.00     0.289 C 
HETATM   54  O   UNK N   1      20.650  12.015   2.395  0.00  0.00    -0.260 OA
BRANCH  53  55
HETATM   55  O   UNK N   1      20.823  13.396   0.682  0.00  0.00    -0.323 OA
HETATM   56  C   UNK N   1      20.236  14.617   0.915  0.00  0.00     0.213 C 
ENDBRANCH  53  55
ENDBRANCH  12  53
BRANCH  26  57
HETATM   57  C   UNK N   1      33.048  10.930   1.538  0.00  0.00     0.004 C 
HETATM   58  C   UNK N   1      33.542   9.826   2.093  0.00  0.00     0.012 C 
ENDBRANCH  26  57
TORSDOF 13
ENDMDL
MODEL 6
REMARK VINA RESULT:      -7.4      3.009      7.095
REMARK  13 active torsions:
REMARK  status: ('A' for Active; 'I' for Inactive)
REMARK    1  A    between atoms: O_1  and  C_24 
REMARK    2  A    between atoms: O_3  and  C_28 
REMARK    3  A    between atoms: O_5  and  C_51 
REMARK    4  A    between atoms: O_7  and  C_54 
REMARK    5  A    between atoms: C_16  and  C_24 
REMARK    6  A    between atoms: C_20  and  C_28 
REMARK    7  A    between atoms: C_31  and  C_34 
REMARK    8  A    between atoms: C_34  and  C_42 
REMARK    9  A    between atoms: C_37  and  C_49 
REMARK   10  A    between atoms: C_41  and  C_47 
REMARK   11  A    between atoms: C_42  and  C_51 
REMARK   12  A    between atoms: C_47  and  C_52 
REMARK   13  A    between atoms: C_52  and  C_54 
ROOT
HETATM    1  N   UNK N   1      28.651  13.397   2.701  0.00  0.00    -0.358 N 
ATOM      2  HN  UNK N   1      27.683  13.605   2.458  1.00  0.00     0.166 HD
HETATM    3  N   UNK N   1      26.847  15.692   3.165  0.00  0.00    -0.355 N 
HETATM    4  N   UNK N   1      26.461  12.017   1.454  0.00  0.00    -0.355 N 
HETATM    5  N   UNK N   1      24.701  14.289   1.895  0.00  0.00    -0.355 N 
ATOM      6  HN  UNK N   1      25.697  14.116   2.036  1.00  0.00     0.166 HD
HETATM    7  C   UNK N   1      30.877  13.665   3.620  0.00  0.00     0.045 A 
HETATM    8  C   UNK N   1      32.168  14.221   3.002  0.00  0.00     0.143 C 
HETATM    9  C   UNK N   1      30.632  12.343   2.972  0.00  0.00    -0.016 A 
HETATM   10  C   UNK N   1      29.559  14.303   3.310  0.00  0.00     0.026 A 
HETATM   11  C   UNK N   1      31.004  13.501   5.140  0.00  0.00     0.028 C 
HETATM   12  C   UNK N   1      33.293  13.222   3.375  0.00  0.00     0.032 C 
HETATM   13  C   UNK N   1      29.245  12.279   2.507  0.00  0.00     0.042 A 
HETATM   14  C   UNK N   1      31.631  11.459   2.806  0.00  0.00     0.011 C 
HETATM   15  C   UNK N   1      33.001  11.895   3.229  0.00  0.00     0.015 C 
HETATM   16  C   UNK N   1      29.267  15.529   3.755  0.00  0.00     0.056 C 
HETATM   17  C   UNK N   1      28.602  11.071   1.939  0.00  0.00     0.060 C 
HETATM   18  C   UNK N   1      27.970  16.195   3.714  0.00  0.00     0.041 A 
HETATM   19  C   UNK N   1      27.713  17.391   4.348  0.00  0.00    -0.027 A 
HETATM   20  C   UNK N   1      27.339  10.992   1.490  0.00  0.00     0.041 A 
HETATM   21  C   UNK N   1      26.372  17.638   4.187  0.00  0.00    -0.023 A 
HETATM   22  C   UNK N   1      25.870  16.578   3.453  0.00  0.00     0.041 A 
HETATM   23  C   UNK N   1      26.748   9.826   1.025  0.00  0.00    -0.023 A 
HETATM   24  C   UNK N   1      28.701  18.213   5.105  0.00  0.00     0.051 C 
HETATM   25  C   UNK N   1      25.313  11.506   0.944  0.00  0.00     0.045 A 
HETATM   26  C   UNK N   1      25.455  10.160   0.674  0.00  0.00    -0.002 A 
HETATM   27  C   UNK N   1      24.460  16.420   3.079  0.00  0.00     0.060 C 
HETATM   28  C   UNK N   1      23.966  15.397   2.373  0.00  0.00     0.041 A 
HETATM   29  C   UNK N   1      22.566  15.227   1.981  0.00  0.00    -0.023 A 
HETATM   30  C   UNK N   1      24.165  12.169   0.796  0.00  0.00     0.060 C 
HETATM   31  C   UNK N   1      23.880  13.540   1.248  0.00  0.00     0.041 A 
HETATM   32  C   UNK N   1      27.379   8.475   0.966  0.00  0.00     0.051 C 
HETATM   33  C   UNK N   1      22.523  14.108   1.265  0.00  0.00    -0.027 A 
HETATM   34  C   UNK N   1      21.302  13.498   0.658  0.00  0.00     0.051 C 
HETATM   35  H   UNK N   1      26.758  14.851   2.660  0.00  0.00     0.166 HD
HETATM   36  H   UNK N   1      26.621  12.946   1.739  0.00  0.00     0.166 HD
ENDROOT
BRANCH  21  37
HETATM   37  C   UNK N   1      25.561  18.773   4.750  0.00  0.00     0.051 C 
BRANCH  37  38
HETATM   38  C   UNK N   1      25.639  20.099   3.990  0.00  0.00     0.116 C 
BRANCH  38  39
HETATM   39  C   UNK N   1      24.431  20.396   3.145  0.00  0.00     0.258 C 
HETATM   40  O   UNK N   1      24.582  20.822   2.012  0.00  0.00    -0.265 OA
BRANCH  39  41
HETATM   41  O   UNK N   1      23.177  20.155   3.602  0.00  0.00    -0.326 OA
HETATM   42  C   UNK N   1      22.079  20.098   2.775  0.00  0.00     0.213 C 
ENDBRANCH  39  41
ENDBRANCH  38  39
ENDBRANCH  37  38
ENDBRANCH  21  37
BRANCH  29  43
HETATM   43  C   UNK N   1      21.374  16.067   2.350  0.00  0.00     0.052 C 
BRANCH  43  44
HETATM   44  C   UNK N   1      20.696  15.608   3.632  0.00  0.00     0.115 C 
BRANCH  44  45
HETATM   45  C   UNK N   1      19.565  16.498   4.037  0.00  0.00     0.139 C 
HETATM   46  O   UNK N   1      19.542  17.652   3.641  0.00  0.00    -0.650 OA
BRANCH  45  47
HETATM   47  O   UNK N   1      18.573  16.044   4.828  0.00  0.00    -0.776 OA
HETATM   48  H   UNK N   1      18.494  15.657   5.678  0.00  0.00     0.167 HD
ENDBRANCH  45  47
ENDBRANCH  44  45
ENDBRANCH  43  44
ENDBRANCH  29  43
BRANCH   8  49
HETATM   49  C   UNK N   1      32.369  15.683   3.305  0.00  0.00     0.268 C 
HETATM   50  O   UNK N   1      32.381  16.485   2.381  0.00  0.00    -0.264 OA
BRANCH  49  51
HETATM   51  O   UNK N   1      32.466  16.106   4.589  0.00  0.00    -0.326 OA
HETATM   52  C   UNK N   1      32.800  17.401   4.913  0.00  0.00     0.213 C 
ENDBRANCH  49  51
ENDBRANCH   8  49
BRANCH  12  53
HETATM   53  C   UNK N   1      34.620  13.668   3.944  0.00  0.00     0.289 C 
HETATM   54  O   UNK N   1      35.563  13.824   3.186  0.00  0.00    -0.260 OA
BRANCH  53  55
HETATM   55  O   UNK N   1      34.828  13.929   5.266  0.00  0.00    -0.323 OA
HETATM   56  C   UNK N   1      35.557  14.975   5.780  0.00  0.00     0.213 C 
ENDBRANCH  53  55
ENDBRANCH  12  53
BRANCH  26  57
HETATM   57  C   UNK N   1      24.367   9.279   0.184  0.00  0.00     0.004 C 
HETATM   58  C   UNK N   1      24.238   8.938  -1.095  0.00  0.00     0.012 C 
ENDBRANCH  26  57
TORSDOF 13
ENDMDL
MODEL 7
REMARK VINA RESULT:      -7.2      2.672      8.049
REMARK  13 active torsions:
REMARK  status: ('A' for Active; 'I' for Inactive)
REMARK    1  A    between atoms: O_1  and  C_24 
REMARK    2  A    between atoms: O_3  and  C_28 
REMARK    3  A    between atoms: O_5  and  C_51 
REMARK    4  A    between atoms: O_7  and  C_54 
REMARK    5  A    between atoms: C_16  and  C_24 
REMARK    6  A    between atoms: C_20  and  C_28 
REMARK    7  A    between atoms: C_31  and  C_34 
REMARK    8  A    between atoms: C_34  and  C_42 
REMARK    9  A    between atoms: C_37  and  C_49 
REMARK   10  A    between atoms: C_41  and  C_47 
REMARK   11  A    between atoms: C_42  and  C_51 
REMARK   12  A    between atoms: C_47  and  C_52 
REMARK   13  A    between atoms: C_52  and  C_54 
ROOT
HETATM    1  N   UNK N   1      29.859  15.266   4.212  0.00  0.00    -0.358 N 
ATOM      2  HN  UNK N   1      28.931  15.038   3.855  1.00  0.00     0.166 HD
HETATM    3  N   UNK N   1      28.672  12.900   2.897  0.00  0.00    -0.355 N 
HETATM    4  N   UNK N   1      27.349  16.624   3.877  0.00  0.00    -0.355 N 
HETATM    5  N   UNK N   1      26.184  14.284   2.605  0.00  0.00    -0.355 N 
ATOM      6  HN  UNK N   1      27.074  14.482   3.063  1.00  0.00     0.166 HD
HETATM    7  C   UNK N   1      32.202  15.032   4.780  0.00  0.00     0.045 A 
HETATM    8  C   UNK N   1      32.891  14.541   6.061  0.00  0.00     0.143 C 
HETATM    9  C   UNK N   1      31.621  16.370   5.096  0.00  0.00    -0.016 A 
HETATM   10  C   UNK N   1      30.953  14.366   4.293  0.00  0.00     0.026 A 
HETATM   11  C   UNK N   1      33.193  15.141   3.613  0.00  0.00     0.028 C 
HETATM   12  C   UNK N   1      34.018  15.559   6.365  0.00  0.00     0.032 C 
HETATM   13  C   UNK N   1      30.224  16.409   4.661  0.00  0.00     0.042 A 
HETATM   14  C   UNK N   1      32.332  17.290   5.770  0.00  0.00     0.011 C 
HETATM   15  C   UNK N   1      33.693  16.881   6.248  0.00  0.00     0.015 C 
HETATM   16  C   UNK N   1      30.979  13.115   3.823  0.00  0.00     0.056 C 
HETATM   17  C   UNK N   1      29.367  17.618   4.686  0.00  0.00     0.060 C 
HETATM   18  C   UNK N   1      29.904  12.411   3.133  0.00  0.00     0.041 A 
HETATM   19  C   UNK N   1      30.070  11.184   2.528  0.00  0.00    -0.027 A 
HETATM   20  C   UNK N   1      28.079  17.674   4.309  0.00  0.00     0.041 A 
HETATM   21  C   UNK N   1      28.888  10.901   1.889  0.00  0.00    -0.023 A 
HETATM   22  C   UNK N   1      28.049  11.973   2.138  0.00  0.00     0.041 A 
HETATM   23  C   UNK N   1      27.325  18.838   4.283  0.00  0.00    -0.023 A 
HETATM   24  C   UNK N   1      31.316  10.364   2.532  0.00  0.00     0.051 C 
HETATM   25  C   UNK N   1      26.118  17.119   3.595  0.00  0.00     0.045 A 
HETATM   26  C   UNK N   1      26.071  18.478   3.830  0.00  0.00    -0.002 A 
HETATM   27  C   UNK N   1      26.685  12.101   1.611  0.00  0.00     0.060 C 
HETATM   28  C   UNK N   1      25.869  13.136   1.844  0.00  0.00     0.041 A 
HETATM   29  C   UNK N   1      24.504  13.277   1.336  0.00  0.00    -0.023 A 
HETATM   30  C   UNK N   1      25.101  16.427   3.079  0.00  0.00     0.060 C 
HETATM   31  C   UNK N   1      25.137  15.031   2.614  0.00  0.00     0.041 A 
HETATM   32  C   UNK N   1      27.798  20.210   4.632  0.00  0.00     0.051 C 
HETATM   33  C   UNK N   1      24.048  14.420   1.836  0.00  0.00    -0.027 A 
HETATM   34  C   UNK N   1      22.701  15.015   1.585  0.00  0.00     0.051 C 
HETATM   35  H   UNK N   1      28.301  13.756   3.213  0.00  0.00     0.166 HD
HETATM   36  H   UNK N   1      27.647  15.690   3.785  0.00  0.00     0.166 HD
ENDROOT
BRANCH  21  37
HETATM   37  C   UNK N   1      28.562   9.721   1.016  0.00  0.00     0.051 C 
BRANCH  37  38
HETATM   38  C   UNK N   1      28.811   9.901  -0.483  0.00  0.00     0.116 C 
BRANCH  38  39
HETATM   39  C   UNK N   1      30.247   9.719  -0.894  0.00  0.00     0.258 C 
HETATM   40  O   UNK N   1      30.816   8.672  -0.636  0.00  0.00    -0.265 OA
BRANCH  39  41
HETATM   41  O   UNK N   1      30.908  10.681  -1.586  0.00  0.00    -0.326 OA
HETATM   42  C   UNK N   1      31.398  11.822  -0.994  0.00  0.00     0.213 C 
ENDBRANCH  39  41
ENDBRANCH  38  39
ENDBRANCH  37  38
ENDBRANCH  21  37
BRANCH  29  43
HETATM   43  C   UNK N   1      23.754  12.386   0.383  0.00  0.00     0.052 C 
BRANCH  43  44
HETATM   44  C   UNK N   1      23.119  11.185   1.067  0.00  0.00     0.115 C 
BRANCH  44  45
HETATM   45  C   UNK N   1      21.707  11.444   1.489  0.00  0.00     0.139 C 
HETATM   46  O   UNK N   1      21.481  11.795   2.635  0.00  0.00    -0.650 OA
BRANCH  45  47
HETATM   47  O   UNK N   1      20.686  11.297   0.622  0.00  0.00    -0.776 OA
HETATM   48  H   UNK N   1      20.452  10.711  -0.072  0.00  0.00     0.167 HD
ENDBRANCH  45  47
ENDBRANCH  44  45
ENDBRANCH  43  44
ENDBRANCH  29  43
BRANCH   8  49
HETATM   49  C   UNK N   1      33.234  13.076   6.005  0.00  0.00     0.268 C 
HETATM   50  O   UNK N   1      32.651  12.299   6.750  0.00  0.00    -0.264 OA
BRANCH  49  51
HETATM   51  O   UNK N   1      34.128  12.619   5.094  0.00  0.00    -0.326 OA
HETATM   52  C   UNK N   1      34.183  11.297   4.717  0.00  0.00     0.213 C 
ENDBRANCH  49  51
ENDBRANCH   8  49
BRANCH  12  53
HETATM   53  C   UNK N   1      35.429  15.133   6.701  0.00  0.00     0.289 C 
HETATM   54  O   UNK N   1      36.286  15.200   5.836  0.00  0.00    -0.260 OA
BRANCH  53  55
HETATM   55  O   UNK N   1      35.814  14.690   7.932  0.00  0.00    -0.323 OA
HETATM   56  C   UNK N   1      35.244  15.040   9.133  0.00  0.00     0.213 C 
ENDBRANCH  53  55
ENDBRANCH  12  53
BRANCH  26  57
HETATM   57  C   UNK N   1      24.900  19.343   3.548  0.00  0.00     0.004 C 
HETATM   58  C   UNK N   1      24.932  20.331   2.658  0.00  0.00     0.012 C 
ENDBRANCH  26  57
TORSDOF 13
ENDMDL
MODEL 8
REMARK VINA RESULT:      -7.1      2.976      5.053
REMARK  13 active torsions:
REMARK  status: ('A' for Active; 'I' for Inactive)
REMARK    1  A    between atoms: O_1  and  C_24 
REMARK    2  A    between atoms: O_3  and  C_28 
REMARK    3  A    between atoms: O_5  and  C_51 
REMARK    4  A    between atoms: O_7  and  C_54 
REMARK    5  A    between atoms: C_16  and  C_24 
REMARK    6  A    between atoms: C_20  and  C_28 
REMARK    7  A    between atoms: C_31  and  C_34 
REMARK    8  A    between atoms: C_34  and  C_42 
REMARK    9  A    between atoms: C_37  and  C_49 
REMARK   10  A    between atoms: C_41  and  C_47 
REMARK   11  A    between atoms: C_42  and  C_51 
REMARK   12  A    between atoms: C_47  and  C_52 
REMARK   13  A    between atoms: C_52  and  C_54 
ROOT
HETATM    1  N   UNK N   1      25.019  12.552   1.665  0.00  0.00    -0.358 N 
ATOM      2  HN  UNK N   1      24.400  13.345   1.831  1.00  0.00     0.166 HD
HETATM    3  N   UNK N   1      25.322  15.167   3.007  0.00  0.00    -0.355 N 
HETATM    4  N   UNK N   1      22.252  13.181   1.218  0.00  0.00    -0.355 N 
HETATM    5  N   UNK N   1      22.566  15.761   2.519  0.00  0.00    -0.355 N 
ATOM      6  HN  UNK N   1      23.204  15.011   2.252  1.00  0.00     0.166 HD
HETATM    7  C   UNK N   1      27.011  11.173   1.687  0.00  0.00     0.045 A 
HETATM    8  C   UNK N   1      28.164  11.041   0.683  0.00  0.00     0.143 C 
HETATM    9  C   UNK N   1      25.822  10.529   1.054  0.00  0.00    -0.016 A 
HETATM   10  C   UNK N   1      26.406  12.512   1.969  0.00  0.00     0.026 A 
HETATM   11  C   UNK N   1      27.344  10.489   3.021  0.00  0.00     0.028 C 
HETATM   12  C   UNK N   1      28.409   9.523   0.497  0.00  0.00     0.032 C 
HETATM   13  C   UNK N   1      24.673  11.431   1.150  0.00  0.00     0.042 A 
HETATM   14  C   UNK N   1      25.928   9.342   0.433  0.00  0.00     0.011 C 
HETATM   15  C   UNK N   1      27.299   8.742   0.343  0.00  0.00     0.015 C 
HETATM   16  C   UNK N   1      27.097  13.459   2.610  0.00  0.00     0.056 C 
HETATM   17  C   UNK N   1      23.289  11.078   0.753  0.00  0.00     0.060 C 
HETATM   18  C   UNK N   1      26.587  14.721   3.133  0.00  0.00     0.041 A 
HETATM   19  C   UNK N   1      27.328  15.564   3.932  0.00  0.00    -0.027 A 
HETATM   20  C   UNK N   1      22.223  11.892   0.814  0.00  0.00     0.041 A 
HETATM   21  C   UNK N   1      26.484  16.576   4.320  0.00  0.00    -0.023 A 
HETATM   22  C   UNK N   1      25.262  16.305   3.732  0.00  0.00     0.041 A 
HETATM   23  C   UNK N   1      20.930  11.507   0.497  0.00  0.00    -0.023 A 
HETATM   24  C   UNK N   1      28.751  15.368   4.332  0.00  0.00     0.051 C 
HETATM   25  C   UNK N   1      20.972  13.623   1.136  0.00  0.00     0.045 A 
HETATM   26  C   UNK N   1      20.133  12.618   0.700  0.00  0.00    -0.002 A 
HETATM   27  C   UNK N   1      24.055  17.121   3.910  0.00  0.00     0.060 C 
HETATM   28  C   UNK N   1      22.868  16.864   3.348  0.00  0.00     0.041 A 
HETATM   29  C   UNK N   1      21.657  17.671   3.505  0.00  0.00    -0.023 A 
HETATM   30  C   UNK N   1      20.543  14.832   1.503  0.00  0.00     0.060 C 
HETATM   31  C   UNK N   1      21.336  15.881   2.163  0.00  0.00     0.041 A 
HETATM   32  C   UNK N   1      20.488  10.148   0.068  0.00  0.00     0.051 C 
HETATM   33  C   UNK N   1      20.732  17.086   2.753  0.00  0.00    -0.027 A 
HETATM   34  C   UNK N   1      19.313  17.528   2.600  0.00  0.00     0.051 C 
HETATM   35  H   UNK N   1      24.593  14.750   2.493  0.00  0.00     0.166 HD
HETATM   36  H   UNK N   1      23.039  13.694   1.510  0.00  0.00     0.166 HD
ENDROOT
BRANCH  21  37
HETATM   37  C   UNK N   1      26.770  17.716   5.259  0.00  0.00     0.051 C 
BRANCH  37  38
HETATM   38  C   UNK N   1      27.685  18.818   4.723  0.00  0.00     0.116 C 
BRANCH  38  39
HETATM   39  C   UNK N   1      26.961  20.069   4.303  0.00  0.00     0.258 C 
HETATM   40  O   UNK N   1      26.289  20.059   3.285  0.00  0.00    -0.265 OA
BRANCH  39  41
HETATM   41  O   UNK N   1      27.004  21.193   5.060  0.00  0.00    -0.326 OA
HETATM   42  C   UNK N   1      27.070  21.166   6.434  0.00  0.00     0.213 C 
ENDBRANCH  39  41
ENDBRANCH  38  39
ENDBRANCH  37  38
ENDBRANCH  21  37
BRANCH  29  43
HETATM   43  C   UNK N   1      21.431  18.873   4.382  0.00  0.00     0.052 C 
BRANCH  43  44
HETATM   44  C   UNK N   1      20.898  20.074   3.617  0.00  0.00     0.115 C 
BRANCH  44  45
HETATM   45  C   UNK N   1      21.857  20.569   2.582  0.00  0.00     0.139 C 
HETATM   46  O   UNK N   1      22.947  20.991   2.931  0.00  0.00    -0.650 OA
BRANCH  45  47
HETATM   47  O   UNK N   1      21.535  20.552   1.273  0.00  0.00    -0.776 OA
HETATM   48  H   UNK N   1      20.901  20.960   0.716  0.00  0.00     0.167 HD
ENDBRANCH  45  47
ENDBRANCH  44  45
ENDBRANCH  43  44
ENDBRANCH  29  43
BRANCH   8  49
HETATM   49  C   UNK N   1      29.333  11.926   1.029  0.00  0.00     0.268 C 
HETATM   50  O   UNK N   1      29.676  12.795   0.239  0.00  0.00    -0.264 OA
BRANCH  49  51
HETATM   51  O   UNK N   1      29.950  11.803   2.230  0.00  0.00    -0.326 OA
HETATM   52  C   UNK N   1      30.939  12.666   2.642  0.00  0.00     0.213 C 
ENDBRANCH  49  51
ENDBRANCH   8  49
BRANCH  12  53
HETATM   53  C   UNK N   1      29.789   8.909   0.558  0.00  0.00     0.289 C 
HETATM   54  O   UNK N   1      30.462   8.872  -0.457  0.00  0.00    -0.260 OA
BRANCH  53  55
HETATM   55  O   UNK N   1      30.343   8.403   1.697  0.00  0.00    -0.323 OA
HETATM   56  C   UNK N   1      31.578   8.724   2.208  0.00  0.00     0.213 C 
ENDBRANCH  53  55
ENDBRANCH  12  53
BRANCH  26  57
HETATM   57  C   UNK N   1      18.661  12.742   0.578  0.00  0.00     0.004 C 
HETATM   58  C   UNK N   1      17.815  12.119   1.395  0.00  0.00     0.012 C 
ENDBRANCH  26  57
TORSDOF 13
ENDMDL
MODEL 9
REMARK VINA RESULT:      -7.0      4.963      8.138
REMARK  13 active torsions:
REMARK  status: ('A' for Active; 'I' for Inactive)
REMARK    1  A    between atoms: O_1  and  C_24 
REMARK    2  A    between atoms: O_3  and  C_28 
REMARK    3  A    between atoms: O_5  and  C_51 
REMARK    4  A    between atoms: O_7  and  C_54 
REMARK    5  A    between atoms: C_16  and  C_24 
REMARK    6  A    between atoms: C_20  and  C_28 
REMARK    7  A    between atoms: C_31  and  C_34 
REMARK    8  A    between atoms: C_34  and  C_42 
REMARK    9  A    between atoms: C_37  and  C_49 
REMARK   10  A    between atoms: C_41  and  C_47 
REMARK   11  A    between atoms: C_42  and  C_51 
REMARK   12  A    between atoms: C_47  and  C_52 
REMARK   13  A    between atoms: C_52  and  C_54 
ROOT
HETATM    1  N   UNK N   1      31.139  10.465   5.768  0.00  0.00    -0.358 N 
ATOM      2  HN  UNK N   1      31.651  10.733   6.608  1.00  0.00     0.166 HD
HETATM    3  N   UNK N   1      32.640  12.873   6.593  0.00  0.00    -0.355 N 
HETATM    4  N   UNK N   1      31.903   9.225   8.244  0.00  0.00    -0.355 N 
HETATM    5  N   UNK N   1      33.358  11.607   9.057  0.00  0.00    -0.355 N 
ATOM      6  HN  UNK N   1      32.753  11.370   8.270  1.00  0.00     0.166 HD
HETATM    7  C   UNK N   1      30.174  10.592   3.549  0.00  0.00     0.045 A 
HETATM    8  C   UNK N   1      28.793  11.060   3.069  0.00  0.00     0.143 C 
HETATM    9  C   UNK N   1      29.963   9.285   4.240  0.00  0.00    -0.016 A 
HETATM   10  C   UNK N   1      30.870  11.312   4.661  0.00  0.00     0.026 A 
HETATM   11  C   UNK N   1      31.152  10.426   2.378  0.00  0.00     0.028 C 
HETATM   12  C   UNK N   1      28.298   9.992   2.062  0.00  0.00     0.032 C 
HETATM   13  C   UNK N   1      30.633   9.309   5.541  0.00  0.00     0.042 A 
HETATM   14  C   UNK N   1      29.176   8.338   3.701  0.00  0.00     0.011 C 
HETATM   15  C   UNK N   1      28.469   8.686   2.426  0.00  0.00     0.015 C 
HETATM   16  C   UNK N   1      31.328  12.556   4.494  0.00  0.00     0.056 C 
HETATM   17  C   UNK N   1      30.757   8.143   6.447  0.00  0.00     0.060 C 
HETATM   18  C   UNK N   1      32.195  13.304   5.398  0.00  0.00     0.041 A 
HETATM   19  C   UNK N   1      32.762  14.517   5.071  0.00  0.00    -0.027 A 
HETATM   20  C   UNK N   1      31.351   8.144   7.651  0.00  0.00     0.041 A 
HETATM   21  C   UNK N   1      33.597  14.850   6.109  0.00  0.00    -0.023 A 
HETATM   22  C   UNK N   1      33.496  13.822   7.030  0.00  0.00     0.041 A 
HETATM   23  C   UNK N   1      31.506   7.018   8.445  0.00  0.00    -0.023 A 
HETATM   24  C   UNK N   1      32.542  15.277   3.806  0.00  0.00     0.051 C 
HETATM   25  C   UNK N   1      32.394   8.787   9.431  0.00  0.00     0.045 A 
HETATM   26  C   UNK N   1      32.171   7.433   9.583  0.00  0.00    -0.002 A 
HETATM   27  C   UNK N   1      34.251  13.754   8.286  0.00  0.00     0.060 C 
HETATM   28  C   UNK N   1      34.162  12.762   9.179  0.00  0.00     0.041 A 
HETATM   29  C   UNK N   1      34.899  12.681  10.441  0.00  0.00    -0.023 A 
HETATM   30  C   UNK N   1      33.079   9.522  10.308  0.00  0.00     0.060 C 
HETATM   31  C   UNK N   1      33.531  10.910  10.124  0.00  0.00     0.041 A 
HETATM   32  C   UNK N   1      31.080   5.628   8.106  0.00  0.00     0.051 C 
HETATM   33  C   UNK N   1      34.486  11.565  11.032  0.00  0.00    -0.027 A 
HETATM   34  C   UNK N   1      34.966  11.033  12.342  0.00  0.00     0.051 C 
HETATM   35  H   UNK N   1      32.393  12.038   7.053  0.00  0.00     0.166 HD
HETATM   36  H   UNK N   1      31.942  10.142   7.889  0.00  0.00     0.166 HD
ENDROOT
BRANCH  21  37
HETATM   37  C   UNK N   1      34.513  16.037   6.222  0.00  0.00     0.051 C 
BRANCH  37  38
HETATM   38  C   UNK N   1      33.837  17.394   6.426  0.00  0.00     0.116 C 
BRANCH  38  39
HETATM   39  C   UNK N   1      33.846  17.878   7.851  0.00  0.00     0.258 C 
HETATM   40  O   UNK N   1      34.681  18.694   8.202  0.00  0.00    -0.265 OA
BRANCH  39  41
HETATM   41  O   UNK N   1      32.915  17.456   8.743  0.00  0.00    -0.326 OA
HETATM   42  C   UNK N   1      31.573  17.392   8.446  0.00  0.00     0.213 C 
ENDBRANCH  39  41
ENDBRANCH  38  39
ENDBRANCH  37  38
ENDBRANCH  21  37
BRANCH  29  43
HETATM   43  C   UNK N   1      35.968  13.599  10.971  0.00  0.00     0.052 C 
BRANCH  43  44
HETATM   44  C   UNK N   1      35.404  14.801  11.713  0.00  0.00     0.115 C 
BRANCH  44  45
HETATM   45  C   UNK N   1      35.745  16.098  11.050  0.00  0.00     0.139 C 
HETATM   46  O   UNK N   1      36.877  16.276  10.633  0.00  0.00    -0.650 OA
BRANCH  45  47
HETATM   47  O   UNK N   1      34.820  17.068  10.906  0.00  0.00    -0.776 OA
HETATM   48  H   UNK N   1      33.963  17.255  11.236  0.00  0.00     0.167 HD
ENDBRANCH  45  47
ENDBRANCH  44  45
ENDBRANCH  43  44
ENDBRANCH  29  43
BRANCH   8  49
HETATM   49  C   UNK N   1      28.789  12.507   2.651  0.00  0.00     0.268 C 
HETATM   50  O   UNK N   1      29.411  12.839   1.652  0.00  0.00    -0.264 OA
BRANCH  49  51
HETATM   51  O   UNK N   1      28.049  13.413   3.337  0.00  0.00    -0.326 OA
HETATM   52  C   UNK N   1      28.497  14.688   3.590  0.00  0.00     0.213 C 
ENDBRANCH  49  51
ENDBRANCH   8  49
BRANCH  12  53
HETATM   53  C   UNK N   1      27.723  10.354   0.712  0.00  0.00     0.289 C 
HETATM   54  O   UNK N   1      28.389  10.144  -0.288  0.00  0.00    -0.260 OA
BRANCH  53  55
HETATM   55  O   UNK N   1      26.481  10.889   0.536  0.00  0.00    -0.323 OA
HETATM   56  C   UNK N   1      25.375  10.643   1.314  0.00  0.00     0.213 C 
ENDBRANCH  53  55
ENDBRANCH  12  53
BRANCH  26  57
HETATM   57  C   UNK N   1      32.650   6.623  10.728  0.00  0.00     0.004 C 
HETATM   58  C   UNK N   1      33.771   5.907  10.684  0.00  0.00     0.012 C 
ENDBRANCH  26  57
TORSDOF 13
ENDMDL
