MODEL 1
REMARK VINA RESULT:     -16.7      0.000      0.000
REMARK  10 active torsions:
REMARK  status: ('A' for Active; 'I' for Inactive)
REMARK    1  A    between atoms: C_28  and  N_44 
REMARK    2  A    between atoms: C_32  and  N_43 
REMARK    3  A    between atoms: C_34  and  O_57 
REMARK    4  A    between atoms: C_41  and  C_35 
REMARK    5  A    between atoms: C_40  and  C_36 
REMARK    6  A    between atoms: C_42  and  C_37 
REMARK    7  A    between atoms: C_37  and  O_56 
REMARK    8  A    between atoms: O_55  and  C_38 
REMARK    9  A    between atoms: O_53  and  C_39 
REMARK   10  A    between atoms: C_39  and  O_58 
ROOT
HETATM    1  C   UNK N   1      32.159  15.049   7.335  0.00  0.00     0.007 A 
HETATM    2  C   UNK N   1      29.422  16.760   3.319  0.00  0.00     0.012 A 
HETATM    3  C   UNK N   1      28.188  19.449   7.848  0.00  0.00     0.040 A 
HETATM    4  C   UNK N   1      30.374  16.427   5.579  0.00  0.00     0.015 A 
HETATM    5  C   UNK N   1      28.705  18.516   6.589  0.00  0.00     0.015 A 
HETATM    6  C   UNK N   1      29.950  17.504   7.645  0.00  0.00     0.023 A 
HETATM    7  C   UNK N   1      29.398  18.649   9.479  0.00  0.00     0.042 A 
HETATM    8  C   UNK N   1      28.353  18.166   4.188  0.00  0.00     0.049 A 
HETATM    9  C   UNK N   1      30.910  16.563   7.927  0.00  0.00     0.049 A 
HETATM   10  C   UNK N   1      31.944  14.697   5.410  0.00  0.00     0.051 A 
HETATM   11  C   UNK N   1      26.085  20.938   5.339  0.00  0.00     0.143 A 
HETATM   12  C   UNK N   1      26.144  21.293   6.722  0.00  0.00     0.143 A 
HETATM   13  C   UNK N   1      33.653  11.894   2.177  0.00  0.00     0.201 A 
HETATM   14  C   UNK N   1      31.483  16.214   8.797  0.00  0.00     0.202 A 
HETATM   15  C   UNK N   1      31.583  15.627   7.211  0.00  0.00     0.031 A 
HETATM   16  C   UNK N   1      32.818  12.938   2.682  0.00  0.00     0.193 A 
HETATM   17  C   UNK N   1      32.243  13.516   2.558  0.00  0.00     0.193 A 
HETATM   18  C   UNK N   1      27.295  20.137   6.970  0.00  0.00     0.059 A 
HETATM   19  C   UNK N   1      29.481  17.115   4.702  0.00  0.00     0.046 A 
HETATM   20  C   UNK N   1      30.173  17.249   7.591  0.00  0.00     0.101 A 
HETATM   21  C   UNK N   1      31.408  14.560   3.063  0.00  0.00     0.221 A 
HETATM   22  C   UNK N   1      29.739  16.649   4.072  0.00  0.00     0.007 A 
HETATM   23  C   UNK N   1      27.870  19.560   7.094  0.00  0.00     0.122 A 
HETATM   24  C   UNK N   1      30.632  15.960   4.951  0.00  0.00     0.036 A 
HETATM   25  C   UNK N   1      28.964  18.049   5.960  0.00  0.00     0.043 A 
HETATM   26  C   UNK N   1      29.856  17.360   6.838  0.00  0.00     0.111 A 
HETATM   27  C   UNK N   1      29.656  18.183   8.850  0.00  0.00     0.152 A 
HETATM   28  C   UNK N   1      26.978  20.248   6.217  0.00  0.00     0.114 A 
HETATM   29  C   UNK N   1      31.266  15.738   6.458  0.00  0.00     0.168 A 
HETATM   30  C   UNK N   1      31.150  15.027   3.692  0.00  0.00     0.241 A 
HETATM   31  C   UNK N   1      29.598  17.827   7.467  0.00  0.00     0.263 A 
HETATM   32  C   UNK N   1      30.315  16.071   4.197  0.00  0.00     0.089 A 
HETATM   33  C   UNK N   1      27.236  19.782   5.587  0.00  0.00     0.195 A 
HETATM   34  C   UNK N   1      29.539  17.471   6.084  0.00  0.00     0.144 A 
HETATM   35  C   UNK N   1      30.232  17.605   8.974  0.00  0.00     0.181 A 
HETATM   36  C   UNK N   1      28.647  18.160   5.207  0.00  0.00     0.165 A 
HETATM   37  C   UNK N   1      31.208  15.382   5.074  0.00  0.00     0.166 A 
HETATM   38  C   UNK N   1      30.433  16.782   6.962  0.00  0.00     0.265 A 
HETATM   39  C   UNK N   1      27.812  19.204   5.712  0.00  0.00     0.291 A 
HETATM   40  C   UNK N   1      28.905  17.693   4.577  0.00  0.00     0.081 A 
HETATM   41  C   UNK N   1      30.490  17.138   8.345  0.00  0.00     0.089 A 
HETATM   42  C   UNK N   1      31.525  15.271   5.828  0.00  0.00     0.107 A 
HETATM   43  N   UNK N   1      30.574  15.604   3.567  0.00  0.00    -0.390 N 
HETATM   44  N   UNK N   1      26.402  20.826   6.092  0.00  0.00    -0.414 N 
HETATM   45  O   UNK N   1      26.919  19.893   4.834  0.00  0.00    -0.389 OA
HETATM   46  O   UNK N   1      30.549  17.494   9.728  0.00  0.00    -0.390 OA
HETATM   47  O   UNK N   1      30.750  16.671   7.716  0.00  0.00    -0.265 OA
HETATM   48  O   UNK N   1      28.972  17.391   3.813  0.00  0.00    -0.388 OA
HETATM   49  O   UNK N   1      31.988  14.961   6.436  0.00  0.00    -0.385 OA
HETATM   50  O   UNK N   1      33.077  12.471   2.053  0.00  0.00    -0.394 OA
HETATM   51  O   UNK N   1      30.953  16.828   8.953  0.00  0.00    -0.383 OA
HETATM   52  O   UNK N   1      31.984  13.983   3.187  0.00  0.00    -0.385 OA
HETATM   53  O   UNK N   1      28.130  19.093   6.465  0.00  0.00    -0.354 OA
HETATM   54  O   UNK N   1      29.339  18.294   8.096  0.00  0.00    -0.354 OA
HETATM   55  O   UNK N   1      30.691  16.316   6.333  0.00  0.00    -0.312 OA
HETATM   56  O   UNK N   1      31.467  14.916   4.446  0.00  0.00    -0.356 OA
HETATM   57  O   UNK N   1      29.281  17.938   6.714  0.00  0.00    -0.355 OA
HETATM   58  O   UNK N   1      28.071  18.738   5.082  0.00  0.00    -0.350 OA
HETATM   59  H   UNK N   1      30.182  15.742   2.636  0.00  0.00     0.156 HD
HETATM   60  H   UNK N   1      26.242  20.572   4.688  0.00  0.00     0.210 HD
HETATM   61  H   UNK N   1      31.226  16.814   9.874  0.00  0.00     0.210 HD
HETATM   62  H   UNK N   1      28.428  17.755   3.098  0.00  0.00     0.210 HD
HETATM   63  H   UNK N   1      32.610  14.240   6.253  0.00  0.00     0.210 HD
ENDROOT
TORSDOF 10
ENDMDL
MODEL 2
REMARK VINA RESULT:     -16.1      5.521      8.924
REMARK  10 active torsions:
REMARK  status: ('A' for Active; 'I' for Inactive)
REMARK    1  A    between atoms: C_28  and  N_44 
REMARK    2  A    between atoms: C_32  and  N_43 
REMARK    3  A    between atoms: C_34  and  O_57 
REMARK    4  A    between atoms: C_41  and  C_35 
REMARK    5  A    between atoms: C_40  and  C_36 
REMARK    6  A    between atoms: C_42  and  C_37 
REMARK    7  A    between atoms: C_37  and  O_56 
REMARK    8  A    between atoms: O_55  and  C_38 
REMARK    9  A    between atoms: O_53  and  C_39 
REMARK   10  A    between atoms: C_39  and  O_58 
ROOT
HETATM    1  C   UNK N   1      33.579  12.659   7.773  0.00  0.00     0.007 A 
HETATM    2  C   UNK N   1      35.313  16.775  10.340  0.00  0.00     0.012 A 
HETATM    3  C   UNK N   1      35.771  12.263  13.289  0.00  0.00     0.040 A 
HETATM    4  C   UNK N   1      34.666  14.476   9.692  0.00  0.00     0.015 A 
HETATM    5  C   UNK N   1      35.546  13.512  12.234  0.00  0.00     0.015 A 
HETATM    6  C   UNK N   1      34.797  12.414  10.847  0.00  0.00     0.023 A 
HETATM    7  C   UNK N   1      35.012  10.588  12.113  0.00  0.00     0.042 A 
HETATM    8  C   UNK N   1      35.866  15.935  12.032  0.00  0.00     0.049 A 
HETATM    9  C   UNK N   1      34.247  12.102   9.629  0.00  0.00     0.049 A 
HETATM   10  C   UNK N   1      33.797  14.598   7.520  0.00  0.00     0.051 A 
HETATM   11  C   UNK N   1      37.073  14.847  15.425  0.00  0.00     0.143 A 
HETATM   12  C   UNK N   1      36.970  13.456  15.736  0.00  0.00     0.143 A 
HETATM   13  C   UNK N   1      33.008  17.795   4.296  0.00  0.00     0.201 A 
HETATM   14  C   UNK N   1      33.882  11.210   9.100  0.00  0.00     0.202 A 
HETATM   15  C   UNK N   1      33.907  12.800   8.516  0.00  0.00     0.031 A 
HETATM   16  C   UNK N   1      33.448  17.313   5.567  0.00  0.00     0.193 A 
HETATM   17  C   UNK N   1      33.776  17.455   6.311  0.00  0.00     0.193 A 
HETATM   18  C   UNK N   1      36.314  13.171  14.248  0.00  0.00     0.059 A 
HETATM   19  C   UNK N   1      35.209  15.384  10.651  0.00  0.00     0.046 A 
HETATM   20  C   UNK N   1      34.675  12.461  10.531  0.00  0.00     0.101 A 
HETATM   21  C   UNK N   1      34.217  16.973   7.582  0.00  0.00     0.221 A 
HETATM   22  C   UNK N   1      35.097  16.009  10.124  0.00  0.00     0.007 A 
HETATM   23  C   UNK N   1      35.987  13.030  13.505  0.00  0.00     0.122 A 
HETATM   24  C   UNK N   1      34.554  15.100   9.165  0.00  0.00     0.036 A 
HETATM   25  C   UNK N   1      35.434  14.136  11.706  0.00  0.00     0.043 A 
HETATM   26  C   UNK N   1      34.891  13.227  10.747  0.00  0.00     0.111 A 
HETATM   27  C   UNK N   1      34.900  11.212  11.586  0.00  0.00     0.152 A 
HETATM   28  C   UNK N   1      36.530  13.938  14.464  0.00  0.00     0.114 A 
HETATM   29  C   UNK N   1      34.123  13.567   8.733  0.00  0.00     0.168 A 
HETATM   30  C   UNK N   1      34.329  16.348   8.110  0.00  0.00     0.241 A 
HETATM   31  C   UNK N   1      35.003  12.603  11.274  0.00  0.00     0.263 A 
HETATM   32  C   UNK N   1      34.769  15.866   9.381  0.00  0.00     0.089 A 
HETATM   33  C   UNK N   1      36.418  14.562  13.937  0.00  0.00     0.195 A 
HETATM   34  C   UNK N   1      35.106  13.994  10.963  0.00  0.00     0.144 A 
HETATM   35  C   UNK N   1      34.572  11.070  10.842  0.00  0.00     0.181 A 
HETATM   36  C   UNK N   1      35.649  14.902  11.922  0.00  0.00     0.165 A 
HETATM   37  C   UNK N   1      34.226  14.958   8.421  0.00  0.00     0.166 A 
HETATM   38  C   UNK N   1      34.562  13.085  10.003  0.00  0.00     0.265 A 
HETATM   39  C   UNK N   1      36.090  14.420  13.193  0.00  0.00     0.291 A 
HETATM   40  C   UNK N   1      35.537  15.527  11.395  0.00  0.00     0.081 A 
HETATM   41  C   UNK N   1      34.460  11.694  10.315  0.00  0.00     0.089 A 
HETATM   42  C   UNK N   1      34.010  14.192   8.205  0.00  0.00     0.107 A 
HETATM   43  N   UNK N   1      34.657  16.491   8.853  0.00  0.00    -0.390 N 
HETATM   44  N   UNK N   1      36.858  14.080  15.209  0.00  0.00    -0.414 N 
HETATM   45  O   UNK N   1      36.633  15.329  14.154  0.00  0.00    -0.389 OA
HETATM   46  O   UNK N   1      34.356  10.303  10.626  0.00  0.00    -0.390 OA
HETATM   47  O   UNK N   1      34.347  12.318   9.787  0.00  0.00    -0.265 OA
HETATM   48  O   UNK N   1      35.539  16.293  11.089  0.00  0.00    -0.388 OA
HETATM   49  O   UNK N   1      33.721  13.567   7.751  0.00  0.00    -0.385 OA
HETATM   50  O   UNK N   1      33.336  17.938   5.040  0.00  0.00    -0.394 OA
HETATM   51  O   UNK N   1      34.170  11.070   9.861  0.00  0.00    -0.383 OA
HETATM   52  O   UNK N   1      33.889  16.830   6.839  0.00  0.00    -0.385 OA
HETATM   53  O   UNK N   1      35.874  13.654  12.977  0.00  0.00    -0.354 OA
HETATM   54  O   UNK N   1      35.115  11.979  11.802  0.00  0.00    -0.354 OA
HETATM   55  O   UNK N   1      34.450  13.710   9.476  0.00  0.00    -0.312 OA
HETATM   56  O   UNK N   1      34.113  15.582   7.894  0.00  0.00    -0.356 OA
HETATM   57  O   UNK N   1      35.218  13.369  11.490  0.00  0.00    -0.355 OA
HETATM   58  O   UNK N   1      35.977  15.045  12.666  0.00  0.00    -0.350 OA
HETATM   59  H   UNK N   1      34.923  17.439   9.120  0.00  0.00     0.156 HD
HETATM   60  H   UNK N   1      37.019  15.496  15.028  0.00  0.00     0.210 HD
HETATM   61  H   UNK N   1      33.971  10.136   9.751  0.00  0.00     0.210 HD
HETATM   62  H   UNK N   1      35.879  17.027  11.622  0.00  0.00     0.210 HD
HETATM   63  H   UNK N   1      33.382  13.732   6.857  0.00  0.00     0.210 HD
ENDROOT
TORSDOF 10
ENDMDL
MODEL 3
REMARK VINA RESULT:     -16.1      1.602      4.051
REMARK  10 active torsions:
REMARK  status: ('A' for Active; 'I' for Inactive)
REMARK    1  A    between atoms: C_28  and  N_44 
REMARK    2  A    between atoms: C_32  and  N_43 
REMARK    3  A    between atoms: C_34  and  O_57 
REMARK    4  A    between atoms: C_41  and  C_35 
REMARK    5  A    between atoms: C_40  and  C_36 
REMARK    6  A    between atoms: C_42  and  C_37 
REMARK    7  A    between atoms: C_37  and  O_56 
REMARK    8  A    between atoms: O_55  and  C_38 
REMARK    9  A    between atoms: O_53  and  C_39 
REMARK   10  A    between atoms: C_39  and  O_58 
ROOT
HETATM    1  C   UNK N   1      32.113  14.220   5.486  0.00  0.00     0.007 A 
HETATM    2  C   UNK N   1      30.638  17.559   9.122  0.00  0.00     0.012 A 
HETATM    3  C   UNK N   1      27.862  18.271   4.533  0.00  0.00     0.040 A 
HETATM    4  C   UNK N   1      30.863  16.290   7.009  0.00  0.00     0.015 A 
HETATM    5  C   UNK N   1      28.812  17.893   5.828  0.00  0.00     0.015 A 
HETATM    6  C   UNK N   1      29.741  16.470   4.932  0.00  0.00     0.023 A 
HETATM    7  C   UNK N   1      28.563  16.813   3.067  0.00  0.00     0.042 A 
HETATM    8  C   UNK N   1      29.250  18.559   8.147  0.00  0.00     0.049 A 
HETATM    9  C   UNK N   1      30.633  15.440   4.763  0.00  0.00     0.049 A 
HETATM   10  C   UNK N   1      32.533  14.684   7.352  0.00  0.00     0.051 A 
HETATM   11  C   UNK N   1      26.537  20.764   6.760  0.00  0.00     0.143 A 
HETATM   12  C   UNK N   1      26.137  20.530   5.408  0.00  0.00     0.143 A 
HETATM   13  C   UNK N   1      35.364  13.319  10.722  0.00  0.00     0.201 A 
HETATM   14  C   UNK N   1      30.932  14.737   3.973  0.00  0.00     0.202 A 
HETATM   15  C   UNK N   1      31.563  14.832   5.542  0.00  0.00     0.031 A 
HETATM   16  C   UNK N   1      34.339  14.120  10.131  0.00  0.00     0.193 A 
HETATM   17  C   UNK N   1      33.789  14.732  10.189  0.00  0.00     0.193 A 
HETATM   18  C   UNK N   1      27.237  19.306   5.294  0.00  0.00     0.059 A 
HETATM   19  C   UNK N   1      30.238  17.325   7.770  0.00  0.00     0.046 A 
HETATM   20  C   UNK N   1      29.988  16.246   5.010  0.00  0.00     0.101 A 
HETATM   21  C   UNK N   1      32.763  15.533   9.598  0.00  0.00     0.221 A 
HETATM   22  C   UNK N   1      30.713  17.136   8.417  0.00  0.00     0.007 A 
HETATM   23  C   UNK N   1      27.787  18.694   5.237  0.00  0.00     0.122 A 
HETATM   24  C   UNK N   1      31.338  16.101   7.655  0.00  0.00     0.036 A 
HETATM   25  C   UNK N   1      29.288  17.703   6.475  0.00  0.00     0.043 A 
HETATM   26  C   UNK N   1      29.913  16.668   5.714  0.00  0.00     0.111 A 
HETATM   27  C   UNK N   1      29.037  16.624   3.715  0.00  0.00     0.152 A 
HETATM   28  C   UNK N   1      27.162  19.729   5.998  0.00  0.00     0.114 A 
HETATM   29  C   UNK N   1      31.488  15.255   6.247  0.00  0.00     0.168 A 
HETATM   30  C   UNK N   1      32.288  15.723   8.950  0.00  0.00     0.241 A 
HETATM   31  C   UNK N   1      29.438  16.857   5.066  0.00  0.00     0.263 A 
HETATM   32  C   UNK N   1      31.263  16.524   8.360  0.00  0.00     0.089 A 
HETATM   33  C   UNK N   1      27.637  19.540   6.646  0.00  0.00     0.195 A 
HETATM   34  C   UNK N   1      29.838  17.091   6.418  0.00  0.00     0.144 A 
HETATM   35  C   UNK N   1      29.588  16.011   3.658  0.00  0.00     0.181 A 
HETATM   36  C   UNK N   1      29.213  18.126   7.179  0.00  0.00     0.165 A 
HETATM   37  C   UNK N   1      31.888  15.489   7.599  0.00  0.00     0.166 A 
HETATM   38  C   UNK N   1      30.463  16.056   5.657  0.00  0.00     0.265 A 
HETATM   39  C   UNK N   1      28.188  18.927   6.589  0.00  0.00     0.291 A 
HETATM   40  C   UNK N   1      29.688  17.937   7.827  0.00  0.00     0.081 A 
HETATM   41  C   UNK N   1      30.063  15.823   4.305  0.00  0.00     0.089 A 
HETATM   42  C   UNK N   1      31.963  15.066   6.895  0.00  0.00     0.107 A 
HETATM   43  N   UNK N   1      31.738  16.335   9.008  0.00  0.00    -0.390 N 
HETATM   44  N   UNK N   1      26.612  20.341   6.055  0.00  0.00    -0.414 N 
HETATM   45  O   UNK N   1      27.562  19.963   7.350  0.00  0.00    -0.389 OA
HETATM   46  O   UNK N   1      29.663  15.588   2.953  0.00  0.00    -0.390 OA
HETATM   47  O   UNK N   1      30.538  15.633   4.952  0.00  0.00    -0.265 OA
HETATM   48  O   UNK N   1      30.010  17.964   8.585  0.00  0.00    -0.388 OA
HETATM   49  O   UNK N   1      32.236  14.510   6.350  0.00  0.00    -0.385 OA
HETATM   50  O   UNK N   1      34.814  13.931  10.779  0.00  0.00    -0.394 OA
HETATM   51  O   UNK N   1      30.336  15.267   3.760  0.00  0.00    -0.383 OA
HETATM   52  O   UNK N   1      33.313  14.921   9.541  0.00  0.00    -0.385 OA
HETATM   53  O   UNK N   1      28.263  18.504   5.884  0.00  0.00    -0.354 OA
HETATM   54  O   UNK N   1      28.962  17.047   4.419  0.00  0.00    -0.354 OA
HETATM   55  O   UNK N   1      30.938  15.867   6.304  0.00  0.00    -0.312 OA
HETATM   56  O   UNK N   1      32.363  15.300   8.246  0.00  0.00    -0.356 OA
HETATM   57  O   UNK N   1      29.363  17.280   5.771  0.00  0.00    -0.355 OA
HETATM   58  O   UNK N   1      28.662  18.739   7.236  0.00  0.00    -0.350 OA
HETATM   59  H   UNK N   1      31.645  16.858   9.879  0.00  0.00     0.156 HD
HETATM   60  H   UNK N   1      26.915  20.683   7.417  0.00  0.00     0.210 HD
HETATM   61  H   UNK N   1      30.310  14.868   2.886  0.00  0.00     0.210 HD
HETATM   62  H   UNK N   1      29.690  18.617   9.226  0.00  0.00     0.210 HD
HETATM   63  H   UNK N   1      32.937  13.888   6.600  0.00  0.00     0.210 HD
ENDROOT
TORSDOF 10
ENDMDL
MODEL 4
REMARK VINA RESULT:     -16.0      9.288     10.631
REMARK  10 active torsions:
REMARK  status: ('A' for Active; 'I' for Inactive)
REMARK    1  A    between atoms: C_28  and  N_44 
REMARK    2  A    between atoms: C_32  and  N_43 
REMARK    3  A    between atoms: C_34  and  O_57 
REMARK    4  A    between atoms: C_41  and  C_35 
REMARK    5  A    between atoms: C_40  and  C_36 
REMARK    6  A    between atoms: C_42  and  C_37 
REMARK    7  A    between atoms: C_37  and  O_56 
REMARK    8  A    between atoms: O_55  and  C_38 
REMARK    9  A    between atoms: O_53  and  C_39 
REMARK   10  A    between atoms: C_39  and  O_58 
ROOT
HETATM    1  C   UNK N   1      19.938  12.812   4.853  0.00  0.00     0.007 A 
HETATM    2  C   UNK N   1      21.195  17.402   6.829  0.00  0.00     0.012 A 
HETATM    3  C   UNK N   1      20.271  17.721   1.508  0.00  0.00     0.040 A 
HETATM    4  C   UNK N   1      20.555  15.568   5.295  0.00  0.00     0.015 A 
HETATM    5  C   UNK N   1      20.508  17.411   3.111  0.00  0.00     0.015 A 
HETATM    6  C   UNK N   1      20.117  15.536   2.968  0.00  0.00     0.023 A 
HETATM    7  C   UNK N   1      19.749  15.732   0.776  0.00  0.00     0.042 A 
HETATM    8  C   UNK N   1      21.113  18.522   5.212  0.00  0.00     0.049 A 
HETATM    9  C   UNK N   1      19.942  14.237   3.379  0.00  0.00     0.049 A 
HETATM   10  C   UNK N   1      20.416  13.617   6.584  0.00  0.00     0.051 A 
HETATM   11  C   UNK N   1      21.101  21.088   2.461  0.00  0.00     0.143 A 
HETATM   12  C   UNK N   1      20.769  20.631   1.148  0.00  0.00     0.143 A 
HETATM   13  C   UNK N   1      20.982  12.337  10.974  0.00  0.00     0.201 A 
HETATM   14  C   UNK N   1      19.671  13.269   2.936  0.00  0.00     0.202 A 
HETATM   15  C   UNK N   1      20.033  13.579   4.562  0.00  0.00     0.031 A 
HETATM   16  C   UNK N   1      20.958  13.259   9.882  0.00  0.00     0.193 A 
HETATM   17  C   UNK N   1      21.053  14.026   9.593  0.00  0.00     0.193 A 
HETATM   18  C   UNK N   1      20.579  19.098   1.729  0.00  0.00     0.059 A 
HETATM   19  C   UNK N   1      20.863  16.945   5.516  0.00  0.00     0.046 A 
HETATM   20  C   UNK N   1      20.105  15.267   3.180  0.00  0.00     0.101 A 
HETATM   21  C   UNK N   1      21.029  14.947   8.501  0.00  0.00     0.221 A 
HETATM   22  C   UNK N   1      20.982  16.790   6.317  0.00  0.00     0.007 A 
HETATM   23  C   UNK N   1      20.484  18.333   2.019  0.00  0.00     0.122 A 
HETATM   24  C   UNK N   1      20.674  15.413   6.096  0.00  0.00     0.036 A 
HETATM   25  C   UNK N   1      20.626  17.255   3.913  0.00  0.00     0.043 A 
HETATM   26  C   UNK N   1      20.318  15.878   3.692  0.00  0.00     0.111 A 
HETATM   27  C   UNK N   1      19.867  15.577   1.577  0.00  0.00     0.152 A 
HETATM   28  C   UNK N   1      20.792  19.710   2.240  0.00  0.00     0.114 A 
HETATM   29  C   UNK N   1      20.247  14.190   5.073  0.00  0.00     0.168 A 
HETATM   30  C   UNK N   1      20.911  15.102   7.699  0.00  0.00     0.241 A 
HETATM   31  C   UNK N   1      20.199  16.033   2.890  0.00  0.00     0.263 A 
HETATM   32  C   UNK N   1      20.887  16.024   6.607  0.00  0.00     0.089 A 
HETATM   33  C   UNK N   1      20.911  19.555   3.042  0.00  0.00     0.195 A 
HETATM   34  C   UNK N   1      20.531  16.489   4.203  0.00  0.00     0.144 A 
HETATM   35  C   UNK N   1      19.772  14.810   1.867  0.00  0.00     0.181 A 
HETATM   36  C   UNK N   1      20.840  17.866   4.424  0.00  0.00     0.165 A 
HETATM   37  C   UNK N   1      20.579  14.646   6.387  0.00  0.00     0.166 A 
HETATM   38  C   UNK N   1      20.223  15.111   3.982  0.00  0.00     0.265 A 
HETATM   39  C   UNK N   1      20.816  18.788   3.332  0.00  0.00     0.291 A 
HETATM   40  C   UNK N   1      20.958  17.712   5.225  0.00  0.00     0.081 A 
HETATM   41  C   UNK N   1      19.891  14.656   2.669  0.00  0.00     0.089 A 
HETATM   42  C   UNK N   1      20.365  14.035   5.875  0.00  0.00     0.107 A 
HETATM   43  N   UNK N   1      21.006  15.869   7.409  0.00  0.00    -0.390 N 
HETATM   44  N   UNK N   1      20.887  20.477   1.950  0.00  0.00    -0.414 N 
HETATM   45  O   UNK N   1      21.124  20.166   3.553  0.00  0.00    -0.389 OA
HETATM   46  O   UNK N   1      19.559  14.199   1.356  0.00  0.00    -0.390 OA
HETATM   47  O   UNK N   1      20.010  14.500   3.471  0.00  0.00    -0.265 OA
HETATM   48  O   UNK N   1      21.131  17.838   6.022  0.00  0.00    -0.388 OA
HETATM   49  O   UNK N   1      20.170  13.279   5.610  0.00  0.00    -0.385 OA
HETATM   50  O   UNK N   1      21.077  13.104  10.685  0.00  0.00    -0.394 OA
HETATM   51  O   UNK N   1      19.695  13.900   2.404  0.00  0.00    -0.383 OA
HETATM   52  O   UNK N   1      20.934  14.181   8.791  0.00  0.00    -0.385 OA
HETATM   53  O   UNK N   1      20.603  18.177   2.821  0.00  0.00    -0.354 OA
HETATM   54  O   UNK N   1      20.081  16.188   2.088  0.00  0.00    -0.354 OA
HETATM   55  O   UNK N   1      20.342  14.957   4.783  0.00  0.00    -0.312 OA
HETATM   56  O   UNK N   1      20.697  14.491   7.187  0.00  0.00    -0.356 OA
HETATM   57  O   UNK N   1      20.413  16.644   3.401  0.00  0.00    -0.355 OA
HETATM   58  O   UNK N   1      20.935  18.633   4.134  0.00  0.00    -0.350 OA
HETATM   59  H   UNK N   1      21.270  16.624   8.041  0.00  0.00     0.156 HD
HETATM   60  H   UNK N   1      21.236  21.067   3.212  0.00  0.00     0.210 HD
HETATM   61  H   UNK N   1      19.447  13.298   1.697  0.00  0.00     0.210 HD
HETATM   62  H   UNK N   1      21.361  18.727   6.334  0.00  0.00     0.210 HD
HETATM   63  H   UNK N   1      20.142  12.538   6.235  0.00  0.00     0.210 HD
ENDROOT
TORSDOF 10
ENDMDL
MODEL 5
REMARK VINA RESULT:     -15.9      1.552      5.458
REMARK  10 active torsions:
REMARK  status: ('A' for Active; 'I' for Inactive)
REMARK    1  A    between atoms: C_28  and  N_44 
REMARK    2  A    between atoms: C_32  and  N_43 
REMARK    3  A    between atoms: C_34  and  O_57 
REMARK    4  A    between atoms: C_41  and  C_35 
REMARK    5  A    between atoms: C_40  and  C_36 
REMARK    6  A    between atoms: C_42  and  C_37 
REMARK    7  A    between atoms: C_37  and  O_56 
REMARK    8  A    between atoms: O_55  and  C_38 
REMARK    9  A    between atoms: O_53  and  C_39 
REMARK   10  A    between atoms: C_39  and  O_58 
ROOT
HETATM    1  C   UNK N   1      28.221  18.640   7.745  0.00  0.00     0.007 A 
HETATM    2  C   UNK N   1      29.359  16.614   3.147  0.00  0.00     0.012 A 
HETATM    3  C   UNK N   1      33.364  15.837   6.700  0.00  0.00     0.040 A 
HETATM    4  C   UNK N   1      29.440  17.337   5.513  0.00  0.00     0.015 A 
HETATM    5  C   UNK N   1      32.038  16.177   5.778  0.00  0.00     0.015 A 
HETATM    6  C   UNK N   1      31.095  17.082   7.186  0.00  0.00     0.023 A 
HETATM    7  C   UNK N   1      32.781  16.730   8.605  0.00  0.00     0.042 A 
HETATM    8  C   UNK N   1      31.146  15.875   3.514  0.00  0.00     0.049 A 
HETATM    9  C   UNK N   1      30.076  17.768   7.799  0.00  0.00     0.049 A 
HETATM   10  C   UNK N   1      27.425  18.446   5.956  0.00  0.00     0.051 A 
HETATM   11  C   UNK N   1      34.555  14.293   3.679  0.00  0.00     0.143 A 
HETATM   12  C   UNK N   1      35.245  14.365   4.928  0.00  0.00     0.143 A 
HETATM   13  C   UNK N   1      23.554  19.587   3.732  0.00  0.00     0.201 A 
HETATM   14  C   UNK N   1      29.854  18.193   8.788  0.00  0.00     0.202 A 
HETATM   15  C   UNK N   1      28.858  18.230   7.418  0.00  0.00     0.031 A 
HETATM   16  C   UNK N   1      24.853  19.007   3.865  0.00  0.00     0.193 A 
HETATM   17  C   UNK N   1      25.489  18.596   3.536  0.00  0.00     0.193 A 
HETATM   18  C   UNK N   1      33.973  15.186   5.584  0.00  0.00     0.059 A 
HETATM   19  C   UNK N   1      30.048  16.686   4.397  0.00  0.00     0.046 A 
HETATM   20  C   UNK N   1      30.793  17.239   7.223  0.00  0.00     0.101 A 
HETATM   21  C   UNK N   1      26.788  18.016   3.669  0.00  0.00     0.221 A 
HETATM   22  C   UNK N   1      29.386  16.855   3.935  0.00  0.00     0.007 A 
HETATM   23  C   UNK N   1      33.337  15.596   5.911  0.00  0.00     0.122 A 
HETATM   24  C   UNK N   1      28.777  17.507   5.052  0.00  0.00     0.036 A 
HETATM   25  C   UNK N   1      31.374  16.347   5.318  0.00  0.00     0.043 A 
HETATM   26  C   UNK N   1      30.766  16.998   6.434  0.00  0.00     0.111 A 
HETATM   27  C   UNK N   1      32.119  16.900   8.144  0.00  0.00     0.152 A 
HETATM   28  C   UNK N   1      33.946  14.945   4.795  0.00  0.00     0.114 A 
HETATM   29  C   UNK N   1      28.831  17.989   6.629  0.00  0.00     0.168 A 
HETATM   30  C   UNK N   1      27.451  17.846   4.131  0.00  0.00     0.241 A 
HETATM   31  C   UNK N   1      31.428  16.829   6.895  0.00  0.00     0.263 A 
HETATM   32  C   UNK N   1      28.750  17.266   4.264  0.00  0.00     0.089 A 
HETATM   33  C   UNK N   1      33.283  15.114   4.334  0.00  0.00     0.195 A 
HETATM   34  C   UNK N   1      30.739  16.757   5.645  0.00  0.00     0.144 A 
HETATM   35  C   UNK N   1      31.482  17.311   8.472  0.00  0.00     0.181 A 
HETATM   36  C   UNK N   1      31.347  16.106   4.530  0.00  0.00     0.165 A 
HETATM   37  C   UNK N   1      28.141  17.917   5.380  0.00  0.00     0.166 A 
HETATM   38  C   UNK N   1      30.129  17.409   6.762  0.00  0.00     0.265 A 
HETATM   39  C   UNK N   1      32.647  15.525   4.663  0.00  0.00     0.291 A 
HETATM   40  C   UNK N   1      30.685  16.275   4.068  0.00  0.00     0.081 A 
HETATM   41  C   UNK N   1      30.820  17.480   8.011  0.00  0.00     0.089 A 
HETATM   42  C   UNK N   1      28.168  18.158   6.168  0.00  0.00     0.107 A 
HETATM   43  N   UNK N   1      28.087  17.435   3.802  0.00  0.00    -0.390 N 
HETATM   44  N   UNK N   1      34.582  14.534   4.467  0.00  0.00    -0.414 N 
HETATM   45  O   UNK N   1      33.256  14.873   3.546  0.00  0.00    -0.389 OA
HETATM   46  O   UNK N   1      31.509  17.552   9.261  0.00  0.00    -0.390 OA
HETATM   47  O   UNK N   1      30.156  17.650   7.551  0.00  0.00    -0.265 OA
HETATM   48  O   UNK N   1      30.182  16.305   3.415  0.00  0.00    -0.388 OA
HETATM   49  O   UNK N   1      27.937  18.499   6.883  0.00  0.00    -0.385 OA
HETATM   50  O   UNK N   1      24.189  19.176   3.404  0.00  0.00    -0.394 OA
HETATM   51  O   UNK N   1      30.589  17.821   8.726  0.00  0.00    -0.383 OA
HETATM   52  O   UNK N   1      26.152  18.426   3.998  0.00  0.00    -0.385 OA
HETATM   53  O   UNK N   1      32.673  15.766   5.451  0.00  0.00    -0.354 OA
HETATM   54  O   UNK N   1      32.092  16.659   7.356  0.00  0.00    -0.354 OA
HETATM   55  O   UNK N   1      29.467  17.578   6.301  0.00  0.00    -0.312 OA
HETATM   56  O   UNK N   1      27.478  18.087   4.919  0.00  0.00    -0.356 OA
HETATM   57  O   UNK N   1      31.401  16.588   6.107  0.00  0.00    -0.355 OA
HETATM   58  O   UNK N   1      31.984  15.695   4.201  0.00  0.00    -0.350 OA
HETATM   59  H   UNK N   1      28.053  17.137   2.827  0.00  0.00     0.156 HD
HETATM   60  H   UNK N   1      34.004  14.390   3.160  0.00  0.00     0.210 HD
HETATM   61  H   UNK N   1      30.761  18.034   9.646  0.00  0.00     0.210 HD
HETATM   62  H   UNK N   1      30.454  15.905   2.575  0.00  0.00     0.210 HD
HETATM   63  H   UNK N   1      27.074  18.937   6.955  0.00  0.00     0.210 HD
ENDROOT
TORSDOF 10
ENDMDL
MODEL 6
REMARK VINA RESULT:     -15.9      2.221      6.290
REMARK  10 active torsions:
REMARK  status: ('A' for Active; 'I' for Inactive)
REMARK    1  A    between atoms: C_28  and  N_44 
REMARK    2  A    between atoms: C_32  and  N_43 
REMARK    3  A    between atoms: C_34  and  O_57 
REMARK    4  A    between atoms: C_41  and  C_35 
REMARK    5  A    between atoms: C_40  and  C_36 
REMARK    6  A    between atoms: C_42  and  C_37 
REMARK    7  A    between atoms: C_37  and  O_56 
REMARK    8  A    between atoms: O_55  and  C_38 
REMARK    9  A    between atoms: O_53  and  C_39 
REMARK   10  A    between atoms: C_39  and  O_58 
ROOT
HETATM    1  C   UNK N   1      30.749  16.700   3.287  0.00  0.00     0.007 A 
HETATM    2  C   UNK N   1      30.222  17.694   8.314  0.00  0.00     0.012 A 
HETATM    3  C   UNK N   1      34.962  15.313   7.252  0.00  0.00     0.040 A 
HETATM    4  C   UNK N   1      31.084  16.963   6.113  0.00  0.00     0.015 A 
HETATM    5  C   UNK N   1      33.478  16.025   7.361  0.00  0.00     0.015 A 
HETATM    6  C   UNK N   1      33.112  15.917   5.479  0.00  0.00     0.023 A 
HETATM    7  C   UNK N   1      35.082  14.938   5.104  0.00  0.00     0.042 A 
HETATM    8  C   UNK N   1      31.930  16.995   8.999  0.00  0.00     0.049 A 
HETATM    9  C   UNK N   1      32.412  16.071   4.307  0.00  0.00     0.049 A 
HETATM   10  C   UNK N   1      29.445  17.496   4.527  0.00  0.00     0.051 A 
HETATM   11  C   UNK N   1      35.009  15.819  10.812  0.00  0.00     0.143 A 
HETATM   12  C   UNK N   1      36.039  15.219  10.023  0.00  0.00     0.143 A 
HETATM   13  C   UNK N   1      25.268  19.437   4.403  0.00  0.00     0.201 A 
HETATM   14  C   UNK N   1      32.546  15.850   3.239  0.00  0.00     0.202 A 
HETATM   15  C   UNK N   1      31.205  16.587   3.965  0.00  0.00     0.031 A 
HETATM   16  C   UNK N   1      26.465  18.969   5.028  0.00  0.00     0.193 A 
HETATM   17  C   UNK N   1      26.919  18.857   5.707  0.00  0.00     0.193 A 
HETATM   18  C   UNK N   1      35.129  15.444   8.664  0.00  0.00     0.059 A 
HETATM   19  C   UNK N   1      31.251  17.094   7.525  0.00  0.00     0.046 A 
HETATM   20  C   UNK N   1      32.856  16.006   5.269  0.00  0.00     0.101 A 
HETATM   21  C   UNK N   1      28.116  18.388   6.332  0.00  0.00     0.221 A 
HETATM   22  C   UNK N   1      30.509  17.450   7.580  0.00  0.00     0.007 A 
HETATM   23  C   UNK N   1      34.675  15.556   7.986  0.00  0.00     0.122 A 
HETATM   24  C   UNK N   1      30.343  17.319   6.167  0.00  0.00     0.036 A 
HETATM   25  C   UNK N   1      32.735  16.382   7.415  0.00  0.00     0.043 A 
HETATM   26  C   UNK N   1      32.568  16.250   6.003  0.00  0.00     0.111 A 
HETATM   27  C   UNK N   1      34.340  15.294   5.160  0.00  0.00     0.152 A 
HETATM   28  C   UNK N   1      34.842  15.688   9.398  0.00  0.00     0.114 A 
HETATM   29  C   UNK N   1      30.917  16.831   4.699  0.00  0.00     0.168 A 
HETATM   30  C   UNK N   1      28.858  18.031   6.277  0.00  0.00     0.241 A 
HETATM   31  C   UNK N   1      33.310  15.894   5.948  0.00  0.00     0.263 A 
HETATM   32  C   UNK N   1      30.055  17.562   6.901  0.00  0.00     0.089 A 
HETATM   33  C   UNK N   1      34.100  16.044   9.454  0.00  0.00     0.195 A 
HETATM   34  C   UNK N   1      32.281  16.494   6.737  0.00  0.00     0.144 A 
HETATM   35  C   UNK N   1      33.885  15.406   4.480  0.00  0.00     0.181 A 
HETATM   36  C   UNK N   1      32.448  16.625   8.149  0.00  0.00     0.165 A 
HETATM   37  C   UNK N   1      29.887  17.431   5.488  0.00  0.00     0.166 A 
HETATM   38  C   UNK N   1      32.113  16.363   5.323  0.00  0.00     0.265 A 
HETATM   39  C   UNK N   1      33.645  16.157   8.774  0.00  0.00     0.291 A 
HETATM   40  C   UNK N   1      31.706  16.982   8.205  0.00  0.00     0.081 A 
HETATM   41  C   UNK N   1      33.143  15.763   4.535  0.00  0.00     0.089 A 
HETATM   42  C   UNK N   1      30.175  17.188   4.754  0.00  0.00     0.107 A 
HETATM   43  N   UNK N   1      29.313  17.919   6.956  0.00  0.00    -0.390 N 
HETATM   44  N   UNK N   1      35.297  15.575  10.078  0.00  0.00    -0.414 N 
HETATM   45  O   UNK N   1      33.812  16.288  10.187  0.00  0.00    -0.389 OA
HETATM   46  O   UNK N   1      34.172  15.162   3.746  0.00  0.00    -0.390 OA
HETATM   47  O   UNK N   1      32.401  16.119   4.589  0.00  0.00    -0.265 OA
HETATM   48  O   UNK N   1      31.042  17.342   8.535  0.00  0.00    -0.388 OA
HETATM   49  O   UNK N   1      30.208  17.051   3.942  0.00  0.00    -0.385 OA
HETATM   50  O   UNK N   1      25.722  19.325   5.083  0.00  0.00    -0.394 OA
HETATM   51  O   UNK N   1      33.177  15.626   3.723  0.00  0.00    -0.383 OA
HETATM   52  O   UNK N   1      27.662  18.500   5.652  0.00  0.00    -0.385 OA
HETATM   53  O   UNK N   1      33.932  15.913   8.040  0.00  0.00    -0.354 OA
HETATM   54  O   UNK N   1      34.053  15.538   5.894  0.00  0.00    -0.354 OA
HETATM   55  O   UNK N   1      31.372  16.719   5.379  0.00  0.00    -0.312 OA
HETATM   56  O   UNK N   1      29.146  17.787   5.543  0.00  0.00    -0.356 OA
HETATM   57  O   UNK N   1      33.023  16.138   6.682  0.00  0.00    -0.355 OA
HETATM   58  O   UNK N   1      32.903  16.513   8.829  0.00  0.00    -0.350 OA
HETATM   59  H   UNK N   1      28.957  18.221   7.863  0.00  0.00     0.156 HD
HETATM   60  H   UNK N   1      34.347  16.156  10.986  0.00  0.00     0.210 HD
HETATM   61  H   UNK N   1      33.638  15.295   2.948  0.00  0.00     0.210 HD
HETATM   62  H   UNK N   1      31.002  17.503   9.490  0.00  0.00     0.210 HD
HETATM   63  H   UNK N   1      29.467  17.314   3.374  0.00  0.00     0.210 HD
ENDROOT
TORSDOF 10
ENDMDL
MODEL 7
REMARK VINA RESULT:     -15.8      1.886      4.552
REMARK  10 active torsions:
REMARK  status: ('A' for Active; 'I' for Inactive)
REMARK    1  A    between atoms: C_28  and  N_44 
REMARK    2  A    between atoms: C_32  and  N_43 
REMARK    3  A    between atoms: C_34  and  O_57 
REMARK    4  A    between atoms: C_41  and  C_35 
REMARK    5  A    between atoms: C_40  and  C_36 
REMARK    6  A    between atoms: C_42  and  C_37 
REMARK    7  A    between atoms: C_37  and  O_56 
REMARK    8  A    between atoms: O_55  and  C_38 
REMARK    9  A    between atoms: O_53  and  C_39 
REMARK   10  A    between atoms: C_39  and  O_58 
ROOT
HETATM    1  C   UNK N   1      30.438  18.531   9.220  0.00  0.00     0.007 A 
HETATM    2  C   UNK N   1      32.015  14.741   6.108  0.00  0.00     0.012 A 
HETATM    3  C   UNK N   1      27.394  16.945   4.360  0.00  0.00     0.040 A 
HETATM    4  C   UNK N   1      30.740  16.592   7.142  0.00  0.00     0.015 A 
HETATM    5  C   UNK N   1      28.793  16.416   5.057  0.00  0.00     0.015 A 
HETATM    6  C   UNK N   1      28.724  17.665   6.516  0.00  0.00     0.023 A 
HETATM    7  C   UNK N   1      26.818  18.533   5.744  0.00  0.00     0.042 A 
HETATM    8  C   UNK N   1      30.582  14.765   4.759  0.00  0.00     0.049 A 
HETATM    9  C   UNK N   1      29.118  18.299   7.668  0.00  0.00     0.049 A 
HETATM   10  C   UNK N   1      31.915  17.240   9.062  0.00  0.00     0.051 A 
HETATM   11  C   UNK N   1      28.122  14.389   1.937  0.00  0.00     0.143 A 
HETATM   12  C   UNK N   1      26.998  15.271   1.934  0.00  0.00     0.143 A 
HETATM   13  C   UNK N   1      35.757  16.063  11.316  0.00  0.00     0.201 A 
HETATM   14  C   UNK N   1      28.763  19.110   8.318  0.00  0.00     0.202 A 
HETATM   15  C   UNK N   1      30.163  18.179   8.526  0.00  0.00     0.031 A 
HETATM   16  C   UNK N   1      34.784  15.975  10.274  0.00  0.00     0.193 A 
HETATM   17  C   UNK N   1      34.510  15.622   9.580  0.00  0.00     0.193 A 
HETATM   18  C   UNK N   1      27.546  15.976   3.322  0.00  0.00     0.059 A 
HETATM   19  C   UNK N   1      30.891  15.623   6.104  0.00  0.00     0.046 A 
HETATM   20  C   UNK N   1      28.916  17.738   6.790  0.00  0.00     0.101 A 
HETATM   21  C   UNK N   1      33.537  15.534   8.538  0.00  0.00     0.221 A 
HETATM   22  C   UNK N   1      31.590  15.358   6.453  0.00  0.00     0.007 A 
HETATM   23  C   UNK N   1      27.820  16.328   4.015  0.00  0.00     0.122 A 
HETATM   24  C   UNK N   1      31.438  16.328   7.491  0.00  0.00     0.036 A 
HETATM   25  C   UNK N   1      29.492  16.152   5.407  0.00  0.00     0.043 A 
HETATM   26  C   UNK N   1      29.341  17.121   6.445  0.00  0.00     0.111 A 
HETATM   27  C   UNK N   1      27.517  18.268   6.092  0.00  0.00     0.152 A 
HETATM   28  C   UNK N   1      27.971  15.359   2.977  0.00  0.00     0.114 A 
HETATM   29  C   UNK N   1      30.588  17.562   8.181  0.00  0.00     0.168 A 
HETATM   30  C   UNK N   1      32.837  15.799   8.189  0.00  0.00     0.241 A 
HETATM   31  C   UNK N   1      28.642  17.386   6.097  0.00  0.00     0.263 A 
HETATM   32  C   UNK N   1      31.864  15.711   7.146  0.00  0.00     0.089 A 
HETATM   33  C   UNK N   1      28.670  15.094   3.325  0.00  0.00     0.195 A 
HETATM   34  C   UNK N   1      29.766  16.504   6.100  0.00  0.00     0.144 A 
HETATM   35  C   UNK N   1      27.792  18.620   6.787  0.00  0.00     0.181 A 
HETATM   36  C   UNK N   1      29.918  15.535   5.062  0.00  0.00     0.165 A 
HETATM   37  C   UNK N   1      31.713  16.680   8.185  0.00  0.00     0.166 A 
HETATM   38  C   UNK N   1      29.615  17.474   7.139  0.00  0.00     0.265 A 
HETATM   39  C   UNK N   1      28.944  15.447   4.019  0.00  0.00     0.291 A 
HETATM   40  C   UNK N   1      30.617  15.270   5.410  0.00  0.00     0.081 A 
HETATM   41  C   UNK N   1      28.491  18.355   7.135  0.00  0.00     0.089 A 
HETATM   42  C   UNK N   1      31.288  17.297   8.530  0.00  0.00     0.107 A 
HETATM   43  N   UNK N   1      32.564  15.446   7.495  0.00  0.00    -0.390 N 
HETATM   44  N   UNK N   1      27.697  15.006   2.282  0.00  0.00    -0.414 N 
HETATM   45  O   UNK N   1      29.095  14.477   2.980  0.00  0.00    -0.389 OA
HETATM   46  O   UNK N   1      27.366  19.238   7.131  0.00  0.00    -0.390 OA
HETATM   47  O   UNK N   1      29.190  18.091   7.484  0.00  0.00    -0.265 OA
HETATM   48  O   UNK N   1      31.304  14.830   5.532  0.00  0.00    -0.388 OA
HETATM   49  O   UNK N   1      31.081  17.894   9.060  0.00  0.00    -0.385 OA
HETATM   50  O   UNK N   1      35.484  15.710  10.623  0.00  0.00    -0.394 OA
HETATM   51  O   UNK N   1      28.283  18.953   7.665  0.00  0.00    -0.383 OA
HETATM   52  O   UNK N   1      33.810  15.887   9.231  0.00  0.00    -0.385 OA
HETATM   53  O   UNK N   1      28.519  16.064   4.364  0.00  0.00    -0.354 OA
HETATM   54  O   UNK N   1      27.943  17.650   5.747  0.00  0.00    -0.354 OA
HETATM   55  O   UNK N   1      30.315  17.209   7.487  0.00  0.00    -0.312 OA
HETATM   56  O   UNK N   1      32.412  16.416   8.534  0.00  0.00    -0.356 OA
HETATM   57  O   UNK N   1      29.067  16.769   5.752  0.00  0.00    -0.355 OA
HETATM   58  O   UNK N   1      29.643  15.182   4.367  0.00  0.00    -0.350 OA
HETATM   59  H   UNK N   1      33.089  14.683   7.069  0.00  0.00     0.156 HD
HETATM   60  H   UNK N   1      28.773  14.062   2.164  0.00  0.00     0.210 HD
HETATM   61  H   UNK N   1      27.689  19.652   7.947  0.00  0.00     0.210 HD
HETATM   62  H   UNK N   1      31.548  14.128   4.910  0.00  0.00     0.210 HD
HETATM   63  H   UNK N   1      31.644  18.079   9.827  0.00  0.00     0.210 HD
ENDROOT
TORSDOF 10
ENDMDL
MODEL 8
REMARK VINA RESULT:     -15.8     11.323     13.765
REMARK  10 active torsions:
REMARK  status: ('A' for Active; 'I' for Inactive)
REMARK    1  A    between atoms: C_28  and  N_44 
REMARK    2  A    between atoms: C_32  and  N_43 
REMARK    3  A    between atoms: C_34  and  O_57 
REMARK    4  A    between atoms: C_41  and  C_35 
REMARK    5  A    between atoms: C_40  and  C_36 
REMARK    6  A    between atoms: C_42  and  C_37 
REMARK    7  A    between atoms: C_37  and  O_56 
REMARK    8  A    between atoms: O_55  and  C_38 
REMARK    9  A    between atoms: O_53  and  C_39 
REMARK   10  A    between atoms: C_39  and  O_58 
ROOT
HETATM    1  C   UNK N   1      29.230  20.264  -7.706  0.00  0.00     0.007 A 
HETATM    2  C   UNK N   1      29.937  23.496  -3.757  0.00  0.00     0.012 A 
HETATM    3  C   UNK N   1      25.646  24.911  -6.732  0.00  0.00     0.040 A 
HETATM    4  C   UNK N   1      29.063  22.367  -5.778  0.00  0.00     0.015 A 
HETATM    5  C   UNK N   1      26.979  24.314  -5.965  0.00  0.00     0.015 A 
HETATM    6  C   UNK N   1      27.219  22.848  -7.183  0.00  0.00     0.023 A 
HETATM    7  C   UNK N   1      25.438  23.483  -8.370  0.00  0.00     0.042 A 
HETATM    8  C   UNK N   1      28.441  24.743  -4.042  0.00  0.00     0.049 A 
HETATM    9  C   UNK N   1      27.790  21.722  -7.723  0.00  0.00     0.049 A 
HETATM   10  C   UNK N   1      30.456  20.529  -6.189  0.00  0.00     0.051 A 
HETATM   11  C   UNK N   1      25.771  27.391  -4.130  0.00  0.00     0.143 A 
HETATM   12  C   UNK N   1      24.813  27.312  -5.188  0.00  0.00     0.143 A 
HETATM   13  C   UNK N   1      34.187  18.550  -4.348  0.00  0.00     0.201 A 
HETATM   14  C   UNK N   1      27.620  21.046  -8.572  0.00  0.00     0.202 A 
HETATM   15  C   UNK N   1      28.854  20.939  -7.416  0.00  0.00     0.031 A 
HETATM   16  C   UNK N   1      33.146  19.523  -4.442  0.00  0.00     0.193 A 
HETATM   17  C   UNK N   1      32.771  20.198  -4.151  0.00  0.00     0.193 A 
HETATM   18  C   UNK N   1      25.563  25.962  -5.768  0.00  0.00     0.059 A 
HETATM   19  C   UNK N   1      28.979  23.418  -4.815  0.00  0.00     0.046 A 
HETATM   20  C   UNK N   1      27.438  22.588  -7.219  0.00  0.00     0.101 A 
HETATM   21  C   UNK N   1      31.729  21.172  -4.244  0.00  0.00     0.221 A 
HETATM   22  C   UNK N   1      29.646  23.120  -4.431  0.00  0.00     0.007 A 
HETATM   23  C   UNK N   1      25.938  25.288  -6.058  0.00  0.00     0.122 A 
HETATM   24  C   UNK N   1      29.729  22.068  -5.395  0.00  0.00     0.036 A 
HETATM   25  C   UNK N   1      27.646  24.015  -5.582  0.00  0.00     0.043 A 
HETATM   26  C   UNK N   1      27.730  22.964  -6.545  0.00  0.00     0.111 A 
HETATM   27  C   UNK N   1      26.105  23.185  -7.986  0.00  0.00     0.152 A 
HETATM   28  C   UNK N   1      25.854  26.339  -5.094  0.00  0.00     0.114 A 
HETATM   29  C   UNK N   1      29.146  21.315  -6.743  0.00  0.00     0.168 A 
HETATM   30  C   UNK N   1      31.062  21.471  -4.628  0.00  0.00     0.241 A 
HETATM   31  C   UNK N   1      27.063  23.262  -6.929  0.00  0.00     0.263 A 
HETATM   32  C   UNK N   1      30.021  22.445  -4.721  0.00  0.00     0.089 A 
HETATM   33  C   UNK N   1      26.521  26.041  -4.710  0.00  0.00     0.195 A 
HETATM   34  C   UNK N   1      28.021  23.340  -5.871  0.00  0.00     0.144 A 
HETATM   35  C   UNK N   1      26.480  22.509  -8.277  0.00  0.00     0.181 A 
HETATM   36  C   UNK N   1      27.938  24.391  -4.908  0.00  0.00     0.165 A 
HETATM   37  C   UNK N   1      30.105  21.393  -5.685  0.00  0.00     0.166 A 
HETATM   38  C   UNK N   1      28.105  22.288  -6.836  0.00  0.00     0.265 A 
HETATM   39  C   UNK N   1      26.896  25.365  -5.001  0.00  0.00     0.291 A 
HETATM   40  C   UNK N   1      28.604  24.093  -4.524  0.00  0.00     0.081 A 
HETATM   41  C   UNK N   1      27.146  22.211  -7.893  0.00  0.00     0.089 A 
HETATM   42  C   UNK N   1      29.813  21.017  -6.359  0.00  0.00     0.107 A 
HETATM   43  N   UNK N   1      30.688  22.146  -4.337  0.00  0.00    -0.390 N 
HETATM   44  N   UNK N   1      25.479  27.014  -4.804  0.00  0.00    -0.414 N 
HETATM   45  O   UNK N   1      26.812  26.417  -4.037  0.00  0.00    -0.389 OA
HETATM   46  O   UNK N   1      26.188  22.133  -8.950  0.00  0.00    -0.390 OA
HETATM   47  O   UNK N   1      27.813  21.912  -7.510  0.00  0.00    -0.265 OA
HETATM   48  O   UNK N   1      29.214  24.021  -3.973  0.00  0.00    -0.388 OA
HETATM   49  O   UNK N   1      29.745  20.471  -6.973  0.00  0.00    -0.385 OA
HETATM   50  O   UNK N   1      33.813  19.225  -4.058  0.00  0.00    -0.394 OA
HETATM   51  O   UNK N   1      27.078  21.665  -8.507  0.00  0.00    -0.383 OA
HETATM   52  O   UNK N   1      32.104  20.497  -4.535  0.00  0.00    -0.385 OA
HETATM   53  O   UNK N   1      26.604  24.989  -5.675  0.00  0.00    -0.354 OA
HETATM   54  O   UNK N   1      26.396  23.561  -7.312  0.00  0.00    -0.354 OA
HETATM   55  O   UNK N   1      28.771  21.990  -6.452  0.00  0.00    -0.312 OA
HETATM   56  O   UNK N   1      30.771  21.094  -5.302  0.00  0.00    -0.356 OA
HETATM   57  O   UNK N   1      27.355  23.639  -6.255  0.00  0.00    -0.355 OA
HETATM   58  O   UNK N   1      27.562  25.067  -4.617  0.00  0.00    -0.350 OA
HETATM   59  H   UNK N   1      31.048  22.611  -3.504  0.00  0.00     0.156 HD
HETATM   60  H   UNK N   1      26.371  27.211  -3.695  0.00  0.00     0.210 HD
HETATM   61  H   UNK N   1      26.629  21.339  -9.292  0.00  0.00     0.210 HD
HETATM   62  H   UNK N   1      29.295  24.662  -3.251  0.00  0.00     0.210 HD
HETATM   63  H   UNK N   1      30.381  19.743  -7.049  0.00  0.00     0.210 HD
ENDROOT
TORSDOF 10
ENDMDL
MODEL 9
REMARK VINA RESULT:     -15.8     10.699     13.877
REMARK  10 active torsions:
REMARK  status: ('A' for Active; 'I' for Inactive)
REMARK    1  A    between atoms: C_28  and  N_44 
REMARK    2  A    between atoms: C_32  and  N_43 
REMARK    3  A    between atoms: C_34  and  O_57 
REMARK    4  A    between atoms: C_41  and  C_35 
REMARK    5  A    between atoms: C_40  and  C_36 
REMARK    6  A    between atoms: C_42  and  C_37 
REMARK    7  A    between atoms: C_37  and  O_56 
REMARK    8  A    between atoms: O_55  and  C_38 
REMARK    9  A    between atoms: O_53  and  C_39 
REMARK   10  A    between atoms: C_39  and  O_58 
ROOT
HETATM    1  C   UNK N   1      36.400  14.697  15.690  0.00  0.00     0.007 A 
HETATM    2  C   UNK N   1      36.137   9.684  14.528  0.00  0.00     0.012 A 
HETATM    3  C   UNK N   1      34.525  10.629  19.605  0.00  0.00     0.040 A 
HETATM    4  C   UNK N   1      36.025  11.864  15.696  0.00  0.00     0.015 A 
HETATM    5  C   UNK N   1      35.050  10.556  18.042  0.00  0.00     0.015 A 
HETATM    6  C   UNK N   1      35.351  12.447  17.889  0.00  0.00     0.023 A 
HETATM    7  C   UNK N   1      34.675  12.773  19.991  0.00  0.00     0.042 A 
HETATM    8  C   UNK N   1      35.460   8.958  16.228  0.00  0.00     0.049 A 
HETATM    9  C   UNK N   1      35.709  13.635  17.302  0.00  0.00     0.049 A 
HETATM   10  C   UNK N   1      36.758  13.490  14.177  0.00  0.00     0.051 A 
HETATM   11  C   UNK N   1      34.187   7.069  19.222  0.00  0.00     0.143 A 
HETATM   12  C   UNK N   1      33.888   7.833  20.392  0.00  0.00     0.143 A 
HETATM   13  C   UNK N   1      38.275  13.716   9.832  0.00  0.00     0.201 A 
HETATM   14  C   UNK N   1      35.757  14.700  17.571  0.00  0.00     0.202 A 
HETATM   15  C   UNK N   1      36.175  14.007  16.082  0.00  0.00     0.031 A 
HETATM   16  C   UNK N   1      37.787  13.063  11.005  0.00  0.00     0.193 A 
HETATM   17  C   UNK N   1      37.562  12.372  11.397  0.00  0.00     0.193 A 
HETATM   18  C   UNK N   1      34.338   9.213  19.608  0.00  0.00     0.059 A 
HETATM   19  C   UNK N   1      35.837  10.448  15.698  0.00  0.00     0.046 A 
HETATM   20  C   UNK N   1      35.462  12.663  17.647  0.00  0.00     0.101 A 
HETATM   21  C   UNK N   1      37.075  11.718  12.570  0.00  0.00     0.221 A 
HETATM   22  C   UNK N   1      36.100  10.411  14.917  0.00  0.00     0.007 A 
HETATM   23  C   UNK N   1      34.562   9.902  19.216  0.00  0.00     0.122 A 
HETATM   24  C   UNK N   1      36.287  11.828  14.915  0.00  0.00     0.036 A 
HETATM   25  C   UNK N   1      35.313  10.520  17.261  0.00  0.00     0.043 A 
HETATM   26  C   UNK N   1      35.500  11.936  17.258  0.00  0.00     0.111 A 
HETATM   27  C   UNK N   1      34.937  12.736  19.210  0.00  0.00     0.152 A 
HETATM   28  C   UNK N   1      34.375   8.486  19.219  0.00  0.00     0.114 A 
HETATM   29  C   UNK N   1      36.212  13.281  15.693  0.00  0.00     0.168 A 
HETATM   30  C   UNK N   1      36.812  11.755  13.352  0.00  0.00     0.241 A 
HETATM   31  C   UNK N   1      35.238  11.973  18.039  0.00  0.00     0.263 A 
HETATM   32  C   UNK N   1      36.325  11.101  14.526  0.00  0.00     0.089 A 
HETATM   33  C   UNK N   1      34.637   8.449  18.437  0.00  0.00     0.195 A 
HETATM   34  C   UNK N   1      35.537  11.210  16.869  0.00  0.00     0.144 A 
HETATM   35  C   UNK N   1      35.163  13.426  18.818  0.00  0.00     0.181 A 
HETATM   36  C   UNK N   1      35.350   9.794  16.872  0.00  0.00     0.165 A 
HETATM   37  C   UNK N   1      36.512  12.518  14.522  0.00  0.00     0.166 A 
HETATM   38  C   UNK N   1      35.725  12.627  16.866  0.00  0.00     0.265 A 
HETATM   39  C   UNK N   1      34.863   9.140  18.045  0.00  0.00     0.291 A 
HETATM   40  C   UNK N   1      35.612   9.757  16.091  0.00  0.00     0.081 A 
HETATM   41  C   UNK N   1      35.425  13.389  18.037  0.00  0.00     0.089 A 
HETATM   42  C   UNK N   1      36.475  13.244  14.911  0.00  0.00     0.107 A 
HETATM   43  N   UNK N   1      36.587  11.065  13.744  0.00  0.00    -0.390 N 
HETATM   44  N   UNK N   1      34.150   7.796  19.611  0.00  0.00    -0.414 N 
HETATM   45  O   UNK N   1      34.675   7.723  18.048  0.00  0.00    -0.389 OA
HETATM   46  O   UNK N   1      35.125  14.153  19.207  0.00  0.00    -0.390 OA
HETATM   47  O   UNK N   1      35.688  13.354  17.255  0.00  0.00    -0.265 OA
HETATM   48  O   UNK N   1      35.822   9.443  15.357  0.00  0.00    -0.388 OA
HETATM   49  O   UNK N   1      36.536  14.055  15.045  0.00  0.00    -0.385 OA
HETATM   50  O   UNK N   1      38.050  13.026  10.223  0.00  0.00    -0.394 OA
HETATM   51  O   UNK N   1      35.486  14.201  18.171  0.00  0.00    -0.383 OA
HETATM   52  O   UNK N   1      37.300  12.409  12.179  0.00  0.00    -0.385 OA
HETATM   53  O   UNK N   1      34.825   9.867  18.434  0.00  0.00    -0.354 OA
HETATM   54  O   UNK N   1      34.975  12.009  18.821  0.00  0.00    -0.354 OA
HETATM   55  O   UNK N   1      35.987  12.590  16.085  0.00  0.00    -0.312 OA
HETATM   56  O   UNK N   1      36.775  12.481  13.741  0.00  0.00    -0.356 OA
HETATM   57  O   UNK N   1      35.275  11.247  17.650  0.00  0.00    -0.355 OA
HETATM   58  O   UNK N   1      35.125   9.103  17.264  0.00  0.00    -0.350 OA
HETATM   59  H   UNK N   1      36.634  10.166  13.263  0.00  0.00     0.156 HD
HETATM   60  H   UNK N   1      34.410   6.912  18.509  0.00  0.00     0.210 HD
HETATM   61  H   UNK N   1      35.390  14.964  18.746  0.00  0.00     0.210 HD
HETATM   62  H   UNK N   1      35.750   8.489  15.199  0.00  0.00     0.210 HD
HETATM   63  H   UNK N   1      36.854  14.641  14.341  0.00  0.00     0.210 HD
ENDROOT
TORSDOF 10
ENDMDL
