MODEL 1
REMARK VINA RESULT:      -7.7      0.000      0.000
REMARK  17 active torsions:
REMARK  status: ('A' for Active; 'I' for Inactive)
REMARK    1  A    between atoms: C_3  and  O_19 
REMARK    2  A    between atoms: C_10  and  O_39 
REMARK    3  A    between atoms: C_11  and  O_21 
REMARK    4  A    between atoms: C_12  and  O_43 
REMARK    5  A    between atoms: C_16  and  C_24 
REMARK    6  A    between atoms: C_17  and  O_23 
REMARK    7  A    between atoms: C_18  and  N_40 
REMARK       I    between atoms: C_24  and  N_25 
REMARK    8  A    between atoms: N_25  and  C_27 
REMARK    9  A    between atoms: C_27  and  N_28 
REMARK   10  A    between atoms: N_28  and  C_29 
REMARK   11  A    between atoms: C_29  and  C_30 
REMARK   12  A    between atoms: C_30  and  C_31 
REMARK   13  A    between atoms: C_31  and  C_32 
REMARK   14  A    between atoms: C_32  and  C_33 
REMARK   15  A    between atoms: C_33  and  N_34 
REMARK   16  A    between atoms: C_33  and  C_35 
REMARK   17  A    between atoms: C_35  and  O_37 
ROOT
HETATM    1  C   UNK N   1      25.088  15.606   2.778  0.00  0.00     0.003 A 
HETATM    2  C   UNK N   1      24.655  16.613   3.630  0.00  0.00     0.037 A 
HETATM    3  C   UNK N   1      25.545  17.221   4.511  0.00  0.00     0.080 A 
HETATM    4  C   UNK N   1      26.903  16.807   4.558  0.00  0.00     0.057 A 
HETATM    5  C   UNK N   1      27.348  15.793   3.677  0.00  0.00    -0.007 A 
HETATM    6  C   UNK N   1      26.424  15.216   2.786  0.00  0.00     0.011 A 
HETATM    7  C   UNK N   1      27.838  17.440   5.507  0.00  0.00     0.194 C 
HETATM    8  C   UNK N   1      29.221  16.941   5.643  0.00  0.00     0.033 C 
HETATM    9  C   UNK N   1      29.789  15.906   4.670  0.00  0.00     0.065 C 
HETATM   10  C   UNK N   1      28.804  15.358   3.569  0.00  0.00     0.090 C 
HETATM   11  C   UNK N   1      30.008  17.348   6.676  0.00  0.00     0.097 C 
HETATM   12  C   UNK N   1      31.426  16.854   6.710  0.00  0.00     0.177 C 
HETATM   13  C   UNK N   1      31.509  15.330   6.537  0.00  0.00     0.075 C 
HETATM   14  C   UNK N   1      30.452  14.800   5.527  0.00  0.00     0.024 C 
HETATM   15  C   UNK N   1      32.238  17.168   7.934  0.00  0.00     0.208 C 
HETATM   16  C   UNK N   1      33.697  16.902   7.820  0.00  0.00     0.112 C 
HETATM   17  C   UNK N   1      34.067  15.939   6.906  0.00  0.00     0.096 C 
HETATM   18  C   UNK N   1      33.018  14.956   6.284  0.00  0.00     0.286 C 
HETATM   19  O   UNK N   1      27.464  18.380   6.194  0.00  0.00    -0.287 OA
HETATM   20  O   UNK N   1      31.753  17.722   8.908  0.00  0.00    -0.288 OA
HETATM   21  C   UNK N   1      28.865  13.828   3.495  0.00  0.00     0.052 C 
ENDROOT
BRANCH  16  22
HETATM   22  C   UNK N   1      34.600  17.839   8.622  0.00  0.00     0.259 C 
HETATM   23  N   UNK N   1      35.205  17.558   9.813  0.00  0.00    -0.341 N 
HETATM   24  H   UNK N   1      35.763  18.283  10.178  0.00  0.00     0.164 HD
HETATM   25  O   UNK N   1      34.758  18.967   8.188  0.00  0.00    -0.267 OA
BRANCH  23  26
HETATM   26  C   UNK N   1      35.154  16.367  10.620  0.00  0.00     0.241 C 
BRANCH  26  27
HETATM   27  N   UNK N   1      36.442  15.678  10.673  0.00  0.00    -0.406 N 
HETATM   28  H   UNK N   1      37.200  15.932  11.308  0.00  0.00     0.154 HD
BRANCH  27  29
HETATM   29  C   UNK N   1      36.512  14.591   9.719  0.00  0.00     0.115 C 
BRANCH  29  30
HETATM   30  C   UNK N   1      37.503  13.571  10.245  0.00  0.00     0.019 C 
BRANCH  30  31
HETATM   31  C   UNK N   1      36.832  12.219  10.440  0.00  0.00     0.004 C 
BRANCH  31  32
HETATM   32  C   UNK N   1      36.213  12.084  11.830  0.00  0.00     0.035 C 
BRANCH  32  33
HETATM   33  C   UNK N   1      36.982  12.893  12.877  0.00  0.00     0.173 C 
BRANCH  33  34
HETATM   34  N   UNK N   1      37.649  11.992  13.799  0.00  0.00    -0.418 N 
HETATM   35  H   UNK N   1      37.431  11.875  14.789  0.00  0.00     0.150 HD
HETATM   36  H   UNK N   1      38.407  11.422  13.422  0.00  0.00     0.150 HD
ENDBRANCH  33  34
BRANCH  33  37
HETATM   37  C   UNK N   1      36.148  13.896  13.642  0.00  0.00     0.163 C 
HETATM   38  O   UNK N   1      35.089  13.577  14.158  0.00  0.00    -0.648 OA
BRANCH  37  39
HETATM   39  O   UNK N   1      36.580  15.166  13.755  0.00  0.00    -0.775 OA
HETATM   40  H   UNK N   1      37.126  15.524  14.425  0.00  0.00     0.167 HD
ENDBRANCH  37  39
ENDBRANCH  33  37
ENDBRANCH  32  33
ENDBRANCH  31  32
ENDBRANCH  30  31
ENDBRANCH  29  30
ENDBRANCH  27  29
ENDBRANCH  26  27
ENDBRANCH  23  26
ENDBRANCH  16  22
BRANCH  17  41
HETATM   41  O   UNK N   1      35.338  15.846   6.491  0.00  0.00    -0.362 OA
HETATM   42  H   UNK N   1      36.124  16.148   6.903  0.00  0.00     0.217 HD
ENDBRANCH  17  41
BRANCH  12  43
HETATM   43  O   UNK N   1      32.055  17.489   5.629  0.00  0.00    -0.374 OA
HETATM   44  H   UNK N   1      32.279  18.048   4.869  0.00  0.00     0.211 HD
ENDBRANCH  12  43
BRANCH  18  45
HETATM   45  N   UNK N   1      33.391  14.280   5.013  0.00  0.00     0.091 NA
HETATM   46  C   UNK N   1      34.563  13.441   5.203  0.00  0.00     0.310 C 
HETATM   47  C   UNK N   1      33.871  15.251   4.039  0.00  0.00     0.310 C 
ENDBRANCH  18  45
BRANCH  11  48
HETATM   48  O   UNK N   1      29.549  18.190   7.625  0.00  0.00    -0.361 OA
HETATM   49  H   UNK N   1      28.908  18.844   7.423  0.00  0.00     0.217 HD
ENDBRANCH  11  48
BRANCH  10  50
HETATM   50  O   UNK N   1      29.250  15.826   2.329  0.00  0.00    -0.385 OA
HETATM   51  H   UNK N   1      29.893  16.029   1.632  0.00  0.00     0.211 HD
ENDBRANCH  10  50
BRANCH   3  52
HETATM   52  O   UNK N   1      25.087  18.206   5.305  0.00  0.00    -0.360 OA
HETATM   53  H   UNK N   1      24.949  19.064   4.956  0.00  0.00     0.217 HD
ENDBRANCH   3  52
TORSDOF 17
ENDMDL
MODEL 2
REMARK VINA RESULT:      -7.6      2.934      9.742
REMARK  17 active torsions:
REMARK  status: ('A' for Active; 'I' for Inactive)
REMARK    1  A    between atoms: C_3  and  O_19 
REMARK    2  A    between atoms: C_10  and  O_39 
REMARK    3  A    between atoms: C_11  and  O_21 
REMARK    4  A    between atoms: C_12  and  O_43 
REMARK    5  A    between atoms: C_16  and  C_24 
REMARK    6  A    between atoms: C_17  and  O_23 
REMARK    7  A    between atoms: C_18  and  N_40 
REMARK       I    between atoms: C_24  and  N_25 
REMARK    8  A    between atoms: N_25  and  C_27 
REMARK    9  A    between atoms: C_27  and  N_28 
REMARK   10  A    between atoms: N_28  and  C_29 
REMARK   11  A    between atoms: C_29  and  C_30 
REMARK   12  A    between atoms: C_30  and  C_31 
REMARK   13  A    between atoms: C_31  and  C_32 
REMARK   14  A    between atoms: C_32  and  C_33 
REMARK   15  A    between atoms: C_33  and  N_34 
REMARK   16  A    between atoms: C_33  and  C_35 
REMARK   17  A    between atoms: C_35  and  O_37 
ROOT
HETATM    1  C   UNK N   1      35.840   8.915  14.783  0.00  0.00     0.003 A 
HETATM    2  C   UNK N   1      36.026   9.945  15.695  0.00  0.00     0.037 A 
HETATM    3  C   UNK N   1      35.856  11.270  15.304  0.00  0.00     0.080 A 
HETATM    4  C   UNK N   1      35.505  11.583  13.964  0.00  0.00     0.057 A 
HETATM    5  C   UNK N   1      35.299  10.532  13.040  0.00  0.00    -0.007 A 
HETATM    6  C   UNK N   1      35.460   9.204  13.476  0.00  0.00     0.011 A 
HETATM    7  C   UNK N   1      35.345  12.990  13.550  0.00  0.00     0.194 C 
HETATM    8  C   UNK N   1      35.093  13.331  12.135  0.00  0.00     0.033 C 
HETATM    9  C   UNK N   1      34.781  12.246  11.102  0.00  0.00     0.065 C 
HETATM   10  C   UNK N   1      34.812  10.756  11.613  0.00  0.00     0.090 C 
HETATM   11  C   UNK N   1      35.189  14.618  11.703  0.00  0.00     0.097 C 
HETATM   12  C   UNK N   1      34.849  14.899  10.267  0.00  0.00     0.177 C 
HETATM   13  C   UNK N   1      35.581  13.951   9.306  0.00  0.00     0.075 C 
HETATM   14  C   UNK N   1      35.696  12.511   9.882  0.00  0.00     0.024 C 
HETATM   15  C   UNK N   1      35.116  16.284   9.753  0.00  0.00     0.208 C 
HETATM   16  C   UNK N   1      34.525  16.600   8.424  0.00  0.00     0.112 C 
HETATM   17  C   UNK N   1      34.302  15.524   7.591  0.00  0.00     0.096 C 
HETATM   18  C   UNK N   1      34.937  14.121   7.879  0.00  0.00     0.286 C 
HETATM   19  O   UNK N   1      35.431  13.882  14.381  0.00  0.00    -0.287 OA
HETATM   20  O   UNK N   1      35.671  17.133  10.434  0.00  0.00    -0.288 OA
HETATM   21  C   UNK N   1      35.624   9.869  10.662  0.00  0.00     0.052 C 
ENDROOT
BRANCH  16  22
HETATM   22  C   UNK N   1      34.105  18.055   8.221  0.00  0.00     0.259 C 
HETATM   23  N   UNK N   1      32.840  18.556   8.336  0.00  0.00    -0.341 N 
HETATM   24  H   UNK N   1      32.761  19.525   8.180  0.00  0.00     0.164 HD
HETATM   25  O   UNK N   1      34.967  18.841   7.871  0.00  0.00    -0.267 OA
BRANCH  23  26
HETATM   26  C   UNK N   1      31.604  17.888   8.649  0.00  0.00     0.241 C 
BRANCH  26  27
HETATM   27  N   UNK N   1      30.506  18.828   8.868  0.00  0.00    -0.406 N 
HETATM   28  H   UNK N   1      30.459  19.759   8.453  0.00  0.00     0.154 HD
BRANCH  27  29
HETATM   29  C   UNK N   1      29.491  18.277   9.743  0.00  0.00     0.115 C 
BRANCH  29  30
HETATM   30  C   UNK N   1      28.237  18.055   8.921  0.00  0.00     0.019 C 
BRANCH  30  31
HETATM   31  C   UNK N   1      28.359  18.726   7.561  0.00  0.00     0.004 C 
BRANCH  31  32
HETATM   32  C   UNK N   1      28.270  17.718   6.417  0.00  0.00     0.035 C 
BRANCH  32  33
HETATM   33  C   UNK N   1      29.323  17.983   5.340  0.00  0.00     0.173 C 
BRANCH  33  34
HETATM   34  N   UNK N   1      28.714  17.896   4.025  0.00  0.00    -0.418 N 
HETATM   35  H   UNK N   1      28.805  18.579   3.273  0.00  0.00     0.150 HD
HETATM   36  H   UNK N   1      28.139  17.074   3.835  0.00  0.00     0.150 HD
ENDBRANCH  33  34
BRANCH  33  37
HETATM   37  C   UNK N   1      30.541  17.089   5.408  0.00  0.00     0.163 C 
HETATM   38  O   UNK N   1      31.620  17.453   4.971  0.00  0.00    -0.648 OA
BRANCH  37  39
HETATM   39  O   UNK N   1      30.432  15.866   5.960  0.00  0.00    -0.775 OA
HETATM   40  H   UNK N   1      30.726  15.594   6.807  0.00  0.00     0.167 HD
ENDBRANCH  37  39
ENDBRANCH  33  37
ENDBRANCH  32  33
ENDBRANCH  31  32
ENDBRANCH  30  31
ENDBRANCH  29  30
ENDBRANCH  27  29
ENDBRANCH  26  27
ENDBRANCH  23  26
ENDBRANCH  16  22
BRANCH  17  41
HETATM   41  O   UNK N   1      33.494  15.642   6.529  0.00  0.00    -0.362 OA
HETATM   42  H   UNK N   1      32.775  16.227   6.388  0.00  0.00     0.217 HD
ENDBRANCH  17  41
BRANCH  12  43
HETATM   43  O   UNK N   1      33.465  14.690  10.177  0.00  0.00    -0.374 OA
HETATM   44  H   UNK N   1      32.509  14.646  10.335  0.00  0.00     0.211 HD
ENDBRANCH  12  43
BRANCH  18  45
HETATM   45  N   UNK N   1      34.305  12.944   7.227  0.00  0.00     0.091 NA
HETATM   46  C   UNK N   1      34.752  12.820   5.848  0.00  0.00     0.310 C 
HETATM   47  C   UNK N   1      32.874  13.157   7.060  0.00  0.00     0.310 C 
ENDBRANCH  18  45
BRANCH  11  48
HETATM   48  O   UNK N   1      35.548  15.618  12.535  0.00  0.00    -0.361 OA
HETATM   49  H   UNK N   1      35.977  15.439  13.349  0.00  0.00     0.217 HD
ENDBRANCH  11  48
BRANCH  10  50
HETATM   50  O   UNK N   1      33.502  10.267  11.578  0.00  0.00    -0.385 OA
HETATM   51  H   UNK N   1      32.801   9.603  11.486  0.00  0.00     0.211 HD
ENDBRANCH  10  50
BRANCH   3  52
HETATM   52  O   UNK N   1      36.026  12.236  16.226  0.00  0.00    -0.360 OA
HETATM   53  H   UNK N   1      35.289  12.723  16.537  0.00  0.00     0.217 HD
ENDBRANCH   3  52
TORSDOF 17
ENDMDL
MODEL 3
REMARK VINA RESULT:      -7.6      2.804      5.564
REMARK  17 active torsions:
REMARK  status: ('A' for Active; 'I' for Inactive)
REMARK    1  A    between atoms: C_3  and  O_19 
REMARK    2  A    between atoms: C_10  and  O_39 
REMARK    3  A    between atoms: C_11  and  O_21 
REMARK    4  A    between atoms: C_12  and  O_43 
REMARK    5  A    between atoms: C_16  and  C_24 
REMARK    6  A    between atoms: C_17  and  O_23 
REMARK    7  A    between atoms: C_18  and  N_40 
REMARK       I    between atoms: C_24  and  N_25 
REMARK    8  A    between atoms: N_25  and  C_27 
REMARK    9  A    between atoms: C_27  and  N_28 
REMARK   10  A    between atoms: N_28  and  C_29 
REMARK   11  A    between atoms: C_29  and  C_30 
REMARK   12  A    between atoms: C_30  and  C_31 
REMARK   13  A    between atoms: C_31  and  C_32 
REMARK   14  A    between atoms: C_32  and  C_33 
REMARK   15  A    between atoms: C_33  and  N_34 
REMARK   16  A    between atoms: C_33  and  C_35 
REMARK   17  A    between atoms: C_35  and  O_37 
ROOT
HETATM    1  C   UNK N   1      30.409  17.579   4.578  0.00  0.00     0.003 A 
HETATM    2  C   UNK N   1      29.522  17.626   5.646  0.00  0.00     0.037 A 
HETATM    3  C   UNK N   1      29.935  17.249   6.920  0.00  0.00     0.080 A 
HETATM    4  C   UNK N   1      31.264  16.798   7.139  0.00  0.00     0.057 A 
HETATM    5  C   UNK N   1      32.172  16.767   6.054  0.00  0.00    -0.007 A 
HETATM    6  C   UNK N   1      31.724  17.175   4.784  0.00  0.00     0.011 A 
HETATM    7  C   UNK N   1      31.692  16.380   8.488  0.00  0.00     0.194 C 
HETATM    8  C   UNK N   1      33.035  15.803   8.704  0.00  0.00     0.033 C 
HETATM    9  C   UNK N   1      34.089  15.815   7.595  0.00  0.00     0.065 C 
HETATM   10  C   UNK N   1      33.645  16.408   6.205  0.00  0.00     0.090 C 
HETATM   11  C   UNK N   1      33.347  15.194   9.879  0.00  0.00     0.097 C 
HETATM   12  C   UNK N   1      34.753  14.693  10.054  0.00  0.00     0.177 C 
HETATM   13  C   UNK N   1      35.212  13.838   8.864  0.00  0.00     0.075 C 
HETATM   14  C   UNK N   1      34.668  14.382   7.512  0.00  0.00     0.024 C 
HETATM   15  C   UNK N   1      35.048  13.876  11.278  0.00  0.00     0.208 C 
HETATM   16  C   UNK N   1      36.490  13.630  11.552  0.00  0.00     0.112 C 
HETATM   17  C   UNK N   1      37.328  13.665  10.458  0.00  0.00     0.096 C 
HETATM   18  C   UNK N   1      36.766  13.623   8.996  0.00  0.00     0.286 C 
HETATM   19  O   UNK N   1      30.928  16.503   9.434  0.00  0.00    -0.287 OA
HETATM   20  O   UNK N   1      34.173  13.546  12.063  0.00  0.00    -0.288 OA
HETATM   21  C   UNK N   1      34.053  15.476   5.058  0.00  0.00     0.052 C 
ENDROOT
BRANCH  16  22
HETATM   22  C   UNK N   1      36.870  13.523  13.029  0.00  0.00     0.259 C 
HETATM   23  N   UNK N   1      37.336  12.409  13.667  0.00  0.00    -0.341 N 
HETATM   24  H   UNK N   1      37.540  12.532  14.622  0.00  0.00     0.164 HD
HETATM   25  O   UNK N   1      36.692  14.508  13.723  0.00  0.00    -0.267 OA
BRANCH  23  26
HETATM   26  C   UNK N   1      37.575  11.083  13.159  0.00  0.00     0.241 C 
BRANCH  26  27
HETATM   27  N   UNK N   1      36.937  10.054  13.978  0.00  0.00    -0.406 N 
HETATM   28  H   UNK N   1      36.064   9.586  13.731  0.00  0.00     0.154 HD
BRANCH  27  29
HETATM   29  C   UNK N   1      37.695   9.775  15.181  0.00  0.00     0.115 C 
BRANCH  29  30
HETATM   30  C   UNK N   1      36.756   9.141  16.187  0.00  0.00     0.019 C 
BRANCH  30  31
HETATM   31  C   UNK N   1      36.684   9.976  17.457  0.00  0.00     0.004 C 
BRANCH  31  32
HETATM   32  C   UNK N   1      35.345  10.700  17.589  0.00  0.00     0.035 C 
BRANCH  32  33
HETATM   33  C   UNK N   1      35.342  12.033  16.838  0.00  0.00     0.173 C 
BRANCH  33  34
HETATM   34  N   UNK N   1      34.875  13.090  17.718  0.00  0.00    -0.418 N 
HETATM   35  H   UNK N   1      35.166  13.241  18.684  0.00  0.00     0.150 HD
HETATM   36  H   UNK N   1      34.193  13.744  17.333  0.00  0.00     0.150 HD
ENDBRANCH  33  34
BRANCH  33  37
HETATM   37  C   UNK N   1      34.544  12.037  15.554  0.00  0.00     0.163 C 
HETATM   38  O   UNK N   1      34.043  11.013  15.116  0.00  0.00    -0.648 OA
BRANCH  37  39
HETATM   39  O   UNK N   1      34.385  13.189  14.878  0.00  0.00    -0.775 OA
HETATM   40  H   UNK N   1      34.939  13.944  14.899  0.00  0.00     0.167 HD
ENDBRANCH  37  39
ENDBRANCH  33  37
ENDBRANCH  32  33
ENDBRANCH  31  32
ENDBRANCH  30  31
ENDBRANCH  29  30
ENDBRANCH  27  29
ENDBRANCH  26  27
ENDBRANCH  23  26
ENDBRANCH  16  22
BRANCH  17  41
HETATM   41  O   UNK N   1      38.653  13.780  10.619  0.00  0.00    -0.362 OA
HETATM   42  H   UNK N   1      39.334  13.787   9.974  0.00  0.00     0.217 HD
ENDBRANCH  17  41
BRANCH  12  43
HETATM   43  O   UNK N   1      35.540  15.852  10.136  0.00  0.00    -0.374 OA
HETATM   44  H   UNK N   1      36.225  16.511  10.329  0.00  0.00     0.211 HD
ENDBRANCH  12  43
BRANCH  18  45
HETATM   45  N   UNK N   1      37.658  14.113   7.912  0.00  0.00     0.091 NA
HETATM   46  C   UNK N   1      37.164  13.688   6.611  0.00  0.00     0.310 C 
HETATM   47  C   UNK N   1      38.952  13.447   7.973  0.00  0.00     0.310 C 
ENDBRANCH  18  45
BRANCH  11  48
HETATM   48  O   UNK N   1      32.442  15.064  10.871  0.00  0.00    -0.361 OA
HETATM   49  H   UNK N   1      31.643  14.591  10.738  0.00  0.00     0.217 HD
ENDBRANCH  11  48
BRANCH  10  50
HETATM   50  O   UNK N   1      34.349  17.601   6.007  0.00  0.00    -0.385 OA
HETATM   51  H   UNK N   1      34.932  18.340   6.240  0.00  0.00     0.211 HD
ENDBRANCH  10  50
BRANCH   3  52
HETATM   52  O   UNK N   1      29.050  17.329   7.930  0.00  0.00    -0.360 OA
HETATM   53  H   UNK N   1      29.325  17.631   8.773  0.00  0.00     0.217 HD
ENDBRANCH   3  52
TORSDOF 17
ENDMDL
MODEL 4
REMARK VINA RESULT:      -7.6      2.891      5.882
REMARK  17 active torsions:
REMARK  status: ('A' for Active; 'I' for Inactive)
REMARK    1  A    between atoms: C_3  and  O_19 
REMARK    2  A    between atoms: C_10  and  O_39 
REMARK    3  A    between atoms: C_11  and  O_21 
REMARK    4  A    between atoms: C_12  and  O_43 
REMARK    5  A    between atoms: C_16  and  C_24 
REMARK    6  A    between atoms: C_17  and  O_23 
REMARK    7  A    between atoms: C_18  and  N_40 
REMARK       I    between atoms: C_24  and  N_25 
REMARK    8  A    between atoms: N_25  and  C_27 
REMARK    9  A    between atoms: C_27  and  N_28 
REMARK   10  A    between atoms: N_28  and  C_29 
REMARK   11  A    between atoms: C_29  and  C_30 
REMARK   12  A    between atoms: C_30  and  C_31 
REMARK   13  A    between atoms: C_31  and  C_32 
REMARK   14  A    between atoms: C_32  and  C_33 
REMARK   15  A    between atoms: C_33  and  N_34 
REMARK   16  A    between atoms: C_33  and  C_35 
REMARK   17  A    between atoms: C_35  and  O_37 
ROOT
HETATM    1  C   UNK N   1      30.658  17.414   4.542  0.00  0.00     0.003 A 
HETATM    2  C   UNK N   1      29.770  17.545   5.603  0.00  0.00     0.037 A 
HETATM    3  C   UNK N   1      30.161  17.199   6.893  0.00  0.00     0.080 A 
HETATM    4  C   UNK N   1      31.465  16.693   7.137  0.00  0.00     0.057 A 
HETATM    5  C   UNK N   1      32.374  16.576   6.058  0.00  0.00    -0.007 A 
HETATM    6  C   UNK N   1      31.951  16.956   4.771  0.00  0.00     0.011 A 
HETATM    7  C   UNK N   1      31.868  16.308   8.503  0.00  0.00     0.194 C 
HETATM    8  C   UNK N   1      33.180  15.677   8.748  0.00  0.00     0.033 C 
HETATM    9  C   UNK N   1      34.238  15.594   7.645  0.00  0.00     0.065 C 
HETATM   10  C   UNK N   1      33.828  16.153   6.231  0.00  0.00     0.090 C 
HETATM   11  C   UNK N   1      33.459  15.099   9.948  0.00  0.00     0.097 C 
HETATM   12  C   UNK N   1      34.838  14.539  10.149  0.00  0.00     0.177 C 
HETATM   13  C   UNK N   1      35.260  13.617   8.996  0.00  0.00     0.075 C 
HETATM   14  C   UNK N   1      34.748  14.133   7.621  0.00  0.00     0.024 C 
HETATM   15  C   UNK N   1      35.090  13.757  11.406  0.00  0.00     0.208 C 
HETATM   16  C   UNK N   1      36.517  13.453  11.697  0.00  0.00     0.112 C 
HETATM   17  C   UNK N   1      37.359  13.404  10.607  0.00  0.00     0.096 C 
HETATM   18  C   UNK N   1      36.802  13.332   9.145  0.00  0.00     0.286 C 
HETATM   19  O   UNK N   1      31.107  16.505   9.439  0.00  0.00    -0.287 OA
HETATM   20  O   UNK N   1      34.197  13.500  12.199  0.00  0.00    -0.288 OA
HETATM   21  C   UNK N   1      34.195  15.159   5.123  0.00  0.00     0.052 C 
ENDROOT
BRANCH  16  22
HETATM   22  C   UNK N   1      36.886  13.385  13.179  0.00  0.00     0.259 C 
HETATM   23  N   UNK N   1      37.367  12.294  13.845  0.00  0.00    -0.341 N 
HETATM   24  H   UNK N   1      37.560  12.442  14.799  0.00  0.00     0.164 HD
HETATM   25  O   UNK N   1      36.685  14.382  13.849  0.00  0.00    -0.267 OA
BRANCH  23  26
HETATM   26  C   UNK N   1      37.634  10.962  13.369  0.00  0.00     0.241 C 
BRANCH  26  27
HETATM   27  N   UNK N   1      36.660   9.991  13.864  0.00  0.00    -0.406 N 
HETATM   28  H   UNK N   1      36.769   9.463  14.731  0.00  0.00     0.154 HD
BRANCH  27  29
HETATM   29  C   UNK N   1      35.521   9.871  12.977  0.00  0.00     0.115 C 
BRANCH  29  30
HETATM   30  C   UNK N   1      36.030   9.415  11.624  0.00  0.00     0.019 C 
BRANCH  30  31
HETATM   31  C   UNK N   1      35.272  10.110  10.502  0.00  0.00     0.004 C 
BRANCH  31  32
HETATM   32  C   UNK N   1      33.788  10.266  10.828  0.00  0.00     0.035 C 
BRANCH  32  33
HETATM   33  C   UNK N   1      32.933  10.355   9.562  0.00  0.00     0.173 C 
BRANCH  33  34
HETATM   34  N   UNK N   1      32.282  11.652   9.501  0.00  0.00    -0.418 N 
HETATM   35  H   UNK N   1      31.277  11.822   9.533  0.00  0.00     0.150 HD
HETATM   36  H   UNK N   1      32.887  12.470   9.418  0.00  0.00     0.150 HD
ENDBRANCH  33  34
BRANCH  33  37
HETATM   37  C   UNK N   1      31.909   9.253   9.408  0.00  0.00     0.163 C 
HETATM   38  O   UNK N   1      31.866   8.315  10.188  0.00  0.00    -0.648 OA
BRANCH  37  39
HETATM   39  O   UNK N   1      31.030   9.305   8.391  0.00  0.00    -0.775 OA
HETATM   40  H   UNK N   1      30.605  10.063   8.042  0.00  0.00     0.167 HD
ENDBRANCH  37  39
ENDBRANCH  33  37
ENDBRANCH  32  33
ENDBRANCH  31  32
ENDBRANCH  30  31
ENDBRANCH  29  30
ENDBRANCH  27  29
ENDBRANCH  26  27
ENDBRANCH  23  26
ENDBRANCH  16  22
BRANCH  17  41
HETATM   41  O   UNK N   1      38.688  13.462  10.770  0.00  0.00    -0.362 OA
HETATM   42  H   UNK N   1      39.334  13.909  10.258  0.00  0.00     0.217 HD
ENDBRANCH  17  41
BRANCH  12  43
HETATM   43  O   UNK N   1      35.680  15.661  10.191  0.00  0.00    -0.374 OA
HETATM   44  H   UNK N   1      36.150  16.474  10.431  0.00  0.00     0.211 HD
ENDBRANCH  12  43
BRANCH  18  45
HETATM   45  N   UNK N   1      37.720  13.736   8.047  0.00  0.00     0.091 NA
HETATM   46  C   UNK N   1      38.027  12.600   7.192  0.00  0.00     0.310 C 
HETATM   47  C   UNK N   1      39.033  14.077   8.577  0.00  0.00     0.310 C 
ENDBRANCH  18  45
BRANCH  11  48
HETATM   48  O   UNK N   1      32.545  15.051  10.940  0.00  0.00    -0.361 OA
HETATM   49  H   UNK N   1      31.959  15.767  11.090  0.00  0.00     0.217 HD
ENDBRANCH  11  48
BRANCH  10  50
HETATM   50  O   UNK N   1      34.589  17.302   5.991  0.00  0.00    -0.385 OA
HETATM   51  H   UNK N   1      34.870  18.102   5.520  0.00  0.00     0.211 HD
ENDBRANCH  10  50
BRANCH   3  52
HETATM   52  O   UNK N   1      29.276  17.360   7.894  0.00  0.00    -0.360 OA
HETATM   53  H   UNK N   1      29.392  16.899   8.701  0.00  0.00     0.217 HD
ENDBRANCH   3  52
TORSDOF 17
ENDMDL
MODEL 5
REMARK VINA RESULT:      -7.5      2.946     10.185
REMARK  17 active torsions:
REMARK  status: ('A' for Active; 'I' for Inactive)
REMARK    1  A    between atoms: C_3  and  O_19 
REMARK    2  A    between atoms: C_10  and  O_39 
REMARK    3  A    between atoms: C_11  and  O_21 
REMARK    4  A    between atoms: C_12  and  O_43 
REMARK    5  A    between atoms: C_16  and  C_24 
REMARK    6  A    between atoms: C_17  and  O_23 
REMARK    7  A    between atoms: C_18  and  N_40 
REMARK       I    between atoms: C_24  and  N_25 
REMARK    8  A    between atoms: N_25  and  C_27 
REMARK    9  A    between atoms: C_27  and  N_28 
REMARK   10  A    between atoms: N_28  and  C_29 
REMARK   11  A    between atoms: C_29  and  C_30 
REMARK   12  A    between atoms: C_30  and  C_31 
REMARK   13  A    between atoms: C_31  and  C_32 
REMARK   14  A    between atoms: C_32  and  C_33 
REMARK   15  A    between atoms: C_33  and  N_34 
REMARK   16  A    between atoms: C_33  and  C_35 
REMARK   17  A    between atoms: C_35  and  O_37 
ROOT
HETATM    1  C   UNK N   1      35.691   8.828  14.695  0.00  0.00     0.003 A 
HETATM    2  C   UNK N   1      35.858   9.840  15.631  0.00  0.00     0.037 A 
HETATM    3  C   UNK N   1      35.716  11.174  15.258  0.00  0.00     0.080 A 
HETATM    4  C   UNK N   1      35.413  11.514  13.913  0.00  0.00     0.057 A 
HETATM    5  C   UNK N   1      35.226  10.482  12.963  0.00  0.00    -0.007 A 
HETATM    6  C   UNK N   1      35.358   9.145  13.381  0.00  0.00     0.011 A 
HETATM    7  C   UNK N   1      35.283  12.930  13.518  0.00  0.00     0.194 C 
HETATM    8  C   UNK N   1      35.082  13.298  12.102  0.00  0.00     0.033 C 
HETATM    9  C   UNK N   1      34.793  12.235  11.040  0.00  0.00     0.065 C 
HETATM   10  C   UNK N   1      34.790  10.736  11.525  0.00  0.00     0.090 C 
HETATM   11  C   UNK N   1      35.207  14.591  11.697  0.00  0.00     0.097 C 
HETATM   12  C   UNK N   1      34.918  14.901  10.255  0.00  0.00     0.177 C 
HETATM   13  C   UNK N   1      35.671  13.962   9.302  0.00  0.00     0.075 C 
HETATM   14  C   UNK N   1      35.750  12.511   9.856  0.00  0.00     0.024 C 
HETATM   15  C   UNK N   1      35.218  16.292   9.775  0.00  0.00     0.208 C 
HETATM   16  C   UNK N   1      34.675  16.637   8.433  0.00  0.00     0.112 C 
HETATM   17  C   UNK N   1      34.468  15.579   7.574  0.00  0.00     0.096 C 
HETATM   18  C   UNK N   1      35.077  14.164   7.858  0.00  0.00     0.286 C 
HETATM   19  O   UNK N   1      35.351  13.807  14.367  0.00  0.00    -0.287 OA
HETATM   20  O   UNK N   1      35.759  17.122  10.489  0.00  0.00    -0.288 OA
HETATM   21  C   UNK N   1      35.623   9.857  10.587  0.00  0.00     0.052 C 
ENDROOT
BRANCH  16  22
HETATM   22  C   UNK N   1      34.277  18.101   8.242  0.00  0.00     0.259 C 
HETATM   23  N   UNK N   1      33.007  18.601   8.239  0.00  0.00    -0.341 N 
HETATM   24  H   UNK N   1      32.945  19.576   8.113  0.00  0.00     0.164 HD
HETATM   25  O   UNK N   1      35.172  18.897   8.018  0.00  0.00    -0.267 OA
BRANCH  23  26
HETATM   26  C   UNK N   1      31.745  17.926   8.390  0.00  0.00     0.241 C 
BRANCH  26  27
HETATM   27  N   UNK N   1      31.258  17.372   7.128  0.00  0.00    -0.406 N 
HETATM   28  H   UNK N   1      31.773  17.417   6.248  0.00  0.00     0.154 HD
BRANCH  27  29
HETATM   29  C   UNK N   1      29.959  16.749   7.279  0.00  0.00     0.115 C 
BRANCH  29  30
HETATM   30  C   UNK N   1      28.906  17.832   7.157  0.00  0.00     0.019 C 
BRANCH  30  31
HETATM   31  C   UNK N   1      28.380  17.914   5.731  0.00  0.00     0.004 C 
BRANCH  31  32
HETATM   32  C   UNK N   1      28.124  19.357   5.299  0.00  0.00     0.035 C 
BRANCH  32  33
HETATM   33  C   UNK N   1      26.689  19.795   5.599  0.00  0.00     0.173 C 
BRANCH  33  34
HETATM   34  N   UNK N   1      26.039  20.217   4.371  0.00  0.00    -0.418 N 
HETATM   35  H   UNK N   1      26.481  20.303   3.456  0.00  0.00     0.150 HD
HETATM   36  H   UNK N   1      25.047  20.449   4.429  0.00  0.00     0.150 HD
ENDBRANCH  33  34
BRANCH  33  37
HETATM   37  C   UNK N   1      26.562  20.873   6.651  0.00  0.00     0.163 C 
HETATM   38  O   UNK N   1      26.657  22.055   6.363  0.00  0.00    -0.648 OA
BRANCH  37  39
HETATM   39  O   UNK N   1      26.340  20.523   7.932  0.00  0.00    -0.775 OA
HETATM   40  H   UNK N   1      26.535  21.021   8.701  0.00  0.00     0.167 HD
ENDBRANCH  37  39
ENDBRANCH  33  37
ENDBRANCH  32  33
ENDBRANCH  31  32
ENDBRANCH  30  31
ENDBRANCH  29  30
ENDBRANCH  27  29
ENDBRANCH  26  27
ENDBRANCH  23  26
ENDBRANCH  16  22
BRANCH  17  41
HETATM   41  O   UNK N   1      33.697  15.725   6.488  0.00  0.00    -0.362 OA
HETATM   42  H   UNK N   1      33.301  16.499   6.136  0.00  0.00     0.217 HD
ENDBRANCH  17  41
BRANCH  12  43
HETATM   43  O   UNK N   1      33.535  14.710  10.116  0.00  0.00    -0.374 OA
HETATM   44  H   UNK N   1      32.588  14.560  10.261  0.00  0.00     0.211 HD
ENDBRANCH  12  43
BRANCH  18  45
HETATM   45  N   UNK N   1      34.454  13.006   7.164  0.00  0.00     0.091 NA
HETATM   46  C   UNK N   1      34.881  12.950   5.775  0.00  0.00     0.310 C 
HETATM   47  C   UNK N   1      33.017  13.201   7.029  0.00  0.00     0.310 C 
ENDBRANCH  18  45
BRANCH  11  48
HETATM   48  O   UNK N   1      35.549  15.572  12.557  0.00  0.00    -0.361 OA
HETATM   49  H   UNK N   1      35.867  16.398  12.247  0.00  0.00     0.217 HD
ENDBRANCH  11  48
BRANCH  10  50
HETATM   50  O   UNK N   1      33.476  10.263  11.438  0.00  0.00    -0.385 OA
HETATM   51  H   UNK N   1      32.705   9.727  11.679  0.00  0.00     0.211 HD
ENDBRANCH  10  50
BRANCH   3  52
HETATM   52  O   UNK N   1      35.866  12.121  16.202  0.00  0.00    -0.360 OA
HETATM   53  H   UNK N   1      35.865  13.027  15.962  0.00  0.00     0.217 HD
ENDBRANCH   3  52
TORSDOF 17
ENDMDL
MODEL 6
REMARK VINA RESULT:      -7.5      3.394     10.129
REMARK  17 active torsions:
REMARK  status: ('A' for Active; 'I' for Inactive)
REMARK    1  A    between atoms: C_3  and  O_19 
REMARK    2  A    between atoms: C_10  and  O_39 
REMARK    3  A    between atoms: C_11  and  O_21 
REMARK    4  A    between atoms: C_12  and  O_43 
REMARK    5  A    between atoms: C_16  and  C_24 
REMARK    6  A    between atoms: C_17  and  O_23 
REMARK    7  A    between atoms: C_18  and  N_40 
REMARK       I    between atoms: C_24  and  N_25 
REMARK    8  A    between atoms: N_25  and  C_27 
REMARK    9  A    between atoms: C_27  and  N_28 
REMARK   10  A    between atoms: N_28  and  C_29 
REMARK   11  A    between atoms: C_29  and  C_30 
REMARK   12  A    between atoms: C_30  and  C_31 
REMARK   13  A    between atoms: C_31  and  C_32 
REMARK   14  A    between atoms: C_32  and  C_33 
REMARK   15  A    between atoms: C_33  and  N_34 
REMARK   16  A    between atoms: C_33  and  C_35 
REMARK   17  A    between atoms: C_35  and  O_37 
ROOT
HETATM    1  C   UNK N   1      35.096  10.434  17.791  0.00  0.00     0.003 A 
HETATM    2  C   UNK N   1      35.493  11.722  18.124  0.00  0.00     0.037 A 
HETATM    3  C   UNK N   1      35.611  12.698  17.139  0.00  0.00     0.080 A 
HETATM    4  C   UNK N   1      35.342  12.383  15.781  0.00  0.00     0.057 A 
HETATM    5  C   UNK N   1      34.920  11.075  15.444  0.00  0.00    -0.007 A 
HETATM    6  C   UNK N   1      34.792  10.120  16.469  0.00  0.00     0.011 A 
HETATM    7  C   UNK N   1      35.488  13.416  14.737  0.00  0.00     0.194 C 
HETATM    8  C   UNK N   1      35.320  13.071  13.311  0.00  0.00     0.033 C 
HETATM    9  C   UNK N   1      34.790  11.701  12.885  0.00  0.00     0.065 C 
HETATM   10  C   UNK N   1      34.499  10.667  14.037  0.00  0.00     0.090 C 
HETATM   11  C   UNK N   1      35.691  13.946  12.337  0.00  0.00     0.097 C 
HETATM   12  C   UNK N   1      35.426  13.555  10.911  0.00  0.00     0.177 C 
HETATM   13  C   UNK N   1      35.943  12.144  10.594  0.00  0.00     0.075 C 
HETATM   14  C   UNK N   1      35.745  11.169  11.790  0.00  0.00     0.024 C 
HETATM   15  C   UNK N   1      35.985  14.443   9.836  0.00  0.00     0.208 C 
HETATM   16  C   UNK N   1      35.481  14.180   8.461  0.00  0.00     0.112 C 
HETATM   17  C   UNK N   1      35.038  12.898   8.215  0.00  0.00     0.096 C 
HETATM   18  C   UNK N   1      35.357  11.719   9.196  0.00  0.00     0.286 C 
HETATM   19  O   UNK N   1      35.758  14.566  15.053  0.00  0.00    -0.287 OA
HETATM   20  O   UNK N   1      36.705  15.396  10.092  0.00  0.00    -0.288 OA
HETATM   21  C   UNK N   1      35.108   9.299  13.710  0.00  0.00     0.052 C 
ENDROOT
BRANCH  16  22
HETATM   22  C   UNK N   1      35.382  15.405   7.552  0.00  0.00     0.259 C 
HETATM   23  N   UNK N   1      34.797  16.599   7.863  0.00  0.00    -0.341 N 
HETATM   24  H   UNK N   1      34.839  17.279   7.153  0.00  0.00     0.164 HD
HETATM   25  O   UNK N   1      35.819  15.295   6.420  0.00  0.00    -0.267 OA
BRANCH  23  26
HETATM   26  C   UNK N   1      34.128  17.016   9.067  0.00  0.00     0.241 C 
BRANCH  26  27
HETATM   27  N   UNK N   1      32.686  16.782   9.009  0.00  0.00    -0.406 N 
HETATM   28  H   UNK N   1      32.220  15.980   9.434  0.00  0.00     0.154 HD
BRANCH  27  29
HETATM   29  C   UNK N   1      31.999  17.828   8.279  0.00  0.00     0.115 C 
BRANCH  29  30
HETATM   30  C   UNK N   1      30.512  17.671   8.528  0.00  0.00     0.019 C 
BRANCH  30  31
HETATM   31  C   UNK N   1      29.819  17.094   7.302  0.00  0.00     0.004 C 
BRANCH  31  32
HETATM   32  C   UNK N   1      30.738  17.073   6.083  0.00  0.00     0.035 C 
BRANCH  32  33
HETATM   33  C   UNK N   1      30.847  15.674   5.475  0.00  0.00     0.173 C 
BRANCH  33  34
HETATM   34  N   UNK N   1      29.569  14.992   5.581  0.00  0.00    -0.418 N 
HETATM   35  H   UNK N   1      29.001  14.906   6.424  0.00  0.00     0.150 HD
HETATM   36  H   UNK N   1      29.203  14.560   4.731  0.00  0.00     0.150 HD
ENDBRANCH  33  34
BRANCH  33  37
HETATM   37  C   UNK N   1      31.944  14.812   6.058  0.00  0.00     0.163 C 
HETATM   38  O   UNK N   1      31.859  14.354   7.186  0.00  0.00    -0.648 OA
BRANCH  37  39
HETATM   39  O   UNK N   1      33.038  14.546   5.320  0.00  0.00    -0.775 OA
HETATM   40  H   UNK N   1      33.079  14.388   4.397  0.00  0.00     0.167 HD
ENDBRANCH  37  39
ENDBRANCH  33  37
ENDBRANCH  32  33
ENDBRANCH  31  32
ENDBRANCH  30  31
ENDBRANCH  29  30
ENDBRANCH  27  29
ENDBRANCH  26  27
ENDBRANCH  23  26
ENDBRANCH  16  22
BRANCH  17  41
HETATM   41  O   UNK N   1      34.278  12.635   7.142  0.00  0.00    -0.362 OA
HETATM   42  H   UNK N   1      33.463  13.016   6.881  0.00  0.00     0.217 HD
ENDBRANCH  17  41
BRANCH  12  43
HETATM   43  O   UNK N   1      34.029  13.588  10.782  0.00  0.00    -0.374 OA
HETATM   44  H   UNK N   1      33.108  13.458  10.511  0.00  0.00     0.211 HD
ENDBRANCH  12  43
BRANCH  18  45
HETATM   45  N   UNK N   1      34.492  10.513   9.112  0.00  0.00     0.091 NA
HETATM   46  C   UNK N   1      34.924   9.646   8.028  0.00  0.00     0.310 C 
HETATM   47  C   UNK N   1      33.146  10.876   8.688  0.00  0.00     0.310 C 
ENDBRANCH  18  45
BRANCH  11  48
HETATM   48  O   UNK N   1      36.251  15.137  12.632  0.00  0.00    -0.361 OA
HETATM   49  H   UNK N   1      35.721  15.889  12.812  0.00  0.00     0.217 HD
ENDBRANCH  11  48
BRANCH  10  50
HETATM   50  O   UNK N   1      33.115  10.474  14.097  0.00  0.00    -0.385 OA
HETATM   51  H   UNK N   1      32.208  10.620  14.407  0.00  0.00     0.211 HD
ENDBRANCH  10  50
BRANCH   3  52
HETATM   52  O   UNK N   1      35.980  13.939  17.509  0.00  0.00    -0.360 OA
HETATM   53  H   UNK N   1      35.514  14.383  18.189  0.00  0.00     0.217 HD
ENDBRANCH   3  52
TORSDOF 17
ENDMDL
MODEL 7
REMARK VINA RESULT:      -7.5      2.124      3.042
REMARK  17 active torsions:
REMARK  status: ('A' for Active; 'I' for Inactive)
REMARK    1  A    between atoms: C_3  and  O_19 
REMARK    2  A    between atoms: C_10  and  O_39 
REMARK    3  A    between atoms: C_11  and  O_21 
REMARK    4  A    between atoms: C_12  and  O_43 
REMARK    5  A    between atoms: C_16  and  C_24 
REMARK    6  A    between atoms: C_17  and  O_23 
REMARK    7  A    between atoms: C_18  and  N_40 
REMARK       I    between atoms: C_24  and  N_25 
REMARK    8  A    between atoms: N_25  and  C_27 
REMARK    9  A    between atoms: C_27  and  N_28 
REMARK   10  A    between atoms: N_28  and  C_29 
REMARK   11  A    between atoms: C_29  and  C_30 
REMARK   12  A    between atoms: C_30  and  C_31 
REMARK   13  A    between atoms: C_31  and  C_32 
REMARK   14  A    between atoms: C_32  and  C_33 
REMARK   15  A    between atoms: C_33  and  N_34 
REMARK   16  A    between atoms: C_33  and  C_35 
REMARK   17  A    between atoms: C_35  and  O_37 
ROOT
HETATM    1  C   UNK N   1      26.928  18.940   4.291  0.00  0.00     0.003 A 
HETATM    2  C   UNK N   1      26.750  19.426   5.579  0.00  0.00     0.037 A 
HETATM    3  C   UNK N   1      27.656  19.102   6.585  0.00  0.00     0.080 A 
HETATM    4  C   UNK N   1      28.763  18.257   6.307  0.00  0.00     0.057 A 
HETATM    5  C   UNK N   1      28.954  17.776   4.990  0.00  0.00    -0.007 A 
HETATM    6  C   UNK N   1      28.029  18.142   3.995  0.00  0.00     0.011 A 
HETATM    7  C   UNK N   1      29.710  17.899   7.381  0.00  0.00     0.194 C 
HETATM    8  C   UNK N   1      30.798  16.933   7.131  0.00  0.00     0.033 C 
HETATM    9  C   UNK N   1      31.108  16.438   5.716  0.00  0.00     0.065 C 
HETATM   10  C   UNK N   1      30.168  16.959   4.565  0.00  0.00     0.090 C 
HETATM   11  C   UNK N   1      31.516  16.413   8.163  0.00  0.00     0.097 C 
HETATM   12  C   UNK N   1      32.653  15.490   7.827  0.00  0.00     0.177 C 
HETATM   13  C   UNK N   1      32.227  14.382   6.854  0.00  0.00     0.075 C 
HETATM   14  C   UNK N   1      31.213  14.895   5.793  0.00  0.00     0.024 C 
HETATM   15  C   UNK N   1      33.334  14.790   8.968  0.00  0.00     0.208 C 
HETATM   16  C   UNK N   1      34.611  14.105   8.628  0.00  0.00     0.112 C 
HETATM   17  C   UNK N   1      34.753  13.707   7.316  0.00  0.00     0.096 C 
HETATM   18  C   UNK N   1      33.532  13.668   6.336  0.00  0.00     0.286 C 
HETATM   19  O   UNK N   1      29.589  18.399   8.490  0.00  0.00    -0.287 OA
HETATM   20  O   UNK N   1      32.934  14.884  10.118  0.00  0.00    -0.288 OA
HETATM   21  C   UNK N   1      29.704  15.801   3.673  0.00  0.00     0.052 C 
ENDROOT
BRANCH  16  22
HETATM   22  C   UNK N   1      35.654  14.069   9.745  0.00  0.00     0.259 C 
HETATM   23  N   UNK N   1      35.984  12.989  10.511  0.00  0.00    -0.341 N 
HETATM   24  H   UNK N   1      36.691  13.151  11.177  0.00  0.00     0.164 HD
HETATM   25  O   UNK N   1      36.214  15.117  10.018  0.00  0.00    -0.267 OA
BRANCH  23  26
HETATM   26  C   UNK N   1      35.459  11.649  10.498  0.00  0.00     0.241 C 
BRANCH  26  27
HETATM   27  N   UNK N   1      35.746  10.928  11.737  0.00  0.00    -0.406 N 
HETATM   28  H   UNK N   1      35.033  10.491  12.322  0.00  0.00     0.154 HD
BRANCH  27  29
HETATM   29  C   UNK N   1      37.163  10.909  12.033  0.00  0.00     0.115 C 
BRANCH  29  30
HETATM   30  C   UNK N   1      37.351  10.230  13.375  0.00  0.00     0.019 C 
BRANCH  30  31
HETATM   31  C   UNK N   1      37.861  11.219  14.413  0.00  0.00     0.004 C 
BRANCH  31  32
HETATM   32  C   UNK N   1      36.719  11.958  15.107  0.00  0.00     0.035 C 
BRANCH  32  33
HETATM   33  C   UNK N   1      36.821  13.473  14.916  0.00  0.00     0.173 C 
BRANCH  33  34
HETATM   34  N   UNK N   1      36.443  14.149  16.144  0.00  0.00    -0.418 N 
HETATM   35  H   UNK N   1      36.730  13.887  17.088  0.00  0.00     0.150 HD
HETATM   36  H   UNK N   1      35.834  14.963  16.056  0.00  0.00     0.150 HD
ENDBRANCH  33  34
BRANCH  33  37
HETATM   37  C   UNK N   1      36.023  14.021  13.755  0.00  0.00     0.163 C 
HETATM   38  O   UNK N   1      34.939  13.550  13.452  0.00  0.00    -0.648 OA
BRANCH  37  39
HETATM   39  O   UNK N   1      36.518  15.048  13.039  0.00  0.00    -0.775 OA
HETATM   40  H   UNK N   1      37.388  15.394  13.064  0.00  0.00     0.167 HD
ENDBRANCH  37  39
ENDBRANCH  33  37
ENDBRANCH  32  33
ENDBRANCH  31  32
ENDBRANCH  30  31
ENDBRANCH  29  30
ENDBRANCH  27  29
ENDBRANCH  26  27
ENDBRANCH  23  26
ENDBRANCH  16  22
BRANCH  17  41
HETATM   41  O   UNK N   1      35.960  13.383   6.830  0.00  0.00    -0.362 OA
HETATM   42  H   UNK N   1      36.259  13.362   5.942  0.00  0.00     0.217 HD
ENDBRANCH  17  41
BRANCH  12  43
HETATM   43  O   UNK N   1      33.615  16.311   7.219  0.00  0.00    -0.374 OA
HETATM   44  H   UNK N   1      34.278  16.704   6.630  0.00  0.00     0.211 HD
ENDBRANCH  12  43
BRANCH  18  45
HETATM   45  N   UNK N   1      33.830  13.677   4.879  0.00  0.00     0.091 NA
HETATM   46  C   UNK N   1      34.190  12.344   4.421  0.00  0.00     0.310 C 
HETATM   47  C   UNK N   1      35.050  14.426   4.610  0.00  0.00     0.310 C 
ENDBRANCH  18  45
BRANCH  11  48
HETATM   48  O   UNK N   1      31.243  16.731   9.446  0.00  0.00    -0.361 OA
HETATM   49  H   UNK N   1      31.917  16.732  10.097  0.00  0.00     0.217 HD
ENDBRANCH  11  48
BRANCH  10  50
HETATM   50  O   UNK N   1      30.925  17.803   3.746  0.00  0.00    -0.385 OA
HETATM   51  H   UNK N   1      31.153  18.292   2.941  0.00  0.00     0.211 HD
ENDBRANCH  10  50
BRANCH   3  52
HETATM   52  O   UNK N   1      27.457  19.611   7.815  0.00  0.00    -0.360 OA
HETATM   53  H   UNK N   1      26.914  19.157   8.428  0.00  0.00     0.217 HD
ENDBRANCH   3  52
TORSDOF 17
ENDMDL
MODEL 8
REMARK VINA RESULT:      -7.4      2.550      3.641
REMARK  17 active torsions:
REMARK  status: ('A' for Active; 'I' for Inactive)
REMARK    1  A    between atoms: C_3  and  O_19 
REMARK    2  A    between atoms: C_10  and  O_39 
REMARK    3  A    between atoms: C_11  and  O_21 
REMARK    4  A    between atoms: C_12  and  O_43 
REMARK    5  A    between atoms: C_16  and  C_24 
REMARK    6  A    between atoms: C_17  and  O_23 
REMARK    7  A    between atoms: C_18  and  N_40 
REMARK       I    between atoms: C_24  and  N_25 
REMARK    8  A    between atoms: N_25  and  C_27 
REMARK    9  A    between atoms: C_27  and  N_28 
REMARK   10  A    between atoms: N_28  and  C_29 
REMARK   11  A    between atoms: C_29  and  C_30 
REMARK   12  A    between atoms: C_30  and  C_31 
REMARK   13  A    between atoms: C_31  and  C_32 
REMARK   14  A    between atoms: C_32  and  C_33 
REMARK   15  A    between atoms: C_33  and  N_34 
REMARK   16  A    between atoms: C_33  and  C_35 
REMARK   17  A    between atoms: C_35  and  O_37 
ROOT
HETATM    1  C   UNK N   1      27.075  18.328   4.212  0.00  0.00     0.003 A 
HETATM    2  C   UNK N   1      26.872  18.870   5.474  0.00  0.00     0.037 A 
HETATM    3  C   UNK N   1      27.799  18.656   6.490  0.00  0.00     0.080 A 
HETATM    4  C   UNK N   1      28.956  17.868   6.250  0.00  0.00     0.057 A 
HETATM    5  C   UNK N   1      29.171  17.330   4.959  0.00  0.00    -0.007 A 
HETATM    6  C   UNK N   1      28.222  17.584   3.952  0.00  0.00     0.011 A 
HETATM    7  C   UNK N   1      29.927  17.627   7.335  0.00  0.00     0.194 C 
HETATM    8  C   UNK N   1      31.072  16.718   7.129  0.00  0.00     0.033 C 
HETATM    9  C   UNK N   1      31.407  16.168   5.740  0.00  0.00     0.065 C 
HETATM   10  C   UNK N   1      30.432  16.567   4.570  0.00  0.00     0.090 C 
HETATM   11  C   UNK N   1      31.824  16.299   8.182  0.00  0.00     0.097 C 
HETATM   12  C   UNK N   1      33.015  15.431   7.889  0.00  0.00     0.177 C 
HETATM   13  C   UNK N   1      32.655  14.248   6.978  0.00  0.00     0.075 C 
HETATM   14  C   UNK N   1      31.607  14.641   5.899  0.00  0.00     0.024 C 
HETATM   15  C   UNK N   1      33.742  14.836   9.060  0.00  0.00     0.208 C 
HETATM   16  C   UNK N   1      35.057  14.214   8.749  0.00  0.00     0.112 C 
HETATM   17  C   UNK N   1      35.220  13.757   7.459  0.00  0.00     0.096 C 
HETATM   18  C   UNK N   1      34.000  13.590   6.490  0.00  0.00     0.286 C 
HETATM   19  O   UNK N   1      29.779  18.177   8.417  0.00  0.00    -0.287 OA
HETATM   20  O   UNK N   1      33.341  14.967  10.206  0.00  0.00    -0.288 OA
HETATM   21  C   UNK N   1      30.038  15.338   3.743  0.00  0.00     0.052 C 
ENDROOT
BRANCH  16  22
HETATM   22  C   UNK N   1      36.105  14.303   9.858  0.00  0.00     0.259 C 
HETATM   23  N   UNK N   1      36.215  13.473  10.937  0.00  0.00    -0.341 N 
HETATM   24  H   UNK N   1      36.963  13.677  11.544  0.00  0.00     0.164 HD
HETATM   25  O   UNK N   1      36.890  15.233   9.810  0.00  0.00    -0.267 OA
BRANCH  23  26
HETATM   26  C   UNK N   1      35.407  12.346  11.325  0.00  0.00     0.241 C 
BRANCH  26  27
HETATM   27  N   UNK N   1      34.477  12.676  12.403  0.00  0.00    -0.406 N 
HETATM   28  H   UNK N   1      33.584  13.150  12.263  0.00  0.00     0.154 HD
BRANCH  27  29
HETATM   29  C   UNK N   1      34.975  12.248  13.694  0.00  0.00     0.115 C 
BRANCH  29  30
HETATM   30  C   UNK N   1      35.537  13.463  14.404  0.00  0.00     0.019 C 
BRANCH  30  31
HETATM   31  C   UNK N   1      35.882  13.131  15.849  0.00  0.00     0.004 C 
BRANCH  31  32
HETATM   32  C   UNK N   1      34.648  13.149  16.748  0.00  0.00     0.035 C 
BRANCH  32  33
HETATM   33  C   UNK N   1      34.969  13.677  18.147  0.00  0.00     0.173 C 
BRANCH  33  34
HETATM   34  N   UNK N   1      36.015  14.681  18.064  0.00  0.00    -0.418 N 
HETATM   35  H   UNK N   1      35.881  15.692  18.090  0.00  0.00     0.150 HD
HETATM   36  H   UNK N   1      36.974  14.344  17.973  0.00  0.00     0.150 HD
ENDBRANCH  33  34
BRANCH  33  37
HETATM   37  C   UNK N   1      35.348  12.615  19.155  0.00  0.00     0.163 C 
HETATM   38  O   UNK N   1      35.301  11.428  18.873  0.00  0.00    -0.648 OA
BRANCH  37  39
HETATM   39  O   UNK N   1      35.744  12.984  20.388  0.00  0.00    -0.775 OA
HETATM   40  H   UNK N   1      35.439  13.713  20.890  0.00  0.00     0.167 HD
ENDBRANCH  37  39
ENDBRANCH  33  37
ENDBRANCH  32  33
ENDBRANCH  31  32
ENDBRANCH  30  31
ENDBRANCH  29  30
ENDBRANCH  27  29
ENDBRANCH  26  27
ENDBRANCH  23  26
ENDBRANCH  16  22
BRANCH  17  41
HETATM   41  O   UNK N   1      36.443  13.482   6.982  0.00  0.00    -0.362 OA
HETATM   42  H   UNK N   1      36.993  13.994   6.422  0.00  0.00     0.217 HD
ENDBRANCH  17  41
BRANCH  12  43
HETATM   43  O   UNK N   1      33.922  16.276   7.231  0.00  0.00    -0.374 OA
HETATM   44  H   UNK N   1      34.497  17.009   6.960  0.00  0.00     0.211 HD
ENDBRANCH  12  43
BRANCH  18  45
HETATM   45  N   UNK N   1      34.292  13.540   5.033  0.00  0.00     0.091 NA
HETATM   46  C   UNK N   1      34.930  12.281   4.681  0.00  0.00     0.310 C 
HETATM   47  C   UNK N   1      35.323  14.507   4.683  0.00  0.00     0.310 C 
ENDBRANCH  18  45
BRANCH  11  48
HETATM   48  O   UNK N   1      31.536  16.668   9.448  0.00  0.00    -0.361 OA
HETATM   49  H   UNK N   1      30.806  17.224   9.635  0.00  0.00     0.217 HD
ENDBRANCH  11  48
BRANCH  10  50
HETATM   50  O   UNK N   1      31.133  17.412   3.702  0.00  0.00    -0.385 OA
HETATM   51  H   UNK N   1      31.629  17.657   2.906  0.00  0.00     0.211 HD
ENDBRANCH  10  50
BRANCH   3  52
HETATM   52  O   UNK N   1      27.573  19.217   7.692  0.00  0.00    -0.360 OA
HETATM   53  H   UNK N   1      27.133  20.042   7.749  0.00  0.00     0.217 HD
ENDBRANCH   3  52
TORSDOF 17
ENDMDL
MODEL 9
REMARK VINA RESULT:      -7.2      1.801      2.366
REMARK  17 active torsions:
REMARK  status: ('A' for Active; 'I' for Inactive)
REMARK    1  A    between atoms: C_3  and  O_19 
REMARK    2  A    between atoms: C_10  and  O_39 
REMARK    3  A    between atoms: C_11  and  O_21 
REMARK    4  A    between atoms: C_12  and  O_43 
REMARK    5  A    between atoms: C_16  and  C_24 
REMARK    6  A    between atoms: C_17  and  O_23 
REMARK    7  A    between atoms: C_18  and  N_40 
REMARK       I    between atoms: C_24  and  N_25 
REMARK    8  A    between atoms: N_25  and  C_27 
REMARK    9  A    between atoms: C_27  and  N_28 
REMARK   10  A    between atoms: N_28  and  C_29 
REMARK   11  A    between atoms: C_29  and  C_30 
REMARK   12  A    between atoms: C_30  and  C_31 
REMARK   13  A    between atoms: C_31  and  C_32 
REMARK   14  A    between atoms: C_32  and  C_33 
REMARK   15  A    between atoms: C_33  and  N_34 
REMARK   16  A    between atoms: C_33  and  C_35 
REMARK   17  A    between atoms: C_35  and  O_37 
ROOT
HETATM    1  C   UNK N   1      25.086  15.659   2.776  0.00  0.00     0.003 A 
HETATM    2  C   UNK N   1      24.649  16.642   3.654  0.00  0.00     0.037 A 
HETATM    3  C   UNK N   1      25.538  17.236   4.545  0.00  0.00     0.080 A 
HETATM    4  C   UNK N   1      26.899  16.831   4.577  0.00  0.00     0.057 A 
HETATM    5  C   UNK N   1      27.348  15.842   3.671  0.00  0.00    -0.007 A 
HETATM    6  C   UNK N   1      26.425  15.279   2.770  0.00  0.00     0.011 A 
HETATM    7  C   UNK N   1      27.833  17.449   5.537  0.00  0.00     0.194 C 
HETATM    8  C   UNK N   1      29.220  16.957   5.657  0.00  0.00     0.033 C 
HETATM    9  C   UNK N   1      29.792  15.948   4.658  0.00  0.00     0.065 C 
HETATM   10  C   UNK N   1      28.807  15.419   3.548  0.00  0.00     0.090 C 
HETATM   11  C   UNK N   1      30.008  17.346   6.696  0.00  0.00     0.097 C 
HETATM   12  C   UNK N   1      31.430  16.861   6.714  0.00  0.00     0.177 C 
HETATM   13  C   UNK N   1      31.523  15.343   6.504  0.00  0.00     0.075 C 
HETATM   14  C   UNK N   1      30.466  14.828   5.486  0.00  0.00     0.024 C 
HETATM   15  C   UNK N   1      32.244  17.153   7.941  0.00  0.00     0.208 C 
HETATM   16  C   UNK N   1      33.705  16.900   7.816  0.00  0.00     0.112 C 
HETATM   17  C   UNK N   1      34.078  15.961   6.879  0.00  0.00     0.096 C 
HETATM   18  C   UNK N   1      33.034  14.985   6.237  0.00  0.00     0.286 C 
HETATM   19  O   UNK N   1      27.455  18.370   6.247  0.00  0.00    -0.287 OA
HETATM   20  O   UNK N   1      31.759  17.680   8.930  0.00  0.00    -0.288 OA
HETATM   21  C   UNK N   1      28.878  13.892   3.438  0.00  0.00     0.052 C 
ENDROOT
BRANCH  16  22
HETATM   22  C   UNK N   1      34.604  17.825   8.636  0.00  0.00     0.259 C 
HETATM   23  N   UNK N   1      35.181  17.536   9.839  0.00  0.00    -0.341 N 
HETATM   24  H   UNK N   1      35.741  18.253  10.215  0.00  0.00     0.164 HD
HETATM   25  O   UNK N   1      34.786  18.950   8.206  0.00  0.00    -0.267 OA
BRANCH  23  26
HETATM   26  C   UNK N   1      35.098  16.345  10.644  0.00  0.00     0.241 C 
BRANCH  26  27
HETATM   27  N   UNK N   1      36.409  15.896  11.108  0.00  0.00    -0.406 N 
HETATM   28  H   UNK N   1      37.133  16.520  11.467  0.00  0.00     0.154 HD
BRANCH  27  29
HETATM   29  C   UNK N   1      36.557  14.460  10.998  0.00  0.00     0.115 C 
BRANCH  29  30
HETATM   30  C   UNK N   1      37.289  14.164   9.704  0.00  0.00     0.019 C 
BRANCH  30  31
HETATM   31  C   UNK N   1      36.438  13.293   8.791  0.00  0.00     0.004 C 
BRANCH  31  32
HETATM   32  C   UNK N   1      35.260  12.668   9.534  0.00  0.00     0.035 C 
BRANCH  32  33
HETATM   33  C   UNK N   1      33.968  12.739   8.717  0.00  0.00     0.173 C 
BRANCH  33  34
HETATM   34  N   UNK N   1      32.916  13.343   9.515  0.00  0.00    -0.418 N 
HETATM   35  H   UNK N   1      32.998  13.651  10.484  0.00  0.00     0.150 HD
HETATM   36  H   UNK N   1      32.009  13.472   9.064  0.00  0.00     0.150 HD
ENDBRANCH  33  34
BRANCH  33  37
HETATM   37  C   UNK N   1      33.499  11.417   8.154  0.00  0.00     0.163 C 
HETATM   38  O   UNK N   1      32.759  11.367   7.184  0.00  0.00    -0.648 OA
BRANCH  37  39
HETATM   39  O   UNK N   1      33.903  10.271   8.733  0.00  0.00    -0.775 OA
HETATM   40  H   UNK N   1      34.436   9.599   8.357  0.00  0.00     0.167 HD
ENDBRANCH  37  39
ENDBRANCH  33  37
ENDBRANCH  32  33
ENDBRANCH  31  32
ENDBRANCH  30  31
ENDBRANCH  29  30
ENDBRANCH  27  29
ENDBRANCH  26  27
ENDBRANCH  23  26
ENDBRANCH  16  22
BRANCH  17  41
HETATM   41  O   UNK N   1      35.348  15.888   6.456  0.00  0.00    -0.362 OA
HETATM   42  H   UNK N   1      36.142  16.077   6.917  0.00  0.00     0.217 HD
ENDBRANCH  17  41
BRANCH  12  43
HETATM   43  O   UNK N   1      32.050  17.526   5.645  0.00  0.00    -0.374 OA
HETATM   44  H   UNK N   1      32.640  17.806   4.928  0.00  0.00     0.211 HD
ENDBRANCH  12  43
BRANCH  18  45
HETATM   45  N   UNK N   1      33.407  14.342   4.950  0.00  0.00     0.091 NA
HETATM   46  C   UNK N   1      34.594  13.518   5.113  0.00  0.00     0.310 C 
HETATM   47  C   UNK N   1      33.864  15.340   3.992  0.00  0.00     0.310 C 
ENDBRANCH  18  45
BRANCH  11  48
HETATM   48  O   UNK N   1      29.546  18.162   7.667  0.00  0.00    -0.361 OA
HETATM   49  H   UNK N   1      29.997  18.241   8.485  0.00  0.00     0.217 HD
ENDBRANCH  11  48
BRANCH  10  50
HETATM   50  O   UNK N   1      29.244  15.920   2.317  0.00  0.00    -0.385 OA
HETATM   51  H   UNK N   1      29.784  16.454   1.714  0.00  0.00     0.211 HD
ENDBRANCH  10  50
BRANCH   3  52
HETATM   52  O   UNK N   1      25.076  18.199   5.364  0.00  0.00    -0.360 OA
HETATM   53  H   UNK N   1      24.358  18.738   5.096  0.00  0.00     0.217 HD
ENDBRANCH   3  52
TORSDOF 17
ENDMDL
