MODEL 1
REMARK VINA RESULT:      -6.6      0.000      0.000
REMARK  16 active torsions:
REMARK  status: ('A' for Active; 'I' for Inactive)
REMARK    1  A    between atoms: C_1  and  C_7 
REMARK    2  A    between atoms: C_2  and  O_9 
REMARK    3  A    between atoms: C_3  and  N_10 
REMARK    4  A    between atoms: C_4  and  O_11 
REMARK    5  A    between atoms: C_5  and  O_12 
REMARK    6  A    between atoms: C_7  and  O_8 
REMARK    7  A    between atoms: C_13  and  O_12 
REMARK    8  A    between atoms: C_14  and  N_19 
REMARK    9  A    between atoms: C_16  and  N_20 
REMARK   10  A    between atoms: C_17  and  O_22 
REMARK   11  A    between atoms: C_18  and  O_21 
REMARK   12  A    between atoms: C_23  and  O_22 
REMARK   13  A    between atoms: C_25  and  C_29 
REMARK   14  A    between atoms: C_26  and  O_31 
REMARK   15  A    between atoms: C_28  and  N_32 
REMARK   16  A    between atoms: C_29  and  N_30 
ROOT
HETATM    1  C   UNK N   1      21.300  15.717   4.373  0.00  0.00     0.178 C 
HETATM    2  C   UNK N   1      20.321  14.601   3.998  0.00  0.00     0.107 C 
HETATM    3  C   UNK N   1      19.943  13.801   5.224  0.00  0.00     0.054 C 
HETATM    4  C   UNK N   1      21.172  13.097   5.762  0.00  0.00     0.107 C 
HETATM    5  C   UNK N   1      22.248  14.117   6.206  0.00  0.00     0.178 C 
HETATM    6  C   UNK N   1      22.538  15.112   5.060  0.00  0.00     0.180 C 
ENDROOT
BRANCH   1   7
HETATM    7  O   UNK N   1      21.717  16.354   3.191  0.00  0.00    -0.349 OA
BRANCH   7   8
HETATM    8  C   UNK N   1      21.660  17.741   3.397  0.00  0.00     0.291 C 
HETATM    9  C   UNK N   1      20.690  18.352   2.369  0.00  0.00     0.198 C 
HETATM   10  C   UNK N   1      20.673  19.867   2.526  0.00  0.00     0.139 C 
HETATM   11  C   UNK N   1      22.094  20.410   2.486  0.00  0.00     0.174 C 
HETATM   12  C   UNK N   1      22.931  19.643   3.525  0.00  0.00     0.179 C 
HETATM   13  O   UNK N   1      22.948  18.274   3.187  0.00  0.00    -0.349 OA
BRANCH   9  14
HETATM   14  O   UNK N   1      19.399  17.860   2.549  0.00  0.00    -0.388 OA
HETATM   15  H   UNK N   1      19.141  17.275   3.279  0.00  0.00     0.210 HD
ENDBRANCH   9  14
BRANCH  10  16
HETATM   16  N   UNK N   1      19.881  20.468   1.465  0.00  0.00    -0.421 N 
HETATM   17  H   UNK N   1      20.032  21.431   1.166  0.00  0.00     0.150 HD
HETATM   18  H   UNK N   1      19.156  19.913   1.010  0.00  0.00     0.150 HD
ENDBRANCH  10  16
BRANCH  11  19
HETATM   19  O   UNK N   1      22.069  21.778   2.773  0.00  0.00    -0.391 OA
HETATM   20  H   UNK N   1      21.605  22.280   3.460  0.00  0.00     0.210 HD
ENDBRANCH  11  19
BRANCH  12  21
HETATM   21  C   UNK N   1      24.371  20.144   3.540  0.00  0.00     0.198 C 
BRANCH  21  22
HETATM   22  O   UNK N   1      24.678  20.802   2.349  0.00  0.00    -0.398 OA
HETATM   23  H   UNK N   1      25.331  20.693   1.640  0.00  0.00     0.209 HD
ENDBRANCH  21  22
ENDBRANCH  12  21
ENDBRANCH   7   8
ENDBRANCH   1   7
BRANCH   2  24
HETATM   24  N   UNK N   1      19.113  15.149   3.415  0.00  0.00    -0.423 N 
HETATM   25  H   UNK N   1      18.558  14.700   2.686  0.00  0.00     0.150 HD
HETATM   26  H   UNK N   1      18.792  16.054   3.760  0.00  0.00     0.150 HD
ENDBRANCH   2  24
BRANCH   6  27
HETATM   27  O   UNK N   1      23.374  16.131   5.519  0.00  0.00    -0.390 OA
HETATM   28  H   UNK N   1      22.998  16.938   5.903  0.00  0.00     0.210 HD
ENDBRANCH   6  27
BRANCH   5  29
HETATM   29  O   UNK N   1      23.471  13.468   6.481  0.00  0.00    -0.349 OA
BRANCH  29  30
HETATM   30  C   UNK N   1      23.760  13.557   7.850  0.00  0.00     0.283 C 
HETATM   31  O   UNK N   1      23.381  12.340   8.453  0.00  0.00    -0.350 OA
HETATM   32  C   UNK N   1      23.450  12.520   9.844  0.00  0.00     0.170 C 
HETATM   33  C   UNK N   1      24.923  12.574  10.256  0.00  0.00     0.150 C 
HETATM   34  C   UNK N   1      25.565  13.776   9.564  0.00  0.00     0.064 C 
HETATM   35  C   UNK N   1      25.266  13.764   8.064  0.00  0.00     0.132 C 
BRANCH  32  36
HETATM   36  C   UNK N   1      22.734  11.368  10.533  0.00  0.00     0.145 C 
BRANCH  36  37
HETATM   37  N   UNK N   1      21.906  11.873  11.615  0.00  0.00    -0.428 N 
HETATM   38  H   UNK N   1      21.631  12.855  11.646  0.00  0.00     0.150 HD
HETATM   39  H   UNK N   1      21.596  11.239  12.352  0.00  0.00     0.150 HD
ENDBRANCH  36  37
ENDBRANCH  32  36
BRANCH  33  40
HETATM   40  O   UNK N   1      25.041  12.720  11.639  0.00  0.00    -0.393 OA
HETATM   41  H   UNK N   1      25.589  13.317  12.171  0.00  0.00     0.210 HD
ENDBRANCH  33  40
BRANCH  35  42
HETATM   42  N   UNK N   1      25.691  15.025   7.480  0.00  0.00    -0.422 N 
HETATM   43  H   UNK N   1      25.710  15.272   6.491  0.00  0.00     0.150 HD
HETATM   44  H   UNK N   1      26.006  15.743   8.133  0.00  0.00     0.150 HD
ENDBRANCH  35  42
ENDBRANCH  29  30
ENDBRANCH   5  29
BRANCH   4  45
HETATM   45  N   UNK N   1      20.747  12.268   6.875  0.00  0.00    -0.423 N 
HETATM   46  H   UNK N   1      19.858  11.794   7.025  0.00  0.00     0.150 HD
HETATM   47  H   UNK N   1      21.439  12.142   7.614  0.00  0.00     0.150 HD
ENDBRANCH   4  45
TORSDOF 16
ENDMDL
MODEL 2
REMARK VINA RESULT:      -6.4      8.213     10.478
REMARK  16 active torsions:
REMARK  status: ('A' for Active; 'I' for Inactive)
REMARK    1  A    between atoms: C_1  and  C_7 
REMARK    2  A    between atoms: C_2  and  O_9 
REMARK    3  A    between atoms: C_3  and  N_10 
REMARK    4  A    between atoms: C_4  and  O_11 
REMARK    5  A    between atoms: C_5  and  O_12 
REMARK    6  A    between atoms: C_7  and  O_8 
REMARK    7  A    between atoms: C_13  and  O_12 
REMARK    8  A    between atoms: C_14  and  N_19 
REMARK    9  A    between atoms: C_16  and  N_20 
REMARK   10  A    between atoms: C_17  and  O_22 
REMARK   11  A    between atoms: C_18  and  O_21 
REMARK   12  A    between atoms: C_23  and  O_22 
REMARK   13  A    between atoms: C_25  and  C_29 
REMARK   14  A    between atoms: C_26  and  O_31 
REMARK   15  A    between atoms: C_28  and  N_32 
REMARK   16  A    between atoms: C_29  and  N_30 
ROOT
HETATM    1  C   UNK N   1      31.844  15.529   6.365  0.00  0.00     0.178 C 
HETATM    2  C   UNK N   1      32.298  14.533   5.294  0.00  0.00     0.107 C 
HETATM    3  C   UNK N   1      32.744  13.239   5.935  0.00  0.00     0.054 C 
HETATM    4  C   UNK N   1      33.968  13.499   6.790  0.00  0.00     0.107 C 
HETATM    5  C   UNK N   1      33.643  14.482   7.940  0.00  0.00     0.178 C 
HETATM    6  C   UNK N   1      32.983  15.758   7.375  0.00  0.00     0.180 C 
ENDROOT
BRANCH   1   7
HETATM    7  O   UNK N   1      31.557  16.753   5.737  0.00  0.00    -0.349 OA
BRANCH   7   8
HETATM    8  C   UNK N   1      30.192  17.029   5.918  0.00  0.00     0.291 C 
HETATM    9  C   UNK N   1      29.686  17.833   4.707  0.00  0.00     0.198 C 
HETATM   10  C   UNK N   1      28.226  18.209   4.923  0.00  0.00     0.139 C 
HETATM   11  C   UNK N   1      28.058  18.888   6.274  0.00  0.00     0.174 C 
HETATM   12  C   UNK N   1      28.676  17.979   7.350  0.00  0.00     0.179 C 
HETATM   13  O   UNK N   1      30.051  17.812   7.083  0.00  0.00    -0.349 OA
BRANCH   9  14
HETATM   14  O   UNK N   1      29.798  17.090   3.534  0.00  0.00    -0.388 OA
HETATM   15  H   UNK N   1      30.280  16.250   3.471  0.00  0.00     0.210 HD
ENDBRANCH   9  14
BRANCH  10  16
HETATM   16  N   UNK N   1      27.779  19.096   3.861  0.00  0.00    -0.421 N 
HETATM   17  H   UNK N   1      28.326  19.230   3.011  0.00  0.00     0.150 HD
HETATM   18  H   UNK N   1      26.897  19.597   3.969  0.00  0.00     0.150 HD
ENDBRANCH  10  16
BRANCH  11  19
HETATM   19  O   UNK N   1      26.697  19.097   6.515  0.00  0.00    -0.391 OA
HETATM   20  H   UNK N   1      26.231  19.465   7.281  0.00  0.00     0.210 HD
ENDBRANCH  11  19
BRANCH  12  21
HETATM   21  C   UNK N   1      28.536  18.600   8.735  0.00  0.00     0.198 C 
BRANCH  21  22
HETATM   22  O   UNK N   1      27.419  18.086   9.396  0.00  0.00    -0.398 OA
HETATM   23  H   UNK N   1      27.232  17.313   9.951  0.00  0.00     0.209 HD
ENDBRANCH  21  22
ENDBRANCH  12  21
ENDBRANCH   7   8
ENDBRANCH   1   7
BRANCH   2  24
HETATM   24  N   UNK N   1      31.219  14.242   4.370  0.00  0.00    -0.423 N 
HETATM   25  H   UNK N   1      31.103  13.365   3.863  0.00  0.00     0.150 HD
HETATM   26  H   UNK N   1      30.522  14.970   4.216  0.00  0.00     0.150 HD
ENDBRANCH   2  24
BRANCH   6  27
HETATM   27  O   UNK N   1      32.535  16.564   8.424  0.00  0.00    -0.390 OA
HETATM   28  H   UNK N   1      31.653  16.427   8.804  0.00  0.00     0.210 HD
ENDBRANCH   6  27
BRANCH   5  29
HETATM   29  O   UNK N   1      34.826  14.905   8.586  0.00  0.00    -0.349 OA
BRANCH  29  30
HETATM   30  C   UNK N   1      34.702  14.728   9.971  0.00  0.00     0.283 C 
HETATM   31  O   UNK N   1      35.233  13.464  10.297  0.00  0.00    -0.350 OA
HETATM   32  C   UNK N   1      34.893  13.194  11.633  0.00  0.00     0.170 C 
HETATM   33  C   UNK N   1      35.747  14.083  12.541  0.00  0.00     0.150 C 
HETATM   34  C   UNK N   1      35.415  15.541  12.224  0.00  0.00     0.064 C 
HETATM   35  C   UNK N   1      35.501  15.805  10.719  0.00  0.00     0.132 C 
BRANCH  32  36
HETATM   36  C   UNK N   1      35.140  11.722  11.925  0.00  0.00     0.145 C 
BRANCH  36  37
HETATM   37  N   UNK N   1      34.133  11.222  12.844  0.00  0.00    -0.428 N 
HETATM   38  H   UNK N   1      33.170  11.082  12.537  0.00  0.00     0.150 HD
HETATM   39  H   UNK N   1      34.390  11.008  13.808  0.00  0.00     0.150 HD
ENDBRANCH  36  37
ENDBRANCH  32  36
BRANCH  33  40
HETATM   40  O   UNK N   1      35.465  13.827  13.883  0.00  0.00    -0.393 OA
HETATM   41  H   UNK N   1      35.073  14.389  14.570  0.00  0.00     0.210 HD
ENDBRANCH  33  40
BRANCH  35  42
HETATM   42  N   UNK N   1      34.964  17.124  10.432  0.00  0.00    -0.422 N 
HETATM   43  H   UNK N   1      34.485  17.424   9.583  0.00  0.00     0.150 HD
HETATM   44  H   UNK N   1      35.079  17.828  11.161  0.00  0.00     0.150 HD
ENDBRANCH  35  42
ENDBRANCH  29  30
ENDBRANCH   5  29
BRANCH   4  45
HETATM   45  N   UNK N   1      34.417  12.219   7.307  0.00  0.00    -0.423 N 
HETATM   46  H   UNK N   1      35.342  11.944   7.633  0.00  0.00     0.150 HD
HETATM   47  H   UNK N   1      33.704  11.492   7.351  0.00  0.00     0.150 HD
ENDBRANCH   4  45
TORSDOF 16
ENDMDL
MODEL 3
REMARK VINA RESULT:      -6.2      8.982     11.479
REMARK  16 active torsions:
REMARK  status: ('A' for Active; 'I' for Inactive)
REMARK    1  A    between atoms: C_1  and  C_7 
REMARK    2  A    between atoms: C_2  and  O_9 
REMARK    3  A    between atoms: C_3  and  N_10 
REMARK    4  A    between atoms: C_4  and  O_11 
REMARK    5  A    between atoms: C_5  and  O_12 
REMARK    6  A    between atoms: C_7  and  O_8 
REMARK    7  A    between atoms: C_13  and  O_12 
REMARK    8  A    between atoms: C_14  and  N_19 
REMARK    9  A    between atoms: C_16  and  N_20 
REMARK   10  A    between atoms: C_17  and  O_22 
REMARK   11  A    between atoms: C_18  and  O_21 
REMARK   12  A    between atoms: C_23  and  O_22 
REMARK   13  A    between atoms: C_25  and  C_29 
REMARK   14  A    between atoms: C_26  and  O_31 
REMARK   15  A    between atoms: C_28  and  N_32 
REMARK   16  A    between atoms: C_29  and  N_30 
ROOT
HETATM    1  C   UNK N   1      32.820  16.156   6.056  0.00  0.00     0.178 C 
HETATM    2  C   UNK N   1      33.883  16.029   4.960  0.00  0.00     0.107 C 
HETATM    3  C   UNK N   1      34.737  14.804   5.197  0.00  0.00     0.054 C 
HETATM    4  C   UNK N   1      35.508  14.973   6.490  0.00  0.00     0.107 C 
HETATM    5  C   UNK N   1      34.548  15.092   7.698  0.00  0.00     0.178 C 
HETATM    6  C   UNK N   1      33.501  16.197   7.435  0.00  0.00     0.180 C 
ENDROOT
BRANCH   1   7
HETATM    7  O   UNK N   1      32.133  17.367   5.865  0.00  0.00    -0.349 OA
BRANCH   7   8
HETATM    8  C   UNK N   1      30.756  17.108   5.950  0.00  0.00     0.291 C 
HETATM    9  C   UNK N   1      30.055  17.764   4.747  0.00  0.00     0.198 C 
HETATM   10  C   UNK N   1      28.550  17.559   4.863  0.00  0.00     0.139 C 
HETATM   11  C   UNK N   1      28.067  18.019   6.231  0.00  0.00     0.174 C 
HETATM   12  C   UNK N   1      28.918  17.316   7.303  0.00  0.00     0.179 C 
HETATM   13  O   UNK N   1      30.269  17.688   7.139  0.00  0.00    -0.349 OA
BRANCH   9  14
HETATM   14  O   UNK N   1      30.500  17.211   3.548  0.00  0.00    -0.388 OA
HETATM   15  H   UNK N   1      29.973  16.601   3.007  0.00  0.00     0.210 HD
ENDBRANCH   9  14
BRANCH  10  16
HETATM   16  N   UNK N   1      27.865  18.303   3.818  0.00  0.00    -0.421 N 
HETATM   17  H   UNK N   1      27.114  18.957   4.032  0.00  0.00     0.150 HD
HETATM   18  H   UNK N   1      28.144  18.166   2.846  0.00  0.00     0.150 HD
ENDBRANCH  10  16
BRANCH  11  19
HETATM   19  O   UNK N   1      26.715  17.693   6.371  0.00  0.00    -0.391 OA
HETATM   20  H   UNK N   1      26.076  17.326   5.740  0.00  0.00     0.210 HD
ENDBRANCH  11  19
BRANCH  12  21
HETATM   21  C   UNK N   1      28.480  17.729   8.703  0.00  0.00     0.198 C 
BRANCH  21  22
HETATM   22  O   UNK N   1      27.364  16.996   9.108  0.00  0.00    -0.398 OA
HETATM   23  H   UNK N   1      26.980  16.719   9.954  0.00  0.00     0.209 HD
ENDBRANCH  21  22
ENDBRANCH  12  21
ENDBRANCH   7   8
ENDBRANCH   1   7
BRANCH   2  24
HETATM   24  N   UNK N   1      33.266  15.914   3.653  0.00  0.00    -0.423 N 
HETATM   25  H   UNK N   1      32.262  15.850   3.484  0.00  0.00     0.150 HD
HETATM   26  H   UNK N   1      33.882  15.897   2.841  0.00  0.00     0.150 HD
ENDBRANCH   2  24
BRANCH   6  27
HETATM   27  O   UNK N   1      32.536  16.183   8.444  0.00  0.00    -0.390 OA
HETATM   28  H   UNK N   1      32.795  16.056   9.369  0.00  0.00     0.210 HD
ENDBRANCH   6  27
BRANCH   5  29
HETATM   29  O   UNK N   1      35.249  15.484   8.860  0.00  0.00    -0.349 OA
BRANCH  29  30
HETATM   30  C   UNK N   1      35.341  14.403   9.748  0.00  0.00     0.283 C 
HETATM   31  O   UNK N   1      36.704  14.079   9.898  0.00  0.00    -0.350 OA
HETATM   32  C   UNK N   1      36.774  12.860  10.593  0.00  0.00     0.170 C 
HETATM   33  C   UNK N   1      36.397  13.111  12.055  0.00  0.00     0.150 C 
HETATM   34  C   UNK N   1      34.959  13.627  12.092  0.00  0.00     0.064 C 
HETATM   35  C   UNK N   1      34.773  14.794  11.120  0.00  0.00     0.132 C 
BRANCH  32  36
HETATM   36  C   UNK N   1      38.184  12.302  10.483  0.00  0.00     0.145 C 
BRANCH  36  37
HETATM   37  N   UNK N   1      39.155  13.374  10.614  0.00  0.00    -0.428 N 
HETATM   38  H   UNK N   1      38.908  14.334  10.368  0.00  0.00     0.150 HD
HETATM   39  H   UNK N   1      40.094  13.167  10.954  0.00  0.00     0.150 HD
ENDBRANCH  36  37
ENDBRANCH  32  36
BRANCH  33  40
HETATM   40  O   UNK N   1      36.483  11.931  12.793  0.00  0.00    -0.393 OA
HETATM   41  H   UNK N   1      35.997  11.095  12.717  0.00  0.00     0.210 HD
ENDBRANCH  33  40
BRANCH  35  42
HETATM   42  N   UNK N   1      33.359  15.108  11.012  0.00  0.00    -0.422 N 
HETATM   43  H   UNK N   1      32.573  14.490  11.211  0.00  0.00     0.150 HD
HETATM   44  H   UNK N   1      33.127  16.052  10.702  0.00  0.00     0.150 HD
ENDBRANCH  35  42
ENDBRANCH  29  30
ENDBRANCH   5  29
BRANCH   4  45
HETATM   45  N   UNK N   1      36.383  13.824   6.629  0.00  0.00    -0.423 N 
HETATM   46  H   UNK N   1      36.149  12.833   6.650  0.00  0.00     0.150 HD
HETATM   47  H   UNK N   1      37.376  14.040   6.719  0.00  0.00     0.150 HD
ENDBRANCH   4  45
TORSDOF 16
ENDMDL
MODEL 4
REMARK VINA RESULT:      -6.1      4.527      8.692
REMARK  16 active torsions:
REMARK  status: ('A' for Active; 'I' for Inactive)
REMARK    1  A    between atoms: C_1  and  C_7 
REMARK    2  A    between atoms: C_2  and  O_9 
REMARK    3  A    between atoms: C_3  and  N_10 
REMARK    4  A    between atoms: C_4  and  O_11 
REMARK    5  A    between atoms: C_5  and  O_12 
REMARK    6  A    between atoms: C_7  and  O_8 
REMARK    7  A    between atoms: C_13  and  O_12 
REMARK    8  A    between atoms: C_14  and  N_19 
REMARK    9  A    between atoms: C_16  and  N_20 
REMARK   10  A    between atoms: C_17  and  O_22 
REMARK   11  A    between atoms: C_18  and  O_21 
REMARK   12  A    between atoms: C_23  and  O_22 
REMARK   13  A    between atoms: C_25  and  C_29 
REMARK   14  A    between atoms: C_26  and  O_31 
REMARK   15  A    between atoms: C_28  and  N_32 
REMARK   16  A    between atoms: C_29  and  N_30 
ROOT
HETATM    1  C   UNK N   1      27.256  18.011   4.915  0.00  0.00     0.178 C 
HETATM    2  C   UNK N   1      27.326  19.241   4.006  0.00  0.00     0.107 C 
HETATM    3  C   UNK N   1      26.003  19.973   4.009  0.00  0.00     0.054 C 
HETATM    4  C   UNK N   1      24.937  19.083   3.403  0.00  0.00     0.107 C 
HETATM    5  C   UNK N   1      24.742  17.798   4.243  0.00  0.00     0.178 C 
HETATM    6  C   UNK N   1      26.101  17.098   4.463  0.00  0.00     0.180 C 
ENDROOT
BRANCH   1   7
HETATM    7  O   UNK N   1      28.460  17.297   4.787  0.00  0.00    -0.349 OA
BRANCH   7   8
HETATM    8  C   UNK N   1      29.289  17.638   5.866  0.00  0.00     0.291 C 
HETATM    9  C   UNK N   1      30.623  16.883   5.723  0.00  0.00     0.198 C 
HETATM   10  C   UNK N   1      31.507  17.182   6.927  0.00  0.00     0.139 C 
HETATM   11  C   UNK N   1      30.740  16.914   8.214  0.00  0.00     0.174 C 
HETATM   12  C   UNK N   1      29.414  17.691   8.154  0.00  0.00     0.179 C 
HETATM   13  O   UNK N   1      28.655  17.230   7.058  0.00  0.00    -0.349 OA
BRANCH   9  14
HETATM   14  O   UNK N   1      31.289  17.266   4.561  0.00  0.00    -0.388 OA
HETATM   15  H   UNK N   1      30.919  17.168   3.669  0.00  0.00     0.210 HD
ENDBRANCH   9  14
BRANCH  10  16
HETATM   16  N   UNK N   1      32.704  16.358   6.880  0.00  0.00    -0.421 N 
HETATM   17  H   UNK N   1      33.328  16.366   6.073  0.00  0.00     0.150 HD
HETATM   18  H   UNK N   1      32.926  15.756   7.674  0.00  0.00     0.150 HD
ENDBRANCH  10  16
BRANCH  11  19
HETATM   19  O   UNK N   1      31.515  17.326   9.301  0.00  0.00    -0.391 OA
HETATM   20  H   UNK N   1      31.676  16.917  10.165  0.00  0.00     0.210 HD
ENDBRANCH  11  19
BRANCH  12  21
HETATM   21  C   UNK N   1      28.596  17.470   9.421  0.00  0.00     0.198 C 
BRANCH  21  22
HETATM   22  O   UNK N   1      27.403  18.192   9.370  0.00  0.00    -0.398 OA
HETATM   23  H   UNK N   1      27.098  19.060   9.677  0.00  0.00     0.209 HD
ENDBRANCH  21  22
ENDBRANCH  12  21
ENDBRANCH   7   8
ENDBRANCH   1   7
BRANCH   2  24
HETATM   24  N   UNK N   1      28.359  20.154   4.453  0.00  0.00    -0.423 N 
HETATM   25  H   UNK N   1      28.756  20.910   3.894  0.00  0.00     0.150 HD
HETATM   26  H   UNK N   1      28.717  20.033   5.401  0.00  0.00     0.150 HD
ENDBRANCH   2  24
BRANCH   6  27
HETATM   27  O   UNK N   1      25.949  16.041   5.363  0.00  0.00    -0.390 OA
HETATM   28  H   UNK N   1      25.487  15.232   5.094  0.00  0.00     0.210 HD
ENDBRANCH   6  27
BRANCH   5  29
HETATM   29  O   UNK N   1      23.929  16.869   3.557  0.00  0.00    -0.349 OA
BRANCH  29  30
HETATM   30  C   UNK N   1      22.639  16.869   4.107  0.00  0.00     0.283 C 
HETATM   31  O   UNK N   1      21.763  17.432   3.157  0.00  0.00    -0.350 OA
HETATM   32  C   UNK N   1      20.530  17.646   3.796  0.00  0.00     0.170 C 
HETATM   33  C   UNK N   1      19.852  16.291   4.012  0.00  0.00     0.150 C 
HETATM   34  C   UNK N   1      20.749  15.453   4.923  0.00  0.00     0.064 C 
HETATM   35  C   UNK N   1      22.187  15.431   4.401  0.00  0.00     0.132 C 
BRANCH  32  36
HETATM   36  C   UNK N   1      19.669  18.553   2.930  0.00  0.00     0.145 C 
BRANCH  36  37
HETATM   37  N   UNK N   1      19.128  17.803   1.810  0.00  0.00    -0.428 N 
HETATM   38  H   UNK N   1      18.707  18.284   1.015  0.00  0.00     0.150 HD
HETATM   39  H   UNK N   1      19.169  16.784   1.818  0.00  0.00     0.150 HD
ENDBRANCH  36  37
ENDBRANCH  32  36
BRANCH  33  40
HETATM   40  O   UNK N   1      18.606  16.457   4.617  0.00  0.00    -0.393 OA
HETATM   41  H   UNK N   1      18.247  16.099   5.444  0.00  0.00     0.210 HD
ENDBRANCH  33  40
BRANCH  35  42
HETATM   42  N   UNK N   1      23.050  14.824   5.400  0.00  0.00    -0.422 N 
HETATM   43  H   UNK N   1      23.419  13.874   5.401  0.00  0.00     0.150 HD
HETATM   44  H   UNK N   1      23.317  15.415   6.187  0.00  0.00     0.150 HD
ENDBRANCH  35  42
ENDBRANCH  29  30
ENDBRANCH   5  29
BRANCH   4  45
HETATM   45  N   UNK N   1      23.710  19.856   3.337  0.00  0.00    -0.423 N 
HETATM   46  H   UNK N   1      22.888  19.814   3.937  0.00  0.00     0.150 HD
HETATM   47  H   UNK N   1      23.666  20.539   2.581  0.00  0.00     0.150 HD
ENDBRANCH   4  45
TORSDOF 16
ENDMDL
MODEL 5
REMARK VINA RESULT:      -6.0      4.222      6.901
REMARK  16 active torsions:
REMARK  status: ('A' for Active; 'I' for Inactive)
REMARK    1  A    between atoms: C_1  and  C_7 
REMARK    2  A    between atoms: C_2  and  O_9 
REMARK    3  A    between atoms: C_3  and  N_10 
REMARK    4  A    between atoms: C_4  and  O_11 
REMARK    5  A    between atoms: C_5  and  O_12 
REMARK    6  A    between atoms: C_7  and  O_8 
REMARK    7  A    between atoms: C_13  and  O_12 
REMARK    8  A    between atoms: C_14  and  N_19 
REMARK    9  A    between atoms: C_16  and  N_20 
REMARK   10  A    between atoms: C_17  and  O_22 
REMARK   11  A    between atoms: C_18  and  O_21 
REMARK   12  A    between atoms: C_23  and  O_22 
REMARK   13  A    between atoms: C_25  and  C_29 
REMARK   14  A    between atoms: C_26  and  O_31 
REMARK   15  A    between atoms: C_28  and  N_32 
REMARK   16  A    between atoms: C_29  and  N_30 
ROOT
HETATM    1  C   UNK N   1      24.429  18.800   4.090  0.00  0.00     0.178 C 
HETATM    2  C   UNK N   1      24.855  20.231   3.745  0.00  0.00     0.107 C 
HETATM    3  C   UNK N   1      26.320  20.267   3.373  0.00  0.00     0.054 C 
HETATM    4  C   UNK N   1      27.153  19.876   4.577  0.00  0.00     0.107 C 
HETATM    5  C   UNK N   1      26.838  18.428   5.024  0.00  0.00     0.178 C 
HETATM    6  C   UNK N   1      25.317  18.255   5.223  0.00  0.00     0.180 C 
ENDROOT
BRANCH   1   7
HETATM    7  O   UNK N   1      23.100  18.833   4.545  0.00  0.00    -0.349 OA
BRANCH   7   8
HETATM    8  C   UNK N   1      22.338  17.975   3.737  0.00  0.00     0.291 C 
HETATM    9  C   UNK N   1      21.014  18.675   3.384  0.00  0.00     0.198 C 
HETATM   10  C   UNK N   1      20.141  17.728   2.571  0.00  0.00     0.139 C 
HETATM   11  C   UNK N   1      20.002  16.397   3.296  0.00  0.00     0.174 C 
HETATM   12  C   UNK N   1      21.413  15.881   3.627  0.00  0.00     0.179 C 
HETATM   13  O   UNK N   1      22.058  16.806   4.475  0.00  0.00    -0.349 OA
BRANCH   9  14
HETATM   14  O   UNK N   1      21.245  19.832   2.643  0.00  0.00    -0.388 OA
HETATM   15  H   UNK N   1      21.850  20.539   2.920  0.00  0.00     0.210 HD
ENDBRANCH   9  14
BRANCH  10  16
HETATM   16  N   UNK N   1      18.829  18.319   2.361  0.00  0.00    -0.421 N 
HETATM   17  H   UNK N   1      18.695  19.330   2.340  0.00  0.00     0.150 HD
HETATM   18  H   UNK N   1      18.022  17.707   2.232  0.00  0.00     0.150 HD
ENDBRANCH  10  16
BRANCH  11  19
HETATM   19  O   UNK N   1      19.319  15.498   2.473  0.00  0.00    -0.391 OA
HETATM   20  H   UNK N   1      18.384  15.442   2.223  0.00  0.00     0.210 HD
ENDBRANCH  11  19
BRANCH  12  21
HETATM   21  C   UNK N   1      21.347  14.542   4.352  0.00  0.00     0.198 C 
BRANCH  21  22
HETATM   22  O   UNK N   1      20.148  14.421   5.057  0.00  0.00    -0.398 OA
HETATM   23  H   UNK N   1      19.269  14.827   5.013  0.00  0.00     0.209 HD
ENDBRANCH  21  22
ENDBRANCH  12  21
ENDBRANCH   7   8
ENDBRANCH   1   7
BRANCH   2  24
HETATM   24  N   UNK N   1      24.084  20.744   2.630  0.00  0.00    -0.423 N 
HETATM   25  H   UNK N   1      24.472  21.241   1.829  0.00  0.00     0.150 HD
HETATM   26  H   UNK N   1      23.075  20.596   2.648  0.00  0.00     0.150 HD
ENDBRANCH   2  24
BRANCH   6  27
HETATM   27  O   UNK N   1      25.020  16.910   5.454  0.00  0.00    -0.390 OA
HETATM   28  H   UNK N   1      25.169  16.519   6.330  0.00  0.00     0.210 HD
ENDBRANCH   6  27
BRANCH   5  29
HETATM   29  O   UNK N   1      27.432  18.150   6.275  0.00  0.00    -0.349 OA
BRANCH  29  30
HETATM   30  C   UNK N   1      28.434  17.182   6.121  0.00  0.00     0.283 C 
HETATM   31  O   UNK N   1      28.915  17.261   4.799  0.00  0.00    -0.350 OA
HETATM   32  C   UNK N   1      29.740  16.144   4.582  0.00  0.00     0.170 C 
HETATM   33  C   UNK N   1      31.046  16.348   5.353  0.00  0.00     0.150 C 
HETATM   34  C   UNK N   1      30.709  16.439   6.841  0.00  0.00     0.064 C 
HETATM   35  C   UNK N   1      29.596  17.461   7.085  0.00  0.00     0.132 C 
BRANCH  32  36
HETATM   36  C   UNK N   1      30.005  16.000   3.091  0.00  0.00     0.145 C 
BRANCH  36  37
HETATM   37  N   UNK N   1      31.000  16.969   2.668  0.00  0.00    -0.428 N 
HETATM   38  H   UNK N   1      31.877  16.665   2.243  0.00  0.00     0.150 HD
HETATM   39  H   UNK N   1      30.821  17.966   2.796  0.00  0.00     0.150 HD
ENDBRANCH  36  37
ENDBRANCH  32  36
BRANCH  33  40
HETATM   40  O   UNK N   1      31.913  15.275   5.142  0.00  0.00    -0.393 OA
HETATM   41  H   UNK N   1      32.237  14.589   5.747  0.00  0.00     0.210 HD
ENDBRANCH  33  40
BRANCH  35  42
HETATM   42  N   UNK N   1      29.146  17.360   8.463  0.00  0.00    -0.422 N 
HETATM   43  H   UNK N   1      28.183  17.318   8.796  0.00  0.00     0.150 HD
HETATM   44  H   UNK N   1      29.874  17.328   9.176  0.00  0.00     0.150 HD
ENDBRANCH  35  42
ENDBRANCH  29  30
ENDBRANCH   5  29
BRANCH   4  45
HETATM   45  N   UNK N   1      28.549  20.017   4.205  0.00  0.00    -0.423 N 
HETATM   46  H   UNK N   1      29.091  19.493   3.521  0.00  0.00     0.150 HD
HETATM   47  H   UNK N   1      29.060  20.747   4.702  0.00  0.00     0.150 HD
ENDBRANCH   4  45
TORSDOF 16
ENDMDL
MODEL 6
REMARK VINA RESULT:      -5.8      4.703      7.551
REMARK  16 active torsions:
REMARK  status: ('A' for Active; 'I' for Inactive)
REMARK    1  A    between atoms: C_1  and  C_7 
REMARK    2  A    between atoms: C_2  and  O_9 
REMARK    3  A    between atoms: C_3  and  N_10 
REMARK    4  A    between atoms: C_4  and  O_11 
REMARK    5  A    between atoms: C_5  and  O_12 
REMARK    6  A    between atoms: C_7  and  O_8 
REMARK    7  A    between atoms: C_13  and  O_12 
REMARK    8  A    between atoms: C_14  and  N_19 
REMARK    9  A    between atoms: C_16  and  N_20 
REMARK   10  A    between atoms: C_17  and  O_22 
REMARK   11  A    between atoms: C_18  and  O_21 
REMARK   12  A    between atoms: C_23  and  O_22 
REMARK   13  A    between atoms: C_25  and  C_29 
REMARK   14  A    between atoms: C_26  and  O_31 
REMARK   15  A    between atoms: C_28  and  N_32 
REMARK   16  A    between atoms: C_29  and  N_30 
ROOT
HETATM    1  C   UNK N   1      25.259  15.785   4.752  0.00  0.00     0.178 C 
HETATM    2  C   UNK N   1      25.483  16.137   3.278  0.00  0.00     0.107 C 
HETATM    3  C   UNK N   1      26.953  16.045   2.934  0.00  0.00     0.054 C 
HETATM    4  C   UNK N   1      27.717  17.091   3.720  0.00  0.00     0.107 C 
HETATM    5  C   UNK N   1      27.596  16.842   5.243  0.00  0.00     0.178 C 
HETATM    6  C   UNK N   1      26.109  16.712   5.640  0.00  0.00     0.180 C 
ENDROOT
BRANCH   1   7
HETATM    7  O   UNK N   1      23.904  16.001   5.056  0.00  0.00    -0.349 OA
BRANCH   7   8
HETATM    8  C   UNK N   1      23.359  14.791   5.514  0.00  0.00     0.291 C 
HETATM    9  C   UNK N   1      21.911  14.679   5.005  0.00  0.00     0.198 C 
HETATM   10  C   UNK N   1      21.277  13.408   5.556  0.00  0.00     0.139 C 
HETATM   11  C   UNK N   1      21.444  13.356   7.068  0.00  0.00     0.174 C 
HETATM   12  C   UNK N   1      22.935  13.551   7.393  0.00  0.00     0.179 C 
HETATM   13  O   UNK N   1      23.352  14.815   6.924  0.00  0.00    -0.349 OA
BRANCH   9  14
HETATM   14  O   UNK N   1      21.873  14.641   3.613  0.00  0.00    -0.388 OA
HETATM   15  H   UNK N   1      21.945  13.825   3.093  0.00  0.00     0.210 HD
ENDBRANCH   9  14
BRANCH  10  16
HETATM   16  N   UNK N   1      19.866  13.366   5.210  0.00  0.00    -0.421 N 
HETATM   17  H   UNK N   1      19.297  14.211   5.183  0.00  0.00     0.150 HD
HETATM   18  H   UNK N   1      19.434  12.468   4.988  0.00  0.00     0.150 HD
ENDBRANCH  10  16
BRANCH  11  19
HETATM   19  O   UNK N   1      20.985  12.122   7.536  0.00  0.00    -0.391 OA
HETATM   20  H   UNK N   1      20.529  11.878   8.356  0.00  0.00     0.210 HD
ENDBRANCH  11  19
BRANCH  12  21
HETATM   21  C   UNK N   1      23.174  13.504   8.898  0.00  0.00     0.198 C 
BRANCH  21  22
HETATM   22  O   UNK N   1      22.042  13.935   9.592  0.00  0.00    -0.398 OA
HETATM   23  H   UNK N   1      21.083  13.843   9.487  0.00  0.00     0.209 HD
ENDBRANCH  21  22
ENDBRANCH  12  21
ENDBRANCH   7   8
ENDBRANCH   1   7
BRANCH   2  24
HETATM   24  N   UNK N   1      24.751  15.231   2.415  0.00  0.00    -0.423 N 
HETATM   25  H   UNK N   1      24.535  15.404   1.434  0.00  0.00     0.150 HD
HETATM   26  H   UNK N   1      24.427  14.353   2.820  0.00  0.00     0.150 HD
ENDBRANCH   2  24
BRANCH   6  27
HETATM   27  O   UNK N   1      26.010  16.315   6.975  0.00  0.00    -0.390 OA
HETATM   28  H   UNK N   1      26.757  16.439   7.581  0.00  0.00     0.210 HD
ENDBRANCH   6  27
BRANCH   5  29
HETATM   29  O   UNK N   1      28.103  17.939   5.972  0.00  0.00    -0.349 OA
BRANCH  29  30
HETATM   30  C   UNK N   1      29.048  17.493   6.907  0.00  0.00     0.283 C 
HETATM   31  O   UNK N   1      30.316  17.527   6.293  0.00  0.00    -0.350 OA
HETATM   32  C   UNK N   1      31.215  16.861   7.143  0.00  0.00     0.170 C 
HETATM   33  C   UNK N   1      31.485  17.753   8.358  0.00  0.00     0.150 C 
HETATM   34  C   UNK N   1      30.162  17.963   9.094  0.00  0.00     0.064 C 
HETATM   35  C   UNK N   1      29.068  18.424   8.128  0.00  0.00     0.132 C 
BRANCH  32  36
HETATM   36  C   UNK N   1      32.501  16.573   6.384  0.00  0.00     0.145 C 
BRANCH  36  37
HETATM   37  N   UNK N   1      33.421  17.688   6.524  0.00  0.00    -0.428 N 
HETATM   38  H   UNK N   1      33.074  18.646   6.586  0.00  0.00     0.150 HD
HETATM   39  H   UNK N   1      34.426  17.512   6.560  0.00  0.00     0.150 HD
ENDBRANCH  36  37
ENDBRANCH  32  36
BRANCH  33  40
HETATM   40  O   UNK N   1      32.400  17.145   9.218  0.00  0.00    -0.393 OA
HETATM   41  H   UNK N   1      32.834  16.279   9.176  0.00  0.00     0.210 HD
ENDBRANCH  33  40
BRANCH  35  42
HETATM   42  N   UNK N   1      27.785  18.395   8.808  0.00  0.00    -0.422 N 
HETATM   43  H   UNK N   1      27.026  19.070   8.723  0.00  0.00     0.150 HD
HETATM   44  H   UNK N   1      27.625  17.611   9.441  0.00  0.00     0.150 HD
ENDBRANCH  35  42
ENDBRANCH  29  30
ENDBRANCH   5  29
BRANCH   4  45
HETATM   45  N   UNK N   1      29.102  17.033   3.290  0.00  0.00    -0.423 N 
HETATM   46  H   UNK N   1      29.954  17.163   3.834  0.00  0.00     0.150 HD
HETATM   47  H   UNK N   1      29.243  16.834   2.299  0.00  0.00     0.150 HD
ENDBRANCH   4  45
TORSDOF 16
ENDMDL
MODEL 7
REMARK VINA RESULT:      -5.8      4.480      8.599
REMARK  16 active torsions:
REMARK  status: ('A' for Active; 'I' for Inactive)
REMARK    1  A    between atoms: C_1  and  C_7 
REMARK    2  A    between atoms: C_2  and  O_9 
REMARK    3  A    between atoms: C_3  and  N_10 
REMARK    4  A    between atoms: C_4  and  O_11 
REMARK    5  A    between atoms: C_5  and  O_12 
REMARK    6  A    between atoms: C_7  and  O_8 
REMARK    7  A    between atoms: C_13  and  O_12 
REMARK    8  A    between atoms: C_14  and  N_19 
REMARK    9  A    between atoms: C_16  and  N_20 
REMARK   10  A    between atoms: C_17  and  O_22 
REMARK   11  A    between atoms: C_18  and  O_21 
REMARK   12  A    between atoms: C_23  and  O_22 
REMARK   13  A    between atoms: C_25  and  C_29 
REMARK   14  A    between atoms: C_26  and  O_31 
REMARK   15  A    between atoms: C_28  and  N_32 
REMARK   16  A    between atoms: C_29  and  N_30 
ROOT
HETATM    1  C   UNK N   1      27.353  18.394   4.291  0.00  0.00     0.178 C 
HETATM    2  C   UNK N   1      27.895  17.017   3.893  0.00  0.00     0.107 C 
HETATM    3  C   UNK N   1      26.853  16.250   3.112  0.00  0.00     0.054 C 
HETATM    4  C   UNK N   1      25.661  15.972   4.005  0.00  0.00     0.107 C 
HETATM    5  C   UNK N   1      24.994  17.290   4.467  0.00  0.00     0.178 C 
HETATM    6  C   UNK N   1      26.050  18.225   5.095  0.00  0.00     0.180 C 
ENDROOT
BRANCH   1   7
HETATM    7  O   UNK N   1      28.303  19.021   5.116  0.00  0.00    -0.349 OA
BRANCH   7   8
HETATM    8  C   UNK N   1      28.626  18.140   6.160  0.00  0.00     0.291 C 
HETATM    9  C   UNK N   1      28.641  18.927   7.483  0.00  0.00     0.198 C 
HETATM   10  C   UNK N   1      29.065  18.004   8.618  0.00  0.00     0.139 C 
HETATM   11  C   UNK N   1      30.369  17.305   8.259  0.00  0.00     0.174 C 
HETATM   12  C   UNK N   1      30.193  16.634   6.886  0.00  0.00     0.179 C 
HETATM   13  O   UNK N   1      29.915  17.622   5.919  0.00  0.00    -0.349 OA
BRANCH   9  14
HETATM   14  O   UNK N   1      27.380  19.449   7.766  0.00  0.00    -0.388 OA
HETATM   15  H   UNK N   1      27.182  20.399   7.791  0.00  0.00     0.210 HD
ENDBRANCH   9  14
BRANCH  10  16
HETATM   16  N   UNK N   1      29.231  18.768   9.844  0.00  0.00    -0.421 N 
HETATM   17  H   UNK N   1      28.618  18.630  10.647  0.00  0.00     0.150 HD
HETATM   18  H   UNK N   1      29.979  19.459   9.902  0.00  0.00     0.150 HD
ENDBRANCH  10  16
BRANCH  11  19
HETATM   19  O   UNK N   1      30.667  16.361   9.246  0.00  0.00    -0.391 OA
HETATM   20  H   UNK N   1      31.189  16.428  10.060  0.00  0.00     0.210 HD
ENDBRANCH  11  19
BRANCH  12  21
HETATM   21  C   UNK N   1      31.466  15.907   6.468  0.00  0.00     0.198 C 
BRANCH  21  22
HETATM   22  O   UNK N   1      31.499  14.620   7.007  0.00  0.00    -0.398 OA
HETATM   23  H   UNK N   1      30.933  13.834   6.971  0.00  0.00     0.209 HD
ENDBRANCH  21  22
ENDBRANCH  12  21
ENDBRANCH   7   8
ENDBRANCH   1   7
BRANCH   2  24
HETATM   24  N   UNK N   1      29.082  17.149   3.073  0.00  0.00    -0.423 N 
HETATM   25  H   UNK N   1      29.133  16.933   2.078  0.00  0.00     0.150 HD
HETATM   26  H   UNK N   1      29.933  17.483   3.526  0.00  0.00     0.150 HD
ENDBRANCH   2  24
BRANCH   6  27
HETATM   27  O   UNK N   1      25.483  19.475   5.350  0.00  0.00    -0.390 OA
HETATM   28  H   UNK N   1      25.104  19.672   6.221  0.00  0.00     0.210 HD
ENDBRANCH   6  27
BRANCH   5  29
HETATM   29  O   UNK N   1      24.040  17.040   5.478  0.00  0.00    -0.349 OA
BRANCH  29  30
HETATM   30  C   UNK N   1      22.791  17.544   5.090  0.00  0.00     0.283 C 
HETATM   31  O   UNK N   1      22.985  18.360   3.957  0.00  0.00    -0.350 OA
HETATM   32  C   UNK N   1      21.782  19.044   3.718  0.00  0.00     0.170 C 
HETATM   33  C   UNK N   1      20.760  18.051   3.159  0.00  0.00     0.150 C 
HETATM   34  C   UNK N   1      20.521  16.973   4.215  0.00  0.00     0.064 C 
HETATM   35  C   UNK N   1      21.847  16.393   4.712  0.00  0.00     0.132 C 
BRANCH  32  36
HETATM   36  C   UNK N   1      22.037  20.175   2.733  0.00  0.00     0.145 C 
BRANCH  36  37
HETATM   37  N   UNK N   1      20.966  21.153   2.812  0.00  0.00    -0.428 N 
HETATM   38  H   UNK N   1      20.981  21.991   2.229  0.00  0.00     0.150 HD
HETATM   39  H   UNK N   1      20.190  21.001   3.457  0.00  0.00     0.150 HD
ENDBRANCH  36  37
ENDBRANCH  32  36
BRANCH  33  40
HETATM   40  O   UNK N   1      19.555  18.695   2.876  0.00  0.00    -0.393 OA
HETATM   41  H   UNK N   1      19.350  19.635   2.749  0.00  0.00     0.210 HD
ENDBRANCH  33  40
BRANCH  35  42
HETATM   42  N   UNK N   1      21.598  15.545   5.864  0.00  0.00    -0.422 N 
HETATM   43  H   UNK N   1      22.292  15.113   6.474  0.00  0.00     0.150 HD
HETATM   44  H   UNK N   1      20.620  15.359   6.087  0.00  0.00     0.150 HD
ENDBRANCH  35  42
ENDBRANCH  29  30
ENDBRANCH   5  29
BRANCH   4  45
HETATM   45  N   UNK N   1      24.731  15.153   3.248  0.00  0.00    -0.423 N 
HETATM   46  H   UNK N   1      24.303  15.333   2.341  0.00  0.00     0.150 HD
HETATM   47  H   UNK N   1      24.469  14.271   3.688  0.00  0.00     0.150 HD
ENDBRANCH   4  45
TORSDOF 16
ENDMDL
MODEL 8
REMARK VINA RESULT:      -5.7      4.644      7.604
REMARK  16 active torsions:
REMARK  status: ('A' for Active; 'I' for Inactive)
REMARK    1  A    between atoms: C_1  and  C_7 
REMARK    2  A    between atoms: C_2  and  O_9 
REMARK    3  A    between atoms: C_3  and  N_10 
REMARK    4  A    between atoms: C_4  and  O_11 
REMARK    5  A    between atoms: C_5  and  O_12 
REMARK    6  A    between atoms: C_7  and  O_8 
REMARK    7  A    between atoms: C_13  and  O_12 
REMARK    8  A    between atoms: C_14  and  N_19 
REMARK    9  A    between atoms: C_16  and  N_20 
REMARK   10  A    between atoms: C_17  and  O_22 
REMARK   11  A    between atoms: C_18  and  O_21 
REMARK   12  A    between atoms: C_23  and  O_22 
REMARK   13  A    between atoms: C_25  and  C_29 
REMARK   14  A    between atoms: C_26  and  O_31 
REMARK   15  A    between atoms: C_28  and  N_32 
REMARK   16  A    between atoms: C_29  and  N_30 
ROOT
HETATM    1  C   UNK N   1      27.109  17.605   5.149  0.00  0.00     0.178 C 
HETATM    2  C   UNK N   1      26.657  18.442   3.948  0.00  0.00     0.107 C 
HETATM    3  C   UNK N   1      25.232  18.907   4.140  0.00  0.00     0.054 C 
HETATM    4  C   UNK N   1      24.311  17.704   4.164  0.00  0.00     0.107 C 
HETATM    5  C   UNK N   1      24.643  16.774   5.356  0.00  0.00     0.178 C 
HETATM    6  C   UNK N   1      26.147  16.420   5.347  0.00  0.00     0.180 C 
ENDROOT
BRANCH   1   7
HETATM    7  O   UNK N   1      28.390  17.094   4.874  0.00  0.00    -0.349 OA
BRANCH   7   8
HETATM    8  C   UNK N   1      29.268  17.554   5.868  0.00  0.00     0.291 C 
HETATM    9  C   UNK N   1      30.612  16.817   5.718  0.00  0.00     0.198 C 
HETATM   10  C   UNK N   1      31.553  17.248   6.836  0.00  0.00     0.139 C 
HETATM   11  C   UNK N   1      30.866  17.086   8.185  0.00  0.00     0.174 C 
HETATM   12  C   UNK N   1      29.518  17.825   8.130  0.00  0.00     0.179 C 
HETATM   13  O   UNK N   1      28.712  17.246   7.127  0.00  0.00    -0.349 OA
BRANCH   9  14
HETATM   14  O   UNK N   1      31.202  17.103   4.489  0.00  0.00    -0.388 OA
HETATM   15  H   UNK N   1      31.427  18.000   4.194  0.00  0.00     0.210 HD
ENDBRANCH   9  14
BRANCH  10  16
HETATM   16  N   UNK N   1      32.768  16.449   6.798  0.00  0.00    -0.421 N 
HETATM   17  H   UNK N   1      33.668  16.858   6.549  0.00  0.00     0.150 HD
HETATM   18  H   UNK N   1      32.717  15.456   7.024  0.00  0.00     0.150 HD
ENDBRANCH  10  16
BRANCH  11  19
HETATM   19  O   UNK N   1      31.689  17.616   9.183  0.00  0.00    -0.391 OA
HETATM   20  H   UNK N   1      31.479  18.013  10.042  0.00  0.00     0.210 HD
ENDBRANCH  11  19
BRANCH  12  21
HETATM   21  C   UNK N   1      28.778  17.708   9.457  0.00  0.00     0.198 C 
BRANCH  21  22
HETATM   22  O   UNK N   1      27.456  18.135   9.325  0.00  0.00    -0.398 OA
HETATM   23  H   UNK N   1      26.700  18.260   9.919  0.00  0.00     0.209 HD
ENDBRANCH  21  22
ENDBRANCH  12  21
ENDBRANCH   7   8
ENDBRANCH   1   7
BRANCH   2  24
HETATM   24  N   UNK N   1      27.505  19.606   3.783  0.00  0.00    -0.423 N 
HETATM   25  H   UNK N   1      28.088  19.795   2.968  0.00  0.00     0.150 HD
HETATM   26  H   UNK N   1      27.518  20.290   4.540  0.00  0.00     0.150 HD
ENDBRANCH   2  24
BRANCH   6  27
HETATM   27  O   UNK N   1      26.477  15.728   6.514  0.00  0.00    -0.390 OA
HETATM   28  H   UNK N   1      27.406  15.585   6.753  0.00  0.00     0.210 HD
ENDBRANCH   6  27
BRANCH   5  29
HETATM   29  O   UNK N   1      23.951  15.548   5.242  0.00  0.00    -0.349 OA
BRANCH  29  30
HETATM   30  C   UNK N   1      23.084  15.388   6.333  0.00  0.00     0.283 C 
HETATM   31  O   UNK N   1      21.768  15.604   5.876  0.00  0.00    -0.350 OA
HETATM   32  C   UNK N   1      20.937  15.677   7.006  0.00  0.00     0.170 C 
HETATM   33  C   UNK N   1      20.788  14.271   7.593  0.00  0.00     0.150 C 
HETATM   34  C   UNK N   1      22.173  13.789   8.022  0.00  0.00     0.064 C 
HETATM   35  C   UNK N   1      23.185  13.960   6.887  0.00  0.00     0.132 C 
BRANCH  32  36
HETATM   36  C   UNK N   1      19.585  16.241   6.596  0.00  0.00     0.145 C 
BRANCH  36  37
HETATM   37  N   UNK N   1      19.331  15.955   5.194  0.00  0.00    -0.428 N 
HETATM   38  H   UNK N   1      19.929  15.308   4.678  0.00  0.00     0.150 HD
HETATM   39  H   UNK N   1      18.548  16.405   4.721  0.00  0.00     0.150 HD
ENDBRANCH  36  37
ENDBRANCH  32  36
BRANCH  33  40
HETATM   40  O   UNK N   1      19.942  14.290   8.702  0.00  0.00    -0.393 OA
HETATM   41  H   UNK N   1      19.016  14.019   8.801  0.00  0.00     0.210 HD
ENDBRANCH  33  40
BRANCH  35  42
HETATM   42  N   UNK N   1      24.523  13.709   7.396  0.00  0.00    -0.422 N 
HETATM   43  H   UNK N   1      24.799  13.581   8.369  0.00  0.00     0.150 HD
HETATM   44  H   UNK N   1      25.269  13.655   6.702  0.00  0.00     0.150 HD
ENDBRANCH  35  42
ENDBRANCH  29  30
ENDBRANCH   5  29
BRANCH   4  45
HETATM   45  N   UNK N   1      22.949  18.200   4.253  0.00  0.00    -0.423 N 
HETATM   46  H   UNK N   1      22.462  18.858   3.647  0.00  0.00     0.150 HD
HETATM   47  H   UNK N   1      22.403  17.837   5.034  0.00  0.00     0.150 HD
ENDBRANCH   4  45
TORSDOF 16
ENDMDL
MODEL 9
REMARK VINA RESULT:      -5.7      9.228     13.433
REMARK  16 active torsions:
REMARK  status: ('A' for Active; 'I' for Inactive)
REMARK    1  A    between atoms: C_1  and  C_7 
REMARK    2  A    between atoms: C_2  and  O_9 
REMARK    3  A    between atoms: C_3  and  N_10 
REMARK    4  A    between atoms: C_4  and  O_11 
REMARK    5  A    between atoms: C_5  and  O_12 
REMARK    6  A    between atoms: C_7  and  O_8 
REMARK    7  A    between atoms: C_13  and  O_12 
REMARK    8  A    between atoms: C_14  and  N_19 
REMARK    9  A    between atoms: C_16  and  N_20 
REMARK   10  A    between atoms: C_17  and  O_22 
REMARK   11  A    between atoms: C_18  and  O_21 
REMARK   12  A    between atoms: C_23  and  O_22 
REMARK   13  A    between atoms: C_25  and  C_29 
REMARK   14  A    between atoms: C_26  and  O_31 
REMARK   15  A    between atoms: C_28  and  N_32 
REMARK   16  A    between atoms: C_29  and  N_30 
ROOT
HETATM    1  C   UNK N   1      34.401  14.094   6.456  0.00  0.00     0.178 C 
HETATM    2  C   UNK N   1      33.873  13.127   5.391  0.00  0.00     0.107 C 
HETATM    3  C   UNK N   1      34.186  13.650   4.008  0.00  0.00     0.054 C 
HETATM    4  C   UNK N   1      33.439  14.948   3.782  0.00  0.00     0.107 C 
HETATM    5  C   UNK N   1      33.894  16.034   4.785  0.00  0.00     0.178 C 
HETATM    6  C   UNK N   1      33.801  15.493   6.229  0.00  0.00     0.180 C 
ENDROOT
BRANCH   1   7
HETATM    7  O   UNK N   1      33.982  13.633   7.717  0.00  0.00    -0.349 OA
BRANCH   7   8
HETATM    8  C   UNK N   1      35.068  13.728   8.601  0.00  0.00     0.291 C 
HETATM    9  C   UNK N   1      35.199  12.400   9.368  0.00  0.00     0.198 C 
HETATM   10  C   UNK N   1      36.324  12.512  10.388  0.00  0.00     0.139 C 
HETATM   11  C   UNK N   1      36.121  13.747  11.253  0.00  0.00     0.174 C 
HETATM   12  C   UNK N   1      35.943  14.960  10.324  0.00  0.00     0.179 C 
HETATM   13  O   UNK N   1      34.801  14.765   9.519  0.00  0.00    -0.349 OA
BRANCH   9  14
HETATM   14  O   UNK N   1      35.475  11.347   8.497  0.00  0.00    -0.388 OA
HETATM   15  H   UNK N   1      35.550  10.421   8.777  0.00  0.00     0.210 HD
ENDBRANCH   9  14
BRANCH  10  16
HETATM   16  N   UNK N   1      36.359  11.321  11.222  0.00  0.00    -0.421 N 
HETATM   17  H   UNK N   1      37.229  10.981  11.632  0.00  0.00     0.150 HD
HETATM   18  H   UNK N   1      35.493  10.813  11.400  0.00  0.00     0.150 HD
ENDBRANCH  10  16
BRANCH  11  19
HETATM   19  O   UNK N   1      37.233  13.911  12.084  0.00  0.00    -0.391 OA
HETATM   20  H   UNK N   1      37.303  14.176  13.014  0.00  0.00     0.210 HD
ENDBRANCH  11  19
BRANCH  12  21
HETATM   21  C   UNK N   1      35.740  16.238  11.130  0.00  0.00     0.198 C 
BRANCH  21  22
HETATM   22  O   UNK N   1      34.754  17.037  10.549  0.00  0.00    -0.398 OA
HETATM   23  H   UNK N   1      34.141  16.957   9.802  0.00  0.00     0.209 HD
ENDBRANCH  21  22
ENDBRANCH  12  21
ENDBRANCH   7   8
ENDBRANCH   1   7
BRANCH   2  24
HETATM   24  N   UNK N   1      34.479  11.818   5.538  0.00  0.00    -0.423 N 
HETATM   25  H   UNK N   1      34.024  10.934   5.312  0.00  0.00     0.150 HD
HETATM   26  H   UNK N   1      35.434  11.779   5.893  0.00  0.00     0.150 HD
ENDBRANCH   2  24
BRANCH   6  27
HETATM   27  O   UNK N   1      34.374  16.407   7.115  0.00  0.00    -0.390 OA
HETATM   28  H   UNK N   1      35.291  16.293   7.411  0.00  0.00     0.210 HD
ENDBRANCH   6  27
BRANCH   5  29
HETATM   29  O   UNK N   1      33.039  17.157   4.731  0.00  0.00    -0.349 OA
BRANCH  29  30
HETATM   30  C   UNK N   1      31.797  16.837   5.295  0.00  0.00     0.283 C 
HETATM   31  O   UNK N   1      31.786  17.317   6.621  0.00  0.00    -0.350 OA
HETATM   32  C   UNK N   1      30.646  16.791   7.250  0.00  0.00     0.170 C 
HETATM   33  C   UNK N   1      29.411  17.508   6.698  0.00  0.00     0.150 C 
HETATM   34  C   UNK N   1      29.330  17.224   5.198  0.00  0.00     0.064 C 
HETATM   35  C   UNK N   1      30.666  17.522   4.515  0.00  0.00     0.132 C 
BRANCH  32  36
HETATM   36  C   UNK N   1      30.766  16.995   8.753  0.00  0.00     0.145 C 
BRANCH  36  37
HETATM   37  N   UNK N   1      32.053  16.509   9.219  0.00  0.00    -0.428 N 
HETATM   38  H   UNK N   1      32.182  15.528   9.466  0.00  0.00     0.150 HD
HETATM   39  H   UNK N   1      32.837  17.157   9.301  0.00  0.00     0.150 HD
ENDBRANCH  36  37
ENDBRANCH  32  36
BRANCH  33  40
HETATM   40  O   UNK N   1      28.253  17.039   7.319  0.00  0.00    -0.393 OA
HETATM   41  H   UNK N   1      28.056  16.186   7.738  0.00  0.00     0.210 HD
ENDBRANCH  33  40
BRANCH  35  42
HETATM   42  N   UNK N   1      30.626  17.031   3.148  0.00  0.00    -0.422 N 
HETATM   43  H   UNK N   1      29.927  16.416   2.734  0.00  0.00     0.150 HD
HETATM   44  H   UNK N   1      31.382  17.336   2.535  0.00  0.00     0.150 HD
ENDBRANCH  35  42
ENDBRANCH  29  30
ENDBRANCH   5  29
BRANCH   4  45
HETATM   45  N   UNK N   1      33.690  15.363   2.413  0.00  0.00    -0.423 N 
HETATM   46  H   UNK N   1      33.061  15.809   1.748  0.00  0.00     0.150 HD
HETATM   47  H   UNK N   1      34.632  15.180   2.069  0.00  0.00     0.150 HD
ENDBRANCH   4  45
TORSDOF 16
ENDMDL
