MODEL 1
REMARK VINA RESULT:      -7.0      0.000      0.000
REMARK  32 active torsions:
REMARK  status: ('A' for Active; 'I' for Inactive)
REMARK    1  A    between atoms: C_1  and  O_14 
REMARK    2  A    between atoms: C_2  and  N_13 
REMARK    3  A    between atoms: C_6  and  N_20 
REMARK    4  A    between atoms: C_9  and  O_8 
REMARK    5  A    between atoms: C_9  and  C_10 
REMARK    6  A    between atoms: N_13  and  C_21 
REMARK       I    between atoms: N_20  and  C_74 
REMARK    7  A    between atoms: C_21  and  C_22 
REMARK    8  A    between atoms: C_22  and  N_23 
REMARK    9  A    between atoms: C_25  and  O_29 
REMARK   10  A    between atoms: C_32  and  O_34 
REMARK   11  A    between atoms: C_39  and  C_56 
REMARK   12  A    between atoms: C_43  and  C_45 
REMARK   13  A    between atoms: C_45  and  C_46 
REMARK   14  A    between atoms: C_45  and  O_48 
REMARK   15  A    between atoms: C_46  and  C_47 
REMARK   16  A    between atoms: C_52  and  O_55 
REMARK   17  A    between atoms: C_56  and  C_57 
REMARK   18  A    between atoms: C_56  and  O_60 
REMARK   19  A    between atoms: C_57  and  C_58 
REMARK   20  A    between atoms: C_58  and  N_59 
REMARK   21  A    between atoms: C_61  and  C_62 
REMARK   22  A    between atoms: C_61  and  C_66 
REMARK   23  A    between atoms: C_67  and  C_62 
REMARK   24  A    between atoms: C_63  and  C_64 
REMARK   25  A    between atoms: C_70  and  C_63 
REMARK   26  A    between atoms: C_64  and  C_65 
REMARK   27  A    between atoms: C_65  and  C_66 
REMARK   28  A    between atoms: C_67  and  C_68 
REMARK   29  A    between atoms: C_71  and  C_68 
REMARK   30  A    between atoms: C_69  and  C_70 
REMARK   31  A    between atoms: C_71  and  C_72 
REMARK   32  A    between atoms: C_74  and  C_72 
ROOT
HETATM    1  C   UNK N   1      26.942  17.069   4.585  0.00  0.00     0.182 C 
HETATM    2  O   UNK N   1      26.398  16.430   5.698  0.00  0.00    -0.388 OA
HETATM    3  H   UNK N   1      25.933  16.016   6.443  0.00  0.00     0.210 HD
ENDROOT
BRANCH   1   4
HETATM    4  C   UNK N   1      27.429  16.009   3.582  0.00  0.00     0.183 C 
BRANCH   4   5
HETATM    5  C   UNK N   1      28.819  16.320   3.003  0.00  0.00     0.208 C 
HETATM    6  N   UNK N   1      29.305  15.348   2.036  0.00  0.00    -0.344 N 
HETATM    7  C   UNK N   1      29.127  14.000   2.067  0.00  0.00     0.241 C 
HETATM    8  H   UNK N   1      29.822  15.705   1.278  0.00  0.00     0.163 HD
HETATM    9  C   UNK N   1      28.336  13.312   3.161  0.00  0.00     0.181 C 
HETATM   10  O   UNK N   1      29.619  13.325   1.176  0.00  0.00    -0.271 OA
HETATM   11  N   UNK N   1      29.138  12.287   3.780  0.00  0.00    -0.334 N 
HETATM   12  C   UNK N   1      27.150  12.562   2.562  0.00  0.00     0.068 C 
HETATM   13  C   UNK N   1      30.246  12.606   4.538  0.00  0.00     0.246 C 
HETATM   14  C   UNK N   1      28.682  10.956   3.490  0.00  0.00     0.158 C 
HETATM   15  C   UNK N   1      31.271  11.592   5.045  0.00  0.00     0.205 C 
HETATM   16  O   UNK N   1      30.479  13.777   4.778  0.00  0.00    -0.271 OA
HETATM   17  N   UNK N   1      32.534  11.957   4.445  0.00  0.00    -0.344 N 
HETATM   18  C   UNK N   1      33.675  12.289   5.106  0.00  0.00     0.241 C 
HETATM   19  H   UNK N   1      32.572  11.966   3.461  0.00  0.00     0.163 HD
HETATM   20  C   UNK N   1      33.811  12.321   6.627  0.00  0.00     0.179 C 
HETATM   21  O   UNK N   1      34.642  12.624   4.438  0.00  0.00    -0.271 OA
HETATM   22  C   UNK N   1      35.280  12.295   7.092  0.00  0.00     0.070 C 
HETATM   23  C   UNK N   1      35.478  11.801   8.525  0.00  0.00     0.162 C 
HETATM   24  C   UNK N   1      35.036  12.705   9.693  0.00  0.00     0.209 C 
HETATM   25  N   UNK N   1      34.018  13.722   9.484  0.00  0.00    -0.336 N 
HETATM   26  C   UNK N   1      34.152  14.812   8.684  0.00  0.00     0.244 C 
HETATM   27  H   UNK N   1      33.163  13.613   9.959  0.00  0.00     0.164 HD
HETATM   28  O   UNK N   1      35.148  14.966   7.990  0.00  0.00    -0.271 OA
HETATM   29  C   UNK N   1      33.095  15.885   8.745  0.00  0.00     0.208 C 
HETATM   30  N   UNK N   1      32.523  16.194   7.467  0.00  0.00    -0.334 N 
HETATM   31  C   UNK N   1      33.677  17.252   9.095  0.00  0.00     0.151 C 
HETATM   32  C   UNK N   1      33.277  17.187   6.736  0.00  0.00     0.129 C 
HETATM   33  C   UNK N   1      31.180  16.064   7.276  0.00  0.00     0.246 C 
HETATM   34  C   UNK N   1      34.209  17.799   7.774  0.00  0.00     0.054 C 
HETATM   35  O   UNK N   1      30.519  15.322   7.996  0.00  0.00    -0.271 OA
HETATM   36  C   UNK N   1      30.491  17.033   6.364  0.00  0.00     0.205 C 
HETATM   37  N   UNK N   1      29.623  16.470   5.358  0.00  0.00    -0.344 N 
HETATM   38  C   UNK N   1      29.878  16.635   4.034  0.00  0.00     0.243 C 
HETATM   39  H   UNK N   1      28.832  15.956   5.637  0.00  0.00     0.163 HD
HETATM   40  O   UNK N   1      30.943  17.110   3.667  0.00  0.00    -0.271 OA
HETATM   41  C   UNK N   1      27.577  11.103   2.467  0.00  0.00     0.138 C 
BRANCH  15  42
HETATM   42  C   UNK N   1      30.948  10.134   4.706  0.00  0.00     0.146 C 
HETATM   43  C   UNK N   1      30.321   9.425   5.890  0.00  0.00     0.042 C 
BRANCH  42  44
HETATM   44  O   UNK N   1      32.050   9.424   4.251  0.00  0.00    -0.393 OA
HETATM   45  H   UNK N   1      32.352   9.305   3.337  0.00  0.00     0.210 HD
ENDBRANCH  42  44
ENDBRANCH  15  42
BRANCH  20  46
HETATM   46  N   UNK N   1      32.942  11.457   7.411  0.00  0.00    -0.348 N 
HETATM   47  C   UNK N   1      33.103  10.131   7.661  0.00  0.00     0.218 C 
HETATM   48  O   UNK N   1      32.308   9.577   8.401  0.00  0.00    -0.274 OA
HETATM   49  H   UNK N   1      32.147  11.882   7.806  0.00  0.00     0.163 HD
BRANCH  47  50
HETATM   50  C   UNK N   1      34.144   9.288   6.987  0.00  0.00     0.103 C 
BRANCH  50  51
HETATM   51  C   UNK N   1      34.435   7.935   7.589  0.00  0.00     0.009 C 
BRANCH  51  52
HETATM   52  C   UNK N   1      35.211   8.147   8.882  0.00  0.00     0.000 C 
BRANCH  52  53
HETATM   53  C   UNK N   1      34.716   7.219   9.988  0.00  0.00     0.000 C 
BRANCH  53  54
HETATM   54  C   UNK N   1      34.757   7.871  11.363  0.00  0.00     0.000 C 
BRANCH  54  55
HETATM   55  C   UNK N   1      34.063   9.221  11.339  0.00  0.00     0.000 C 
BRANCH  55  56
HETATM   56  C   UNK N   1      34.691  10.114  12.393  0.00  0.00     0.000 C 
BRANCH  56  57
HETATM   57  C   UNK N   1      35.156   9.310  13.596  0.00  0.00     0.004 C 
BRANCH  57  58
HETATM   58  C   UNK N   1      34.724   9.990  14.886  0.00  0.00    -0.018 C 
HETATM   59  C   UNK N   1      33.486  10.820  14.610  0.00  0.00     0.010 C 
BRANCH  58  60
HETATM   60  C   UNK N   1      35.826  10.905  15.411  0.00  0.00     0.008 C 
BRANCH  60  61
HETATM   61  C   UNK N   1      36.034  10.775  16.922  0.00  0.00    -0.019 C 
HETATM   62  C   UNK N   1      35.557   9.441  17.468  0.00  0.00     0.010 C 
BRANCH  61  63
HETATM   63  C   UNK N   1      35.314  11.889  17.666  0.00  0.00    -0.000 C 
HETATM   64  C   UNK N   1      35.305  13.177  16.862  0.00  0.00     0.005 C 
ENDBRANCH  61  63
ENDBRANCH  60  61
ENDBRANCH  58  60
ENDBRANCH  57  58
ENDBRANCH  56  57
ENDBRANCH  55  56
ENDBRANCH  54  55
ENDBRANCH  53  54
ENDBRANCH  52  53
ENDBRANCH  51  52
ENDBRANCH  50  51
ENDBRANCH  47  50
ENDBRANCH  20  46
BRANCH  23  65
HETATM   65  O   UNK N   1      36.782  11.336   8.702  0.00  0.00    -0.392 OA
HETATM   66  H   UNK N   1      37.586  11.877   8.664  0.00  0.00     0.210 HD
ENDBRANCH  23  65
BRANCH  24  67
HETATM   67  N   UNK N   1      36.065  13.083  10.665  0.00  0.00    -0.398 N 
HETATM   68  H   UNK N   1      37.070  13.036  10.494  0.00  0.00     0.155 HD
BRANCH  67  69
HETATM   69  C   UNK N   1      35.455  13.533  11.904  0.00  0.00     0.135 C 
BRANCH  69  70
HETATM   70  C   UNK N   1      36.301  14.639  12.497  0.00  0.00     0.130 C 
BRANCH  70  71
HETATM   71  N   UNK N   1      36.521  15.665  11.495  0.00  0.00    -0.429 N 
HETATM   72  H   UNK N   1      37.141  16.178  10.869  0.00  0.00     0.149 HD
HETATM   73  H   UNK N   1      35.601  16.079  11.343  0.00  0.00     0.149 HD
ENDBRANCH  70  71
ENDBRANCH  69  70
ENDBRANCH  67  69
ENDBRANCH  24  67
BRANCH  36  74
HETATM   74  C   UNK N   1      29.751  18.059   7.222  0.00  0.00     0.151 C 
BRANCH  74  75
HETATM   75  C   UNK N   1      28.496  17.478   7.846  0.00  0.00     0.053 C 
BRANCH  75  76
HETATM   76  C   UNK N   1      28.387  17.912   9.303  0.00  0.00     0.113 C 
BRANCH  76  77
HETATM   77  N   UNK N   1      29.245  17.088  10.141  0.00  0.00    -0.430 N 
HETATM   78  H   UNK N   1      29.075  16.882  11.126  0.00  0.00     0.149 HD
HETATM   79  H   UNK N   1      30.080  16.687   9.712  0.00  0.00     0.149 HD
ENDBRANCH  76  77
ENDBRANCH  75  76
ENDBRANCH  74  75
BRANCH  74  80
HETATM   80  O   UNK N   1      30.585  18.617   8.195  0.00  0.00    -0.393 OA
HETATM   81  H   UNK N   1      31.131  18.531   8.992  0.00  0.00     0.210 HD
ENDBRANCH  74  80
ENDBRANCH  36  74
BRANCH  31  82
HETATM   82  O   UNK N   1      34.653  17.219  10.088  0.00  0.00    -0.393 OA
HETATM   83  H   UNK N   1      35.238  16.449  10.171  0.00  0.00     0.210 HD
ENDBRANCH  31  82
BRANCH  41  84
HETATM   84  O   UNK N   1      28.105  10.850   1.200  0.00  0.00    -0.394 OA
HETATM   85  H   UNK N   1      27.973  10.443   0.330  0.00  0.00     0.210 HD
ENDBRANCH  41  84
ENDBRANCH   4   5
BRANCH   4  86
HETATM   86  O   UNK N   1      26.486  15.769   2.577  0.00  0.00    -0.390 OA
HETATM   87  H   UNK N   1      25.554  16.000   2.722  0.00  0.00     0.210 HD
ENDBRANCH   4  86
ENDBRANCH   1   4
BRANCH   1  88
HETATM   88  C   UNK N   1      25.987  18.137   4.103  0.00  0.00    -0.027 A 
HETATM   89  C   UNK N   1      26.523  19.307   3.549  0.00  0.00     0.012 A 
HETATM   90  C   UNK N   1      25.686  20.354   3.156  0.00  0.00     0.037 A 
HETATM   91  C   UNK N   1      24.304  20.243   3.322  0.00  0.00     0.065 A 
HETATM   92  C   UNK N   1      23.757  19.076   3.863  0.00  0.00     0.037 A 
HETATM   93  C   UNK N   1      24.594  18.025   4.249  0.00  0.00     0.012 A 
BRANCH  91  94
HETATM   94  O   UNK N   1      23.502  21.260   2.967  0.00  0.00    -0.361 OA
HETATM   95  H   UNK N   1      22.616  21.107   2.700  0.00  0.00     0.217 HD
ENDBRANCH  91  94
ENDBRANCH   1  88
TORSDOF 32
ENDMDL
MODEL 2
REMARK VINA RESULT:      -7.0      2.391     11.740
REMARK  32 active torsions:
REMARK  status: ('A' for Active; 'I' for Inactive)
REMARK    1  A    between atoms: C_1  and  O_14 
REMARK    2  A    between atoms: C_2  and  N_13 
REMARK    3  A    between atoms: C_6  and  N_20 
REMARK    4  A    between atoms: C_9  and  O_8 
REMARK    5  A    between atoms: C_9  and  C_10 
REMARK    6  A    between atoms: N_13  and  C_21 
REMARK       I    between atoms: N_20  and  C_74 
REMARK    7  A    between atoms: C_21  and  C_22 
REMARK    8  A    between atoms: C_22  and  N_23 
REMARK    9  A    between atoms: C_25  and  O_29 
REMARK   10  A    between atoms: C_32  and  O_34 
REMARK   11  A    between atoms: C_39  and  C_56 
REMARK   12  A    between atoms: C_43  and  C_45 
REMARK   13  A    between atoms: C_45  and  C_46 
REMARK   14  A    between atoms: C_45  and  O_48 
REMARK   15  A    between atoms: C_46  and  C_47 
REMARK   16  A    between atoms: C_52  and  O_55 
REMARK   17  A    between atoms: C_56  and  C_57 
REMARK   18  A    between atoms: C_56  and  O_60 
REMARK   19  A    between atoms: C_57  and  C_58 
REMARK   20  A    between atoms: C_58  and  N_59 
REMARK   21  A    between atoms: C_61  and  C_62 
REMARK   22  A    between atoms: C_61  and  C_66 
REMARK   23  A    between atoms: C_67  and  C_62 
REMARK   24  A    between atoms: C_63  and  C_64 
REMARK   25  A    between atoms: C_70  and  C_63 
REMARK   26  A    between atoms: C_64  and  C_65 
REMARK   27  A    between atoms: C_65  and  C_66 
REMARK   28  A    between atoms: C_67  and  C_68 
REMARK   29  A    between atoms: C_71  and  C_68 
REMARK   30  A    between atoms: C_69  and  C_70 
REMARK   31  A    between atoms: C_71  and  C_72 
REMARK   32  A    between atoms: C_74  and  C_72 
ROOT
HETATM    1  C   UNK N   1      34.945  10.076  12.713  0.00  0.00     0.182 C 
HETATM    2  O   UNK N   1      33.601  10.438  12.633  0.00  0.00    -0.388 OA
HETATM    3  H   UNK N   1      32.665  10.692  12.674  0.00  0.00     0.210 HD
ENDROOT
BRANCH   1   4
HETATM    4  C   UNK N   1      35.813  11.252  12.233  0.00  0.00     0.183 C 
BRANCH   4   5
HETATM    5  C   UNK N   1      36.612  10.931  10.959  0.00  0.00     0.208 C 
HETATM    6  N   UNK N   1      37.301  12.068  10.371  0.00  0.00    -0.344 N 
HETATM    7  C   UNK N   1      36.856  13.353  10.306  0.00  0.00     0.241 C 
HETATM    8  H   UNK N   1      38.184  11.889   9.974  0.00  0.00     0.163 HD
HETATM    9  C   UNK N   1      35.525  13.780  10.892  0.00  0.00     0.181 C 
HETATM   10  O   UNK N   1      37.560  14.188   9.759  0.00  0.00    -0.271 OA
HETATM   11  N   UNK N   1      34.729  14.433   9.884  0.00  0.00    -0.334 N 
HETATM   12  C   UNK N   1      35.740  14.846  11.962  0.00  0.00     0.068 C 
HETATM   13  C   UNK N   1      34.229  13.734   8.804  0.00  0.00     0.246 C 
HETATM   14  C   UNK N   1      34.563  15.841  10.114  0.00  0.00     0.158 C 
HETATM   15  C   UNK N   1      33.568  14.378   7.586  0.00  0.00     0.205 C 
HETATM   16  O   UNK N   1      34.371  12.525   8.767  0.00  0.00    -0.271 OA
HETATM   17  N   UNK N   1      34.388  14.032   6.447  0.00  0.00    -0.344 N 
HETATM   18  C   UNK N   1      33.988  13.346   5.344  0.00  0.00     0.241 C 
HETATM   19  H   UNK N   1      35.329  14.320   6.474  0.00  0.00     0.163 HD
HETATM   20  C   UNK N   1      32.569  12.827   5.119  0.00  0.00     0.179 C 
HETATM   21  O   UNK N   1      34.830  13.093   4.495  0.00  0.00    -0.271 OA
HETATM   22  C   UNK N   1      32.287  12.489   3.643  0.00  0.00     0.070 C 
HETATM   23  C   UNK N   1      30.805  12.482   3.270  0.00  0.00     0.162 C 
HETATM   24  C   UNK N   1      29.910  11.340   3.790  0.00  0.00     0.209 C 
HETATM   25  N   UNK N   1      30.291  10.600   4.983  0.00  0.00    -0.336 N 
HETATM   26  C   UNK N   1      31.385   9.802   5.094  0.00  0.00     0.244 C 
HETATM   27  H   UNK N   1      29.710  10.684   5.773  0.00  0.00     0.164 HD
HETATM   28  O   UNK N   1      32.202   9.723   4.187  0.00  0.00    -0.271 OA
HETATM   29  C   UNK N   1      31.521   8.933   6.318  0.00  0.00     0.208 C 
HETATM   30  N   UNK N   1      32.759   9.121   7.016  0.00  0.00    -0.334 N 
HETATM   31  C   UNK N   1      31.656   7.454   5.966  0.00  0.00     0.151 C 
HETATM   32  C   UNK N   1      33.830   8.300   6.497  0.00  0.00     0.129 C 
HETATM   33  C   UNK N   1      32.750   9.503   8.324  0.00  0.00     0.246 C 
HETATM   34  C   UNK N   1      33.130   7.267   5.624  0.00  0.00     0.054 C 
HETATM   35  O   UNK N   1      31.774  10.077   8.797  0.00  0.00    -0.271 OA
HETATM   36  C   UNK N   1      33.821   8.976   9.230  0.00  0.00     0.205 C 
HETATM   37  N   UNK N   1      34.512   9.944  10.046  0.00  0.00    -0.344 N 
HETATM   38  C   UNK N   1      35.846  10.159   9.909  0.00  0.00     0.243 C 
HETATM   39  H   UNK N   1      34.007  10.460  10.715  0.00  0.00     0.163 HD
HETATM   40  O   UNK N   1      36.455   9.666   8.970  0.00  0.00    -0.271 OA
HETATM   41  C   UNK N   1      35.451  16.183  11.291  0.00  0.00     0.138 C 
BRANCH  15  42
HETATM   42  C   UNK N   1      33.426  15.901   7.667  0.00  0.00     0.146 C 
HETATM   43  C   UNK N   1      32.035  16.295   8.124  0.00  0.00     0.042 C 
BRANCH  42  44
HETATM   44  O   UNK N   1      33.738  16.541   6.476  0.00  0.00    -0.393 OA
HETATM   45  H   UNK N   1      34.443  16.326   5.845  0.00  0.00     0.210 HD
ENDBRANCH  42  44
ENDBRANCH  15  42
BRANCH  20  46
HETATM   46  N   UNK N   1      31.473  13.527   5.771  0.00  0.00    -0.348 N 
HETATM   47  C   UNK N   1      30.890  14.692   5.383  0.00  0.00     0.218 C 
HETATM   48  O   UNK N   1      29.931  15.102   6.014  0.00  0.00    -0.274 OA
HETATM   49  H   UNK N   1      31.112  13.108   6.585  0.00  0.00     0.163 HD
BRANCH  47  50
HETATM   50  C   UNK N   1      31.433  15.558   4.286  0.00  0.00     0.103 C 
BRANCH  50  51
HETATM   51  C   UNK N   1      30.539  16.654   3.761  0.00  0.00     0.009 C 
BRANCH  51  52
HETATM   52  C   UNK N   1      29.643  16.061   2.681  0.00  0.00     0.000 C 
BRANCH  52  53
HETATM   53  C   UNK N   1      28.171  16.143   3.070  0.00  0.00     0.000 C 
BRANCH  53  54
HETATM   54  C   UNK N   1      27.920  17.114   4.215  0.00  0.00     0.000 C 
BRANCH  54  55
HETATM   55  C   UNK N   1      26.828  18.103   3.852  0.00  0.00     0.000 C 
BRANCH  55  56
HETATM   56  C   UNK N   1      27.407  19.505   3.877  0.00  0.00     0.000 C 
BRANCH  56  57
HETATM   57  C   UNK N   1      28.095  19.798   5.201  0.00  0.00     0.004 C 
BRANCH  57  58
HETATM   58  C   UNK N   1      27.069  20.165   6.261  0.00  0.00    -0.018 C 
HETATM   59  C   UNK N   1      26.914  21.673   6.289  0.00  0.00     0.010 C 
BRANCH  58  60
HETATM   60  C   UNK N   1      27.519  19.690   7.639  0.00  0.00     0.008 C 
BRANCH  60  61
HETATM   61  C   UNK N   1      28.554  18.564   7.569  0.00  0.00    -0.019 C 
HETATM   62  C   UNK N   1      27.971  17.207   7.924  0.00  0.00     0.010 C 
BRANCH  61  63
HETATM   63  C   UNK N   1      29.725  18.847   8.497  0.00  0.00    -0.000 C 
HETATM   64  C   UNK N   1      29.440  18.370   9.910  0.00  0.00     0.005 C 
ENDBRANCH  61  63
ENDBRANCH  60  61
ENDBRANCH  58  60
ENDBRANCH  57  58
ENDBRANCH  56  57
ENDBRANCH  55  56
ENDBRANCH  54  55
ENDBRANCH  53  54
ENDBRANCH  52  53
ENDBRANCH  51  52
ENDBRANCH  50  51
ENDBRANCH  47  50
ENDBRANCH  20  46
BRANCH  23  65
HETATM   65  O   UNK N   1      30.649  12.671   1.896  0.00  0.00    -0.392 OA
HETATM   66  H   UNK N   1      29.813  12.856   1.442  0.00  0.00     0.210 HD
ENDBRANCH  23  65
BRANCH  24  67
HETATM   67  N   UNK N   1      29.216  10.531   2.785  0.00  0.00    -0.398 N 
HETATM   68  H   UNK N   1      29.636   9.755   2.273  0.00  0.00     0.155 HD
BRANCH  67  69
HETATM   69  C   UNK N   1      27.848  10.991   2.617  0.00  0.00     0.135 C 
BRANCH  69  70
HETATM   70  C   UNK N   1      27.461  10.865   1.159  0.00  0.00     0.130 C 
BRANCH  70  71
HETATM   71  N   UNK N   1      26.973   9.523   0.906  0.00  0.00    -0.429 N 
HETATM   72  H   UNK N   1      26.680   8.605   1.240  0.00  0.00     0.149 HD
HETATM   73  H   UNK N   1      26.872   9.472  -0.108  0.00  0.00     0.149 HD
ENDBRANCH  70  71
ENDBRANCH  69  70
ENDBRANCH  67  69
ENDBRANCH  24  67
BRANCH  36  74
HETATM   74  C   UNK N   1      33.222   7.858  10.084  0.00  0.00     0.151 C 
BRANCH  74  75
HETATM   75  C   UNK N   1      34.286   7.102  10.858  0.00  0.00     0.053 C 
BRANCH  75  76
HETATM   76  C   UNK N   1      35.073   6.198   9.918  0.00  0.00     0.113 C 
BRANCH  76  77
HETATM   77  N   UNK N   1      36.465   6.619   9.859  0.00  0.00    -0.430 N 
HETATM   78  H   UNK N   1      36.778   7.571   9.667  0.00  0.00     0.149 HD
HETATM   79  H   UNK N   1      37.180   5.909  10.020  0.00  0.00     0.149 HD
ENDBRANCH  76  77
ENDBRANCH  75  76
ENDBRANCH  74  75
BRANCH  74  80
HETATM   80  O   UNK N   1      32.224   8.338  10.936  0.00  0.00    -0.393 OA
HETATM   81  H   UNK N   1      31.291   8.414  11.188  0.00  0.00     0.210 HD
ENDBRANCH  74  80
ENDBRANCH  36  74
BRANCH  31  82
HETATM   82  O   UNK N   1      30.814   7.033   4.939  0.00  0.00    -0.393 OA
HETATM   83  H   UNK N   1      30.176   6.320   5.094  0.00  0.00     0.210 HD
ENDBRANCH  31  82
BRANCH  41  84
HETATM   84  O   UNK N   1      36.640  16.731  10.808  0.00  0.00    -0.394 OA
HETATM   85  H   UNK N   1      37.503  17.117  11.021  0.00  0.00     0.210 HD
ENDBRANCH  41  84
ENDBRANCH   4   5
BRANCH   4  86
HETATM   86  O   UNK N   1      36.632  11.746  13.253  0.00  0.00    -0.390 OA
HETATM   87  H   UNK N   1      37.538  12.031  13.053  0.00  0.00     0.210 HD
ENDBRANCH   4  86
ENDBRANCH   1   4
BRANCH   1  88
HETATM   88  C   UNK N   1      35.224   9.479  14.073  0.00  0.00    -0.027 A 
HETATM   89  C   UNK N   1      35.957   8.286  14.137  0.00  0.00     0.012 A 
HETATM   90  C   UNK N   1      36.179   7.655  15.364  0.00  0.00     0.037 A 
HETATM   91  C   UNK N   1      35.661   8.207  16.537  0.00  0.00     0.065 A 
HETATM   92  C   UNK N   1      34.937   9.402  16.487  0.00  0.00     0.037 A 
HETATM   93  C   UNK N   1      34.722  10.038  15.260  0.00  0.00     0.012 A 
BRANCH  91  94
HETATM   94  O   UNK N   1      35.853   7.586  17.712  0.00  0.00    -0.361 OA
HETATM   95  H   UNK N   1      36.554   7.837  18.282  0.00  0.00     0.217 HD
ENDBRANCH  91  94
ENDBRANCH   1  88
TORSDOF 32
ENDMDL
MODEL 3
REMARK VINA RESULT:      -6.9      2.393     11.911
REMARK  32 active torsions:
REMARK  status: ('A' for Active; 'I' for Inactive)
REMARK    1  A    between atoms: C_1  and  O_14 
REMARK    2  A    between atoms: C_2  and  N_13 
REMARK    3  A    between atoms: C_6  and  N_20 
REMARK    4  A    between atoms: C_9  and  O_8 
REMARK    5  A    between atoms: C_9  and  C_10 
REMARK    6  A    between atoms: N_13  and  C_21 
REMARK       I    between atoms: N_20  and  C_74 
REMARK    7  A    between atoms: C_21  and  C_22 
REMARK    8  A    between atoms: C_22  and  N_23 
REMARK    9  A    between atoms: C_25  and  O_29 
REMARK   10  A    between atoms: C_32  and  O_34 
REMARK   11  A    between atoms: C_39  and  C_56 
REMARK   12  A    between atoms: C_43  and  C_45 
REMARK   13  A    between atoms: C_45  and  C_46 
REMARK   14  A    between atoms: C_45  and  O_48 
REMARK   15  A    between atoms: C_46  and  C_47 
REMARK   16  A    between atoms: C_52  and  O_55 
REMARK   17  A    between atoms: C_56  and  C_57 
REMARK   18  A    between atoms: C_56  and  O_60 
REMARK   19  A    between atoms: C_57  and  C_58 
REMARK   20  A    between atoms: C_58  and  N_59 
REMARK   21  A    between atoms: C_61  and  C_62 
REMARK   22  A    between atoms: C_61  and  C_66 
REMARK   23  A    between atoms: C_67  and  C_62 
REMARK   24  A    between atoms: C_63  and  C_64 
REMARK   25  A    between atoms: C_70  and  C_63 
REMARK   26  A    between atoms: C_64  and  C_65 
REMARK   27  A    between atoms: C_65  and  C_66 
REMARK   28  A    between atoms: C_67  and  C_68 
REMARK   29  A    between atoms: C_71  and  C_68 
REMARK   30  A    between atoms: C_69  and  C_70 
REMARK   31  A    between atoms: C_71  and  C_72 
REMARK   32  A    between atoms: C_74  and  C_72 
ROOT
HETATM    1  C   UNK N   1      34.741  10.047  12.946  0.00  0.00     0.182 C 
HETATM    2  O   UNK N   1      33.415  10.472  12.880  0.00  0.00    -0.388 OA
HETATM    3  H   UNK N   1      32.494  10.773  12.931  0.00  0.00     0.210 HD
ENDROOT
BRANCH   1   4
HETATM    4  C   UNK N   1      35.655  11.161  12.408  0.00  0.00     0.183 C 
BRANCH   4   5
HETATM    5  C   UNK N   1      36.425  10.751  11.142  0.00  0.00     0.208 C 
HETATM    6  N   UNK N   1      37.155  11.831  10.498  0.00  0.00    -0.344 N 
HETATM    7  C   UNK N   1      36.766  13.130  10.382  0.00  0.00     0.241 C 
HETATM    8  H   UNK N   1      38.025  11.597  10.101  0.00  0.00     0.163 HD
HETATM    9  C   UNK N   1      35.462  13.640  10.961  0.00  0.00     0.181 C 
HETATM   10  O   UNK N   1      37.499  13.909   9.792  0.00  0.00    -0.271 OA
HETATM   11  N   UNK N   1      34.683  14.283   9.934  0.00  0.00    -0.334 N 
HETATM   12  C   UNK N   1      35.735  14.740  11.982  0.00  0.00     0.068 C 
HETATM   13  C   UNK N   1      34.141  13.561   8.890  0.00  0.00     0.246 C 
HETATM   14  C   UNK N   1      34.580  15.705  10.105  0.00  0.00     0.158 C 
HETATM   15  C   UNK N   1      33.493  14.180   7.652  0.00  0.00     0.205 C 
HETATM   16  O   UNK N   1      34.230  12.346   8.904  0.00  0.00    -0.271 OA
HETATM   17  N   UNK N   1      34.284  13.750   6.522  0.00  0.00    -0.344 N 
HETATM   18  C   UNK N   1      33.842  13.035   5.453  0.00  0.00     0.241 C 
HETATM   19  H   UNK N   1      35.237  13.998   6.527  0.00  0.00     0.163 HD
HETATM   20  C   UNK N   1      32.399  12.570   5.265  0.00  0.00     0.179 C 
HETATM   21  O   UNK N   1      34.662  12.709   4.608  0.00  0.00    -0.271 OA
HETATM   22  C   UNK N   1      32.085  12.181   3.807  0.00  0.00     0.070 C 
HETATM   23  C   UNK N   1      30.601  12.224   3.451  0.00  0.00     0.162 C 
HETATM   24  C   UNK N   1      29.663  11.145   4.028  0.00  0.00     0.209 C 
HETATM   25  N   UNK N   1      30.025  10.441   5.248  0.00  0.00    -0.336 N 
HETATM   26  C   UNK N   1      31.085   9.602   5.383  0.00  0.00     0.244 C 
HETATM   27  H   UNK N   1      29.458  10.585   6.040  0.00  0.00     0.164 HD
HETATM   28  O   UNK N   1      31.887   9.448   4.473  0.00  0.00    -0.271 OA
HETATM   29  C   UNK N   1      31.198   8.781   6.642  0.00  0.00     0.208 C 
HETATM   30  N   UNK N   1      32.451   8.944   7.319  0.00  0.00    -0.334 N 
HETATM   31  C   UNK N   1      31.264   7.284   6.354  0.00  0.00     0.151 C 
HETATM   32  C   UNK N   1      33.479   8.056   6.826  0.00  0.00     0.129 C 
HETATM   33  C   UNK N   1      32.473   9.382   8.609  0.00  0.00     0.246 C 
HETATM   34  C   UNK N   1      32.725   7.018   6.005  0.00  0.00     0.054 C 
HETATM   35  O   UNK N   1      31.529  10.018   9.067  0.00  0.00    -0.271 OA
HETATM   36  C   UNK N   1      33.531   8.848   9.527  0.00  0.00     0.205 C 
HETATM   37  N   UNK N   1      34.274   9.819  10.293  0.00  0.00    -0.344 N 
HETATM   38  C   UNK N   1      35.614   9.969  10.134  0.00  0.00     0.243 C 
HETATM   39  H   UNK N   1      33.799  10.385  10.944  0.00  0.00     0.163 HD
HETATM   40  O   UNK N   1      36.190   9.410   9.211  0.00  0.00    -0.271 OA
HETATM   41  C   UNK N   1      35.497  16.058  11.257  0.00  0.00     0.138 C 
BRANCH  15  42
HETATM   42  C   UNK N   1      33.418  15.710   7.669  0.00  0.00     0.146 C 
HETATM   43  C   UNK N   1      32.043  16.184   8.093  0.00  0.00     0.042 C 
BRANCH  42  44
HETATM   44  O   UNK N   1      33.770  16.285   6.456  0.00  0.00    -0.393 OA
HETATM   45  H   UNK N   1      33.188  16.681   5.787  0.00  0.00     0.210 HD
ENDBRANCH  42  44
ENDBRANCH  15  42
BRANCH  20  46
HETATM   46  N   UNK N   1      31.342  13.345   5.896  0.00  0.00    -0.348 N 
HETATM   47  C   UNK N   1      30.761  14.482   5.431  0.00  0.00     0.218 C 
HETATM   48  O   UNK N   1      29.836  14.964   6.062  0.00  0.00    -0.274 OA
HETATM   49  H   UNK N   1      31.010  13.006   6.759  0.00  0.00     0.163 HD
BRANCH  47  50
HETATM   50  C   UNK N   1      31.270  15.238   4.241  0.00  0.00     0.103 C 
BRANCH  50  51
HETATM   51  C   UNK N   1      31.039  16.728   4.216  0.00  0.00     0.009 C 
BRANCH  51  52
HETATM   52  C   UNK N   1      29.837  17.009   3.322  0.00  0.00     0.000 C 
BRANCH  52  53
HETATM   53  C   UNK N   1      29.333  15.735   2.650  0.00  0.00     0.000 C 
BRANCH  53  54
HETATM   54  C   UNK N   1      27.818  15.607   2.697  0.00  0.00     0.000 C 
BRANCH  54  55
HETATM   55  C   UNK N   1      27.307  15.778   4.117  0.00  0.00     0.000 C 
BRANCH  55  56
HETATM   56  C   UNK N   1      26.045  16.620   4.086  0.00  0.00     0.000 C 
BRANCH  56  57
HETATM   57  C   UNK N   1      26.221  17.851   3.212  0.00  0.00     0.004 C 
BRANCH  57  58
HETATM   58  C   UNK N   1      26.011  19.116   4.031  0.00  0.00    -0.018 C 
HETATM   59  C   UNK N   1      25.564  20.229   3.104  0.00  0.00     0.010 C 
BRANCH  58  60
HETATM   60  C   UNK N   1      27.306  19.536   4.719  0.00  0.00     0.008 C 
BRANCH  60  61
HETATM   61  C   UNK N   1      27.069  20.156   6.099  0.00  0.00    -0.019 C 
HETATM   62  C   UNK N   1      27.593  21.579   6.201  0.00  0.00     0.010 C 
BRANCH  61  63
HETATM   63  C   UNK N   1      27.722  19.320   7.188  0.00  0.00    -0.000 C 
HETATM   64  C   UNK N   1      28.598  18.229   6.599  0.00  0.00     0.005 C 
ENDBRANCH  61  63
ENDBRANCH  60  61
ENDBRANCH  58  60
ENDBRANCH  57  58
ENDBRANCH  56  57
ENDBRANCH  55  56
ENDBRANCH  54  55
ENDBRANCH  53  54
ENDBRANCH  52  53
ENDBRANCH  51  52
ENDBRANCH  50  51
ENDBRANCH  47  50
ENDBRANCH  20  46
BRANCH  23  65
HETATM   65  O   UNK N   1      30.436  12.360   2.071  0.00  0.00    -0.392 OA
HETATM   66  H   UNK N   1      31.123  12.214   1.403  0.00  0.00     0.210 HD
ENDBRANCH  23  65
BRANCH  24  67
HETATM   67  N   UNK N   1      28.923  10.325   3.066  0.00  0.00    -0.398 N 
HETATM   68  H   UNK N   1      29.351   9.770   2.325  0.00  0.00     0.155 HD
BRANCH  67  69
HETATM   69  C   UNK N   1      27.494  10.415   3.313  0.00  0.00     0.135 C 
BRANCH  69  70
HETATM   70  C   UNK N   1      26.783  10.685   2.004  0.00  0.00     0.130 C 
BRANCH  70  71
HETATM   71  N   UNK N   1      27.641  11.482   1.147  0.00  0.00    -0.429 N 
HETATM   72  H   UNK N   1      28.403  12.149   1.023  0.00  0.00     0.149 HD
HETATM   73  H   UNK N   1      27.325  11.273   0.200  0.00  0.00     0.149 HD
ENDBRANCH  70  71
ENDBRANCH  69  70
ENDBRANCH  67  69
ENDBRANCH  24  67
BRANCH  36  74
HETATM   74  C   UNK N   1      32.895   7.795  10.434  0.00  0.00     0.151 C 
BRANCH  74  75
HETATM   75  C   UNK N   1      32.217   6.695   9.640  0.00  0.00     0.053 C 
BRANCH  75  76
HETATM   76  C   UNK N   1      30.832   6.414  10.210  0.00  0.00     0.113 C 
BRANCH  76  77
HETATM   77  N   UNK N   1      29.904   7.468   9.827  0.00  0.00    -0.430 N 
HETATM   78  H   UNK N   1      29.956   8.003   8.960  0.00  0.00     0.149 HD
HETATM   79  H   UNK N   1      29.146   7.687  10.473  0.00  0.00     0.149 HD
ENDBRANCH  76  77
ENDBRANCH  75  76
ENDBRANCH  74  75
BRANCH  74  80
HETATM   80  O   UNK N   1      33.819   7.267  11.339  0.00  0.00    -0.393 OA
HETATM   81  H   UNK N   1      34.069   7.010  12.240  0.00  0.00     0.210 HD
ENDBRANCH  74  80
ENDBRANCH  36  74
BRANCH  31  82
HETATM   82  O   UNK N   1      30.393   6.857   5.354  0.00  0.00    -0.393 OA
HETATM   83  H   UNK N   1      30.108   5.930   5.320  0.00  0.00     0.210 HD
ENDBRANCH  31  82
BRANCH  41  84
HETATM   84  O   UNK N   1      36.702  16.533  10.739  0.00  0.00    -0.394 OA
HETATM   85  H   UNK N   1      37.665  16.425  10.688  0.00  0.00     0.210 HD
ENDBRANCH  41  84
ENDBRANCH   4   5
BRANCH   4  86
HETATM   86  O   UNK N   1      36.507  11.660  13.399  0.00  0.00    -0.390 OA
HETATM   87  H   UNK N   1      36.228  11.652  14.328  0.00  0.00     0.210 HD
ENDBRANCH   4  86
ENDBRANCH   1   4
BRANCH   1  88
HETATM   88  C   UNK N   1      35.019   9.483  14.320  0.00  0.00    -0.027 A 
HETATM   89  C   UNK N   1      34.511  10.165  15.434  0.00  0.00     0.012 A 
HETATM   90  C   UNK N   1      34.802   9.725  16.728  0.00  0.00     0.037 A 
HETATM   91  C   UNK N   1      35.611   8.604  16.920  0.00  0.00     0.065 A 
HETATM   92  C   UNK N   1      36.115   7.909  15.817  0.00  0.00     0.037 A 
HETATM   93  C   UNK N   1      35.817   8.344  14.521  0.00  0.00     0.012 A 
BRANCH  91  94
HETATM   94  O   UNK N   1      35.910   8.197  18.165  0.00  0.00    -0.361 OA
HETATM   95  H   UNK N   1      36.765   7.876  18.375  0.00  0.00     0.217 HD
ENDBRANCH  91  94
ENDBRANCH   1  88
TORSDOF 32
ENDMDL
MODEL 4
REMARK VINA RESULT:      -6.8      2.633     10.679
REMARK  32 active torsions:
REMARK  status: ('A' for Active; 'I' for Inactive)
REMARK    1  A    between atoms: C_1  and  O_14 
REMARK    2  A    between atoms: C_2  and  N_13 
REMARK    3  A    between atoms: C_6  and  N_20 
REMARK    4  A    between atoms: C_9  and  O_8 
REMARK    5  A    between atoms: C_9  and  C_10 
REMARK    6  A    between atoms: N_13  and  C_21 
REMARK       I    between atoms: N_20  and  C_74 
REMARK    7  A    between atoms: C_21  and  C_22 
REMARK    8  A    between atoms: C_22  and  N_23 
REMARK    9  A    between atoms: C_25  and  O_29 
REMARK   10  A    between atoms: C_32  and  O_34 
REMARK   11  A    between atoms: C_39  and  C_56 
REMARK   12  A    between atoms: C_43  and  C_45 
REMARK   13  A    between atoms: C_45  and  C_46 
REMARK   14  A    between atoms: C_45  and  O_48 
REMARK   15  A    between atoms: C_46  and  C_47 
REMARK   16  A    between atoms: C_52  and  O_55 
REMARK   17  A    between atoms: C_56  and  C_57 
REMARK   18  A    between atoms: C_56  and  O_60 
REMARK   19  A    between atoms: C_57  and  C_58 
REMARK   20  A    between atoms: C_58  and  N_59 
REMARK   21  A    between atoms: C_61  and  C_62 
REMARK   22  A    between atoms: C_61  and  C_66 
REMARK   23  A    between atoms: C_67  and  C_62 
REMARK   24  A    between atoms: C_63  and  C_64 
REMARK   25  A    between atoms: C_70  and  C_63 
REMARK   26  A    between atoms: C_64  and  C_65 
REMARK   27  A    between atoms: C_65  and  C_66 
REMARK   28  A    between atoms: C_67  and  C_68 
REMARK   29  A    between atoms: C_71  and  C_68 
REMARK   30  A    between atoms: C_69  and  C_70 
REMARK   31  A    between atoms: C_71  and  C_72 
REMARK   32  A    between atoms: C_74  and  C_72 
ROOT
HETATM    1  C   UNK N   1      35.443  13.049  10.907  0.00  0.00     0.182 C 
HETATM    2  O   UNK N   1      34.059  12.912  11.004  0.00  0.00    -0.388 OA
HETATM    3  H   UNK N   1      33.101  12.870  11.151  0.00  0.00     0.210 HD
ENDROOT
BRANCH   1   4
HETATM    4  C   UNK N   1      35.778  13.975   9.726  0.00  0.00     0.183 C 
BRANCH   4   5
HETATM    5  C   UNK N   1      36.373  13.227   8.522  0.00  0.00     0.208 C 
HETATM    6  N   UNK N   1      36.466  14.013   7.302  0.00  0.00    -0.344 N 
HETATM    7  C   UNK N   1      35.576  14.941   6.855  0.00  0.00     0.241 C 
HETATM    8  H   UNK N   1      37.257  13.856   6.738  0.00  0.00     0.163 HD
HETATM    9  C   UNK N   1      34.324  15.303   7.629  0.00  0.00     0.181 C 
HETATM   10  O   UNK N   1      35.802  15.503   5.795  0.00  0.00    -0.271 OA
HETATM   11  N   UNK N   1      33.163  15.142   6.791  0.00  0.00    -0.334 N 
HETATM   12  C   UNK N   1      34.337  16.785   7.987  0.00  0.00     0.068 C 
HETATM   13  C   UNK N   1      32.754  13.894   6.368  0.00  0.00     0.246 C 
HETATM   14  C   UNK N   1      32.539  16.387   6.439  0.00  0.00     0.158 C 
HETATM   15  C   UNK N   1      31.677  13.646   5.312  0.00  0.00     0.205 C 
HETATM   16  O   UNK N   1      33.320  12.908   6.805  0.00  0.00    -0.271 OA
HETATM   17  N   UNK N   1      32.327  12.952   4.224  0.00  0.00    -0.344 N 
HETATM   18  C   UNK N   1      31.999  11.724   3.740  0.00  0.00     0.241 C 
HETATM   19  H   UNK N   1      33.082  13.413   3.791  0.00  0.00     0.163 HD
HETATM   20  C   UNK N   1      30.856  10.865   4.276  0.00  0.00     0.179 C 
HETATM   21  O   UNK N   1      32.691  11.262   2.846  0.00  0.00    -0.271 OA
HETATM   22  C   UNK N   1      30.434   9.757   3.291  0.00  0.00     0.070 C 
HETATM   23  C   UNK N   1      29.017   9.230   3.507  0.00  0.00     0.162 C 
HETATM   24  C   UNK N   1      28.724   8.357   4.744  0.00  0.00     0.209 C 
HETATM   25  N   UNK N   1      29.577   8.450   5.919  0.00  0.00    -0.336 N 
HETATM   26  C   UNK N   1      30.886   8.092   5.968  0.00  0.00     0.244 C 
HETATM   27  H   UNK N   1      29.173   8.801   6.745  0.00  0.00     0.164 HD
HETATM   28  O   UNK N   1      31.480   7.737   4.959  0.00  0.00    -0.271 OA
HETATM   29  C   UNK N   1      31.569   8.040   7.310  0.00  0.00     0.208 C 
HETATM   30  N   UNK N   1      32.762   8.832   7.373  0.00  0.00    -0.334 N 
HETATM   31  C   UNK N   1      32.166   6.666   7.603  0.00  0.00     0.151 C 
HETATM   32  C   UNK N   1      33.936   8.123   6.916  0.00  0.00     0.129 C 
HETATM   33  C   UNK N   1      32.870   9.824   8.302  0.00  0.00     0.246 C 
HETATM   34  C   UNK N   1      33.508   6.661   6.879  0.00  0.00     0.054 C 
HETATM   35  O   UNK N   1      31.864  10.327   8.794  0.00  0.00    -0.271 OA
HETATM   36  C   UNK N   1      34.215  10.096   8.904  0.00  0.00     0.205 C 
HETATM   37  N   UNK N   1      34.648  11.473   8.925  0.00  0.00    -0.344 N 
HETATM   38  C   UNK N   1      35.755  11.874   8.249  0.00  0.00     0.243 C 
HETATM   39  H   UNK N   1      34.129  12.133   9.439  0.00  0.00     0.163 HD
HETATM   40  O   UNK N   1      36.305  11.116   7.464  0.00  0.00    -0.271 OA
HETATM   41  C   UNK N   1      33.452  17.477   6.958  0.00  0.00     0.138 C 
BRANCH  15  42
HETATM   42  C   UNK N   1      31.004  14.914   4.778  0.00  0.00     0.146 C 
HETATM   43  C   UNK N   1      29.674  15.156   5.464  0.00  0.00     0.042 C 
BRANCH  42  44
HETATM   44  O   UNK N   1      30.837  14.903   3.400  0.00  0.00    -0.393 OA
HETATM   45  H   UNK N   1      30.020  15.028   2.892  0.00  0.00     0.210 HD
ENDBRANCH  42  44
ENDBRANCH  15  42
BRANCH  20  46
HETATM   46  N   UNK N   1      29.730  11.538   4.904  0.00  0.00    -0.348 N 
HETATM   47  C   UNK N   1      28.702  12.180   4.288  0.00  0.00     0.218 C 
HETATM   48  O   UNK N   1      27.802  12.631   4.975  0.00  0.00    -0.274 OA
HETATM   49  H   UNK N   1      29.709  11.525   5.889  0.00  0.00     0.163 HD
BRANCH  47  50
HETATM   50  C   UNK N   1      28.673  12.460   2.816  0.00  0.00     0.103 C 
BRANCH  50  51
HETATM   51  C   UNK N   1      27.471  13.194   2.274  0.00  0.00     0.009 C 
BRANCH  51  52
HETATM   52  C   UNK N   1      27.842  14.662   2.114  0.00  0.00     0.000 C 
BRANCH  52  53
HETATM   53  C   UNK N   1      26.684  15.576   2.503  0.00  0.00     0.000 C 
BRANCH  53  54
HETATM   54  C   UNK N   1      26.564  15.762   4.009  0.00  0.00     0.000 C 
BRANCH  54  55
HETATM   55  C   UNK N   1      26.566  17.237   4.370  0.00  0.00     0.000 C 
BRANCH  55  56
HETATM   56  C   UNK N   1      27.835  17.872   3.834  0.00  0.00     0.000 C 
BRANCH  56  57
HETATM   57  C   UNK N   1      28.569  18.646   4.917  0.00  0.00     0.004 C 
BRANCH  57  58
HETATM   58  C   UNK N   1      27.576  19.322   5.849  0.00  0.00    -0.018 C 
HETATM   59  C   UNK N   1      27.505  20.797   5.503  0.00  0.00     0.010 C 
BRANCH  58  60
HETATM   60  C   UNK N   1      28.012  19.177   7.303  0.00  0.00     0.008 C 
BRANCH  60  61
HETATM   61  C   UNK N   1      28.630  17.809   7.603  0.00  0.00    -0.019 C 
HETATM   62  C   UNK N   1      27.684  16.889   8.354  0.00  0.00     0.010 C 
BRANCH  61  63
HETATM   63  C   UNK N   1      29.907  17.958   8.415  0.00  0.00    -0.000 C 
HETATM   64  C   UNK N   1      29.681  18.806   9.654  0.00  0.00     0.005 C 
ENDBRANCH  61  63
ENDBRANCH  60  61
ENDBRANCH  58  60
ENDBRANCH  57  58
ENDBRANCH  56  57
ENDBRANCH  55  56
ENDBRANCH  54  55
ENDBRANCH  53  54
ENDBRANCH  52  53
ENDBRANCH  51  52
ENDBRANCH  50  51
ENDBRANCH  47  50
ENDBRANCH  20  46
BRANCH  23  65
HETATM   65  O   UNK N   1      28.536   8.637   2.338  0.00  0.00    -0.392 OA
HETATM   66  H   UNK N   1      29.042   8.058   1.748  0.00  0.00     0.210 HD
ENDBRANCH  23  65
BRANCH  24  67
HETATM   67  N   UNK N   1      28.194   7.015   4.498  0.00  0.00    -0.398 N 
HETATM   68  H   UNK N   1      28.342   6.479   3.642  0.00  0.00     0.155 HD
BRANCH  67  69
HETATM   69  C   UNK N   1      27.426   6.553   5.642  0.00  0.00     0.135 C 
BRANCH  69  70
HETATM   70  C   UNK N   1      26.089   7.261   5.657  0.00  0.00     0.130 C 
BRANCH  70  71
HETATM   71  N   UNK N   1      25.569   7.279   7.011  0.00  0.00    -0.429 N 
HETATM   72  H   UNK N   1      25.040   7.734   7.755  0.00  0.00     0.149 HD
HETATM   73  H   UNK N   1      25.895   6.404   7.424  0.00  0.00     0.149 HD
ENDBRANCH  70  71
ENDBRANCH  69  70
ENDBRANCH  67  69
ENDBRANCH  24  67
BRANCH  36  74
HETATM   74  C   UNK N   1      34.249   9.484  10.304  0.00  0.00     0.151 C 
BRANCH  74  75
HETATM   75  C   UNK N   1      35.664   9.352  10.833  0.00  0.00     0.053 C 
BRANCH  75  76
HETATM   76  C   UNK N   1      35.679   8.471  12.076  0.00  0.00     0.113 C 
BRANCH  76  77
HETATM   77  N   UNK N   1      34.672   7.425  11.966  0.00  0.00    -0.430 N 
HETATM   78  H   UNK N   1      34.065   7.283  11.159  0.00  0.00     0.149 HD
HETATM   79  H   UNK N   1      34.566   6.788  12.756  0.00  0.00     0.149 HD
ENDBRANCH  76  77
ENDBRANCH  75  76
ENDBRANCH  74  75
BRANCH  74  80
HETATM   80  O   UNK N   1      33.441  10.192  11.198  0.00  0.00    -0.393 OA
HETATM   81  H   UNK N   1      32.863  10.222  11.975  0.00  0.00     0.210 HD
ENDBRANCH  74  80
ENDBRANCH  36  74
BRANCH  31  82
HETATM   82  O   UNK N   1      31.354   5.599   7.225  0.00  0.00    -0.393 OA
HETATM   83  H   UNK N   1      30.483   5.482   7.635  0.00  0.00     0.210 HD
ENDBRANCH  31  82
BRANCH  41  84
HETATM   84  O   UNK N   1      34.236  17.943   5.903  0.00  0.00    -0.394 OA
HETATM   85  H   UNK N   1      34.669  18.704   5.484  0.00  0.00     0.210 HD
ENDBRANCH  41  84
ENDBRANCH   4   5
BRANCH   4  86
HETATM   86  O   UNK N   1      36.578  15.053  10.119  0.00  0.00    -0.390 OA
HETATM   87  H   UNK N   1      37.538  15.021   9.980  0.00  0.00     0.210 HD
ENDBRANCH   4  86
ENDBRANCH   1   4
BRANCH   1  88
HETATM   88  C   UNK N   1      36.011  13.378  12.269  0.00  0.00    -0.027 A 
HETATM   89  C   UNK N   1      36.506  12.329  13.054  0.00  0.00     0.012 A 
HETATM   90  C   UNK N   1      36.975  12.571  14.348  0.00  0.00     0.037 A 
HETATM   91  C   UNK N   1      36.942  13.865  14.872  0.00  0.00     0.065 A 
HETATM   92  C   UNK N   1      36.460  14.921  14.094  0.00  0.00     0.037 A 
HETATM   93  C   UNK N   1      35.999  14.680  12.796  0.00  0.00     0.012 A 
BRANCH  91  94
HETATM   94  O   UNK N   1      37.369  14.092  16.125  0.00  0.00    -0.361 OA
HETATM   95  H   UNK N   1      38.168  13.715  16.439  0.00  0.00     0.217 HD
ENDBRANCH  91  94
ENDBRANCH   1  88
TORSDOF 32
ENDMDL
MODEL 5
REMARK VINA RESULT:      -6.6      2.640     11.069
REMARK  32 active torsions:
REMARK  status: ('A' for Active; 'I' for Inactive)
REMARK    1  A    between atoms: C_1  and  O_14 
REMARK    2  A    between atoms: C_2  and  N_13 
REMARK    3  A    between atoms: C_6  and  N_20 
REMARK    4  A    between atoms: C_9  and  O_8 
REMARK    5  A    between atoms: C_9  and  C_10 
REMARK    6  A    between atoms: N_13  and  C_21 
REMARK       I    between atoms: N_20  and  C_74 
REMARK    7  A    between atoms: C_21  and  C_22 
REMARK    8  A    between atoms: C_22  and  N_23 
REMARK    9  A    between atoms: C_25  and  O_29 
REMARK   10  A    between atoms: C_32  and  O_34 
REMARK   11  A    between atoms: C_39  and  C_56 
REMARK   12  A    between atoms: C_43  and  C_45 
REMARK   13  A    between atoms: C_45  and  C_46 
REMARK   14  A    between atoms: C_45  and  O_48 
REMARK   15  A    between atoms: C_46  and  C_47 
REMARK   16  A    between atoms: C_52  and  O_55 
REMARK   17  A    between atoms: C_56  and  C_57 
REMARK   18  A    between atoms: C_56  and  O_60 
REMARK   19  A    between atoms: C_57  and  C_58 
REMARK   20  A    between atoms: C_58  and  N_59 
REMARK   21  A    between atoms: C_61  and  C_62 
REMARK   22  A    between atoms: C_61  and  C_66 
REMARK   23  A    between atoms: C_67  and  C_62 
REMARK   24  A    between atoms: C_63  and  C_64 
REMARK   25  A    between atoms: C_70  and  C_63 
REMARK   26  A    between atoms: C_64  and  C_65 
REMARK   27  A    between atoms: C_65  and  C_66 
REMARK   28  A    between atoms: C_67  and  C_68 
REMARK   29  A    between atoms: C_71  and  C_68 
REMARK   30  A    between atoms: C_69  and  C_70 
REMARK   31  A    between atoms: C_71  and  C_72 
REMARK   32  A    between atoms: C_74  and  C_72 
ROOT
HETATM    1  C   UNK N   1      35.171  12.595  11.524  0.00  0.00     0.182 C 
HETATM    2  O   UNK N   1      34.244  13.263  12.322  0.00  0.00    -0.388 OA
HETATM    3  H   UNK N   1      33.665  13.731  12.945  0.00  0.00     0.210 HD
ENDROOT
BRANCH   1   4
HETATM    4  C   UNK N   1      35.622  13.527  10.386  0.00  0.00     0.183 C 
BRANCH   4   5
HETATM    5  C   UNK N   1      36.286  12.777   9.220  0.00  0.00     0.208 C 
HETATM    6  N   UNK N   1      36.540  13.589   8.041  0.00  0.00    -0.344 N 
HETATM    7  C   UNK N   1      35.752  14.581   7.543  0.00  0.00     0.241 C 
HETATM    8  H   UNK N   1      37.371  13.400   7.548  0.00  0.00     0.163 HD
HETATM    9  C   UNK N   1      34.455  14.996   8.207  0.00  0.00     0.181 C 
HETATM   10  O   UNK N   1      36.111  15.157   6.527  0.00  0.00    -0.271 OA
HETATM   11  N   UNK N   1      33.372  14.928   7.259  0.00  0.00    -0.334 N 
HETATM   12  C   UNK N   1      34.519  16.465   8.613  0.00  0.00     0.068 C 
HETATM   13  C   UNK N   1      32.934  13.719   6.758  0.00  0.00     0.246 C 
HETATM   14  C   UNK N   1      32.857  16.218   6.890  0.00  0.00     0.158 C 
HETATM   15  C   UNK N   1      31.951  13.566   5.598  0.00  0.00     0.205 C 
HETATM   16  O   UNK N   1      33.398  12.690   7.214  0.00  0.00    -0.271 OA
HETATM   17  N   UNK N   1      32.661  12.864   4.554  0.00  0.00    -0.344 N 
HETATM   18  C   UNK N   1      32.311  11.671   4.001  0.00  0.00     0.241 C 
HETATM   19  H   UNK N   1      33.479  13.290   4.209  0.00  0.00     0.163 HD
HETATM   20  C   UNK N   1      31.074  10.868   4.399  0.00  0.00     0.179 C 
HETATM   21  O   UNK N   1      33.058  11.193   3.161  0.00  0.00    -0.271 OA
HETATM   22  C   UNK N   1      30.686   9.815   3.343  0.00  0.00     0.070 C 
HETATM   23  C   UNK N   1      29.226   9.368   3.407  0.00  0.00     0.162 C 
HETATM   24  C   UNK N   1      28.767   8.482   4.582  0.00  0.00     0.209 C 
HETATM   25  N   UNK N   1      29.507   8.491   5.834  0.00  0.00    -0.336 N 
HETATM   26  C   UNK N   1      30.782   8.054   5.994  0.00  0.00     0.244 C 
HETATM   27  H   UNK N   1      29.046   8.843   6.630  0.00  0.00     0.164 HD
HETATM   28  O   UNK N   1      31.449   7.691   5.035  0.00  0.00    -0.271 OA
HETATM   29  C   UNK N   1      31.330   7.924   7.392  0.00  0.00     0.208 C 
HETATM   30  N   UNK N   1      32.555   8.640   7.594  0.00  0.00    -0.334 N 
HETATM   31  C   UNK N   1      31.816   6.509   7.695  0.00  0.00     0.151 C 
HETATM   32  C   UNK N   1      33.724   7.875   7.225  0.00  0.00     0.129 C 
HETATM   33  C   UNK N   1      32.630   9.598   8.560  0.00  0.00     0.246 C 
HETATM   34  C   UNK N   1      33.219   6.443   7.100  0.00  0.00     0.054 C 
HETATM   35  O   UNK N   1      31.613  10.147   8.972  0.00  0.00    -0.271 OA
HETATM   36  C   UNK N   1      33.925   9.773   9.294  0.00  0.00     0.205 C 
HETATM   37  N   UNK N   1      34.432  11.120   9.401  0.00  0.00    -0.344 N 
HETATM   38  C   UNK N   1      35.620  11.472   8.845  0.00  0.00     0.243 C 
HETATM   39  H   UNK N   1      33.906  11.796   9.885  0.00  0.00     0.163 HD
HETATM   40  O   UNK N   1      36.198  10.703   8.091  0.00  0.00    -0.271 OA
HETATM   41  C   UNK N   1      33.778  17.237   7.529  0.00  0.00     0.138 C 
BRANCH  15  42
HETATM   42  C   UNK N   1      31.406  14.886   5.045  0.00  0.00     0.146 C 
HETATM   43  C   UNK N   1      30.033  15.190   5.611  0.00  0.00     0.042 C 
BRANCH  42  44
HETATM   44  O   UNK N   1      31.371  14.922   3.658  0.00  0.00    -0.393 OA
HETATM   45  H   UNK N   1      32.073  15.195   3.046  0.00  0.00     0.210 HD
ENDBRANCH  42  44
ENDBRANCH  15  42
BRANCH  20  46
HETATM   46  N   UNK N   1      29.933  11.590   4.940  0.00  0.00    -0.348 N 
HETATM   47  C   UNK N   1      29.022  12.331   4.255  0.00  0.00     0.218 C 
HETATM   48  O   UNK N   1      28.085  12.813   4.866  0.00  0.00    -0.274 OA
HETATM   49  H   UNK N   1      29.806  11.536   5.915  0.00  0.00     0.163 HD
BRANCH  47  50
HETATM   50  C   UNK N   1      29.170  12.677   2.804  0.00  0.00     0.103 C 
BRANCH  50  51
HETATM   51  C   UNK N   1      27.990  13.325   2.123  0.00  0.00     0.009 C 
BRANCH  51  52
HETATM   52  C   UNK N   1      28.203  14.833   2.134  0.00  0.00     0.000 C 
BRANCH  52  53
HETATM   53  C   UNK N   1      26.911  15.576   2.460  0.00  0.00     0.000 C 
BRANCH  53  54
HETATM   54  C   UNK N   1      26.988  16.338   3.776  0.00  0.00     0.000 C 
BRANCH  54  55
HETATM   55  C   UNK N   1      28.024  17.445   3.697  0.00  0.00     0.000 C 
BRANCH  55  56
HETATM   56  C   UNK N   1      27.332  18.780   3.893  0.00  0.00     0.000 C 
BRANCH  56  57
HETATM   57  C   UNK N   1      28.070  19.645   4.903  0.00  0.00     0.004 C 
BRANCH  57  58
HETATM   58  C   UNK N   1      27.228  19.833   6.155  0.00  0.00    -0.018 C 
HETATM   59  C   UNK N   1      26.751  21.271   6.212  0.00  0.00     0.010 C 
BRANCH  58  60
HETATM   60  C   UNK N   1      28.045  19.533   7.407  0.00  0.00     0.008 C 
BRANCH  60  61
HETATM   61  C   UNK N   1      28.694  18.148   7.375  0.00  0.00    -0.019 C 
HETATM   62  C   UNK N   1      27.726  17.036   7.740  0.00  0.00     0.010 C 
BRANCH  61  63
HETATM   63  C   UNK N   1      29.883  18.085   8.320  0.00  0.00    -0.000 C 
HETATM   64  C   UNK N   1      29.496  18.503   9.727  0.00  0.00     0.005 C 
ENDBRANCH  61  63
ENDBRANCH  60  61
ENDBRANCH  58  60
ENDBRANCH  57  58
ENDBRANCH  56  57
ENDBRANCH  55  56
ENDBRANCH  54  55
ENDBRANCH  53  54
ENDBRANCH  52  53
ENDBRANCH  51  52
ENDBRANCH  50  51
ENDBRANCH  47  50
ENDBRANCH  20  46
BRANCH  23  65
HETATM   65  O   UNK N   1      28.826   8.838   2.179  0.00  0.00    -0.392 OA
HETATM   66  H   UNK N   1      29.248   8.096   1.720  0.00  0.00     0.210 HD
ENDBRANCH  23  65
BRANCH  24  67
HETATM   67  N   UNK N   1      28.186   7.181   4.244  0.00  0.00    -0.398 N 
HETATM   68  H   UNK N   1      28.602   6.509   3.599  0.00  0.00     0.155 HD
BRANCH  67  69
HETATM   69  C   UNK N   1      26.934   6.982   4.953  0.00  0.00     0.135 C 
BRANCH  69  70
HETATM   70  C   UNK N   1      25.860   7.827   4.304  0.00  0.00     0.130 C 
BRANCH  70  71
HETATM   71  N   UNK N   1      24.964   8.334   5.327  0.00  0.00    -0.429 N 
HETATM   72  H   UNK N   1      24.023   8.486   5.689  0.00  0.00     0.149 HD
HETATM   73  H   UNK N   1      25.580   8.739   6.032  0.00  0.00     0.149 HD
ENDBRANCH  70  71
ENDBRANCH  69  70
ENDBRANCH  67  69
ENDBRANCH  24  67
BRANCH  36  74
HETATM   74  C   UNK N   1      33.789   9.121  10.671  0.00  0.00     0.151 C 
BRANCH  74  75
HETATM   75  C   UNK N   1      35.107   8.554  11.163  0.00  0.00     0.053 C 
BRANCH  75  76
HETATM   76  C   UNK N   1      35.668   7.572  10.142  0.00  0.00     0.113 C 
BRANCH  76  77
HETATM   77  N   UNK N   1      36.915   8.078   9.586  0.00  0.00    -0.430 N 
HETATM   78  H   UNK N   1      37.071   8.288   8.601  0.00  0.00     0.149 HD
HETATM   79  H   UNK N   1      37.690   8.234  10.231  0.00  0.00     0.149 HD
ENDBRANCH  76  77
ENDBRANCH  75  76
ENDBRANCH  74  75
BRANCH  74  80
HETATM   80  O   UNK N   1      33.239  10.001  11.606  0.00  0.00    -0.393 OA
HETATM   81  H   UNK N   1      33.337  10.622  12.344  0.00  0.00     0.210 HD
ENDBRANCH  74  80
ENDBRANCH  36  74
BRANCH  31  82
HETATM   82  O   UNK N   1      30.984   5.504   7.208  0.00  0.00    -0.393 OA
HETATM   83  H   UNK N   1      31.188   5.071   6.364  0.00  0.00     0.210 HD
ENDBRANCH  31  82
BRANCH  41  84
HETATM   84  O   UNK N   1      34.685  17.683   6.567  0.00  0.00    -0.394 OA
HETATM   85  H   UNK N   1      35.004  18.426   6.033  0.00  0.00     0.210 HD
ENDBRANCH  41  84
ENDBRANCH   4   5
BRANCH   4  86
HETATM   86  O   UNK N   1      36.421  14.574  10.856  0.00  0.00    -0.390 OA
HETATM   87  H   UNK N   1      37.310  14.390  11.198  0.00  0.00     0.210 HD
ENDBRANCH   4  86
ENDBRANCH   1   4
BRANCH   1  88
HETATM   88  C   UNK N   1      36.226  11.963  12.403  0.00  0.00    -0.027 A 
HETATM   89  C   UNK N   1      36.443  12.507  13.677  0.00  0.00     0.012 A 
HETATM   90  C   UNK N   1      37.455  12.005  14.499  0.00  0.00     0.037 A 
HETATM   91  C   UNK N   1      38.266  10.961  14.051  0.00  0.00     0.065 A 
HETATM   92  C   UNK N   1      38.052  10.403  12.787  0.00  0.00     0.037 A 
HETATM   93  C   UNK N   1      37.033  10.899  11.967  0.00  0.00     0.012 A 
BRANCH  91  94
HETATM   94  O   UNK N   1      39.255  10.497  14.832  0.00  0.00    -0.361 OA
HETATM   95  H   UNK N   1      40.127  10.404  14.503  0.00  0.00     0.217 HD
ENDBRANCH  91  94
ENDBRANCH   1  88
TORSDOF 32
ENDMDL
MODEL 6
REMARK VINA RESULT:      -6.6      1.515      2.154
REMARK  32 active torsions:
REMARK  status: ('A' for Active; 'I' for Inactive)
REMARK    1  A    between atoms: C_1  and  O_14 
REMARK    2  A    between atoms: C_2  and  N_13 
REMARK    3  A    between atoms: C_6  and  N_20 
REMARK    4  A    between atoms: C_9  and  O_8 
REMARK    5  A    between atoms: C_9  and  C_10 
REMARK    6  A    between atoms: N_13  and  C_21 
REMARK       I    between atoms: N_20  and  C_74 
REMARK    7  A    between atoms: C_21  and  C_22 
REMARK    8  A    between atoms: C_22  and  N_23 
REMARK    9  A    between atoms: C_25  and  O_29 
REMARK   10  A    between atoms: C_32  and  O_34 
REMARK   11  A    between atoms: C_39  and  C_56 
REMARK   12  A    between atoms: C_43  and  C_45 
REMARK   13  A    between atoms: C_45  and  C_46 
REMARK   14  A    between atoms: C_45  and  O_48 
REMARK   15  A    between atoms: C_46  and  C_47 
REMARK   16  A    between atoms: C_52  and  O_55 
REMARK   17  A    between atoms: C_56  and  C_57 
REMARK   18  A    between atoms: C_56  and  O_60 
REMARK   19  A    between atoms: C_57  and  C_58 
REMARK   20  A    between atoms: C_58  and  N_59 
REMARK   21  A    between atoms: C_61  and  C_62 
REMARK   22  A    between atoms: C_61  and  C_66 
REMARK   23  A    between atoms: C_67  and  C_62 
REMARK   24  A    between atoms: C_63  and  C_64 
REMARK   25  A    between atoms: C_70  and  C_63 
REMARK   26  A    between atoms: C_64  and  C_65 
REMARK   27  A    between atoms: C_65  and  C_66 
REMARK   28  A    between atoms: C_67  and  C_68 
REMARK   29  A    between atoms: C_71  and  C_68 
REMARK   30  A    between atoms: C_69  and  C_70 
REMARK   31  A    between atoms: C_71  and  C_72 
REMARK   32  A    between atoms: C_74  and  C_72 
ROOT
HETATM    1  C   UNK N   1      26.968  17.113   5.272  0.00  0.00     0.182 C 
HETATM    2  O   UNK N   1      26.254  16.497   6.299  0.00  0.00    -0.388 OA
HETATM    3  H   UNK N   1      25.677  16.103   6.973  0.00  0.00     0.210 HD
ENDROOT
BRANCH   1   4
HETATM    4  C   UNK N   1      27.535  16.034   4.334  0.00  0.00     0.183 C 
BRANCH   4   5
HETATM    5  C   UNK N   1      28.831  16.467   3.630  0.00  0.00     0.208 C 
HETATM    6  N   UNK N   1      29.271  15.579   2.566  0.00  0.00    -0.344 N 
HETATM    7  C   UNK N   1      29.183  14.222   2.541  0.00  0.00     0.241 C 
HETATM    8  H   UNK N   1      29.678  16.007   1.778  0.00  0.00     0.163 HD
HETATM    9  C   UNK N   1      28.562  13.429   3.674  0.00  0.00     0.181 C 
HETATM   10  O   UNK N   1      29.618  13.625   1.568  0.00  0.00    -0.271 OA
HETATM   11  N   UNK N   1      29.491  12.434   4.148  0.00  0.00    -0.334 N 
HETATM   12  C   UNK N   1      27.369  12.628   3.162  0.00  0.00     0.068 C 
HETATM   13  C   UNK N   1      30.652  12.794   4.801  0.00  0.00     0.246 C 
HETATM   14  C   UNK N   1      29.092  11.090   3.835  0.00  0.00     0.158 C 
HETATM   15  C   UNK N   1      31.789  11.830   5.141  0.00  0.00     0.205 C 
HETATM   16  O   UNK N   1      30.834  13.965   5.079  0.00  0.00    -0.271 OA
HETATM   17  N   UNK N   1      32.953  12.310   4.432  0.00  0.00    -0.344 N 
HETATM   18  C   UNK N   1      34.135  12.689   4.987  0.00  0.00     0.241 C 
HETATM   19  H   UNK N   1      32.883  12.368   3.452  0.00  0.00     0.163 HD
HETATM   20  C   UNK N   1      34.434  12.658   6.484  0.00  0.00     0.179 C 
HETATM   21  O   UNK N   1      35.001  13.121   4.240  0.00  0.00    -0.271 OA
HETATM   22  C   UNK N   1      35.943  12.712   6.790  0.00  0.00     0.070 C 
HETATM   23  C   UNK N   1      36.327  12.166   8.164  0.00  0.00     0.162 C 
HETATM   24  C   UNK N   1      35.957  12.980   9.421  0.00  0.00     0.209 C 
HETATM   25  N   UNK N   1      34.860  13.933   9.376  0.00  0.00    -0.336 N 
HETATM   26  C   UNK N   1      34.836  15.066   8.627  0.00  0.00     0.244 C 
HETATM   27  H   UNK N   1      34.071  13.742   9.931  0.00  0.00     0.164 HD
HETATM   28  O   UNK N   1      35.739  15.321   7.841  0.00  0.00    -0.271 OA
HETATM   29  C   UNK N   1      33.726  16.059   8.857  0.00  0.00     0.208 C 
HETATM   30  N   UNK N   1      32.999  16.388   7.666  0.00  0.00    -0.334 N 
HETATM   31  C   UNK N   1      34.253  17.445   9.218  0.00  0.00     0.151 C 
HETATM   32  C   UNK N   1      33.604  17.465   6.915  0.00  0.00     0.129 C 
HETATM   33  C   UNK N   1      31.655  16.173   7.610  0.00  0.00     0.246 C 
HETATM   34  C   UNK N   1      34.602  18.090   7.881  0.00  0.00     0.054 C 
HETATM   35  O   UNK N   1      31.124  15.354   8.354  0.00  0.00    -0.271 OA
HETATM   36  C   UNK N   1      30.810  17.135   6.830  0.00  0.00     0.205 C 
HETATM   37  N   UNK N   1      29.876  16.561   5.892  0.00  0.00    -0.344 N 
HETATM   38  C   UNK N   1      29.974  16.806   4.559  0.00  0.00     0.243 C 
HETATM   39  H   UNK N   1      29.154  15.980   6.224  0.00  0.00     0.163 HD
HETATM   40  O   UNK N   1      30.960  17.371   4.109  0.00  0.00    -0.271 OA
HETATM   41  C   UNK N   1      27.875  11.208   2.943  0.00  0.00     0.138 C 
BRANCH  15  42
HETATM   42  C   UNK N   1      31.524  10.371   4.759  0.00  0.00     0.146 C 
HETATM   43  C   UNK N   1      31.058   9.569   5.957  0.00  0.00     0.042 C 
BRANCH  42  44
HETATM   44  O   UNK N   1      32.619   9.756   4.167  0.00  0.00    -0.393 OA
HETATM   45  H   UNK N   1      33.052   9.978   3.327  0.00  0.00     0.210 HD
ENDBRANCH  42  44
ENDBRANCH  15  42
BRANCH  20  46
HETATM   46  N   UNK N   1      33.712  11.700   7.306  0.00  0.00    -0.348 N 
HETATM   47  C   UNK N   1      33.979  10.375   7.459  0.00  0.00     0.218 C 
HETATM   48  O   UNK N   1      33.307   9.733   8.248  0.00  0.00    -0.274 OA
HETATM   49  H   UNK N   1      32.943  12.051   7.811  0.00  0.00     0.163 HD
BRANCH  47  50
HETATM   50  C   UNK N   1      34.984   9.638   6.626  0.00  0.00     0.103 C 
BRANCH  50  51
HETATM   51  C   UNK N   1      35.174   8.169   6.909  0.00  0.00     0.009 C 
BRANCH  51  52
HETATM   52  C   UNK N   1      36.611   7.953   7.364  0.00  0.00     0.000 C 
BRANCH  52  53
HETATM   53  C   UNK N   1      36.732   6.729   8.267  0.00  0.00     0.000 C 
BRANCH  53  54
HETATM   54  C   UNK N   1      35.443   6.421   9.015  0.00  0.00     0.000 C 
BRANCH  54  55
HETATM   55  C   UNK N   1      35.742   5.789  10.362  0.00  0.00     0.000 C 
BRANCH  55  56
HETATM   56  C   UNK N   1      34.874   6.450  11.418  0.00  0.00     0.000 C 
BRANCH  56  57
HETATM   57  C   UNK N   1      34.256   7.738  10.900  0.00  0.00     0.004 C 
BRANCH  57  58
HETATM   58  C   UNK N   1      34.873   8.940  11.599  0.00  0.00    -0.018 C 
HETATM   59  C   UNK N   1      33.776   9.935  11.922  0.00  0.00     0.010 C 
BRANCH  58  60
HETATM   60  C   UNK N   1      35.905   9.617  10.702  0.00  0.00     0.008 C 
BRANCH  60  61
HETATM   61  C   UNK N   1      37.294   9.683  11.342  0.00  0.00    -0.019 C 
HETATM   62  C   UNK N   1      38.380   9.109  10.448  0.00  0.00     0.010 C 
BRANCH  61  63
HETATM   63  C   UNK N   1      37.316   8.940  12.668  0.00  0.00    -0.000 C 
HETATM   64  C   UNK N   1      38.248   7.743  12.618  0.00  0.00     0.005 C 
ENDBRANCH  61  63
ENDBRANCH  60  61
ENDBRANCH  58  60
ENDBRANCH  57  58
ENDBRANCH  56  57
ENDBRANCH  55  56
ENDBRANCH  54  55
ENDBRANCH  53  54
ENDBRANCH  52  53
ENDBRANCH  51  52
ENDBRANCH  50  51
ENDBRANCH  47  50
ENDBRANCH  20  46
BRANCH  23  65
HETATM   65  O   UNK N   1      37.669  11.784   8.178  0.00  0.00    -0.392 OA
HETATM   66  H   UNK N   1      38.425  12.379   8.300  0.00  0.00     0.210 HD
ENDBRANCH  23  65
BRANCH  24  67
HETATM   67  N   UNK N   1      37.060  13.382  10.297  0.00  0.00    -0.398 N 
HETATM   68  H   UNK N   1      38.048  13.246  10.087  0.00  0.00     0.155 HD
BRANCH  67  69
HETATM   69  C   UNK N   1      36.548  14.002  11.508  0.00  0.00     0.135 C 
BRANCH  69  70
HETATM   70  C   UNK N   1      36.514  12.969  12.614  0.00  0.00     0.130 C 
BRANCH  70  71
HETATM   71  N   UNK N   1      35.223  13.014  13.274  0.00  0.00    -0.429 N 
HETATM   72  H   UNK N   1      34.306  12.610  13.462  0.00  0.00     0.149 HD
HETATM   73  H   UNK N   1      35.242  13.875  13.820  0.00  0.00     0.149 HD
ENDBRANCH  70  71
ENDBRANCH  69  70
ENDBRANCH  67  69
ENDBRANCH  24  67
BRANCH  36  74
HETATM   74  C   UNK N   1      30.103  18.065   7.817  0.00  0.00     0.151 C 
BRANCH  74  75
HETATM   75  C   UNK N   1      28.783  17.489   8.294  0.00  0.00     0.053 C 
BRANCH  75  76
HETATM   76  C   UNK N   1      28.619  17.726   9.790  0.00  0.00     0.113 C 
BRANCH  76  77
HETATM   77  N   UNK N   1      29.378  16.739  10.544  0.00  0.00    -0.430 N 
HETATM   78  H   UNK N   1      30.237  16.933  11.059  0.00  0.00     0.149 HD
HETATM   79  H   UNK N   1      29.024  15.782  10.557  0.00  0.00     0.149 HD
ENDBRANCH  76  77
ENDBRANCH  75  76
ENDBRANCH  74  75
BRANCH  74  80
HETATM   80  O   UNK N   1      30.927  18.396   8.895  0.00  0.00    -0.393 OA
HETATM   81  H   UNK N   1      31.562  18.990   9.324  0.00  0.00     0.210 HD
ENDBRANCH  74  80
ENDBRANCH  36  74
BRANCH  31  82
HETATM   82  O   UNK N   1      35.331  17.433  10.100  0.00  0.00    -0.393 OA
HETATM   83  H   UNK N   1      35.354  16.797  10.832  0.00  0.00     0.210 HD
ENDBRANCH  31  82
BRANCH  41  84
HETATM   84  O   UNK N   1      28.277  11.054   1.616  0.00  0.00    -0.394 OA
HETATM   85  H   UNK N   1      28.020  10.827   0.709  0.00  0.00     0.210 HD
ENDBRANCH  41  84
ENDBRANCH   4   5
BRANCH   4  86
HETATM   86  O   UNK N   1      26.575  15.574   3.426  0.00  0.00    -0.390 OA
HETATM   87  H   UNK N   1      25.952  14.879   3.690  0.00  0.00     0.210 HD
ENDBRANCH   4  86
ENDBRANCH   1   4
BRANCH   1  88
HETATM   88  C   UNK N   1      26.132  18.223   4.676  0.00  0.00    -0.027 A 
HETATM   89  C   UNK N   1      24.737  18.127   4.768  0.00  0.00     0.012 A 
HETATM   90  C   UNK N   1      23.920  19.090   4.170  0.00  0.00     0.037 A 
HETATM   91  C   UNK N   1      24.491  20.152   3.466  0.00  0.00     0.065 A 
HETATM   92  C   UNK N   1      25.881  20.263   3.377  0.00  0.00     0.037 A 
HETATM   93  C   UNK N   1      26.700  19.304   3.982  0.00  0.00     0.012 A 
BRANCH  91  94
HETATM   94  O   UNK N   1      23.703  21.062   2.871  0.00  0.00    -0.361 OA
HETATM   95  H   UNK N   1      22.905  20.809   2.449  0.00  0.00     0.217 HD
ENDBRANCH  91  94
ENDBRANCH   1  88
TORSDOF 32
ENDMDL
MODEL 7
REMARK VINA RESULT:      -6.4      2.514      3.806
REMARK  32 active torsions:
REMARK  status: ('A' for Active; 'I' for Inactive)
REMARK    1  A    between atoms: C_1  and  O_14 
REMARK    2  A    between atoms: C_2  and  N_13 
REMARK    3  A    between atoms: C_6  and  N_20 
REMARK    4  A    between atoms: C_9  and  O_8 
REMARK    5  A    between atoms: C_9  and  C_10 
REMARK    6  A    between atoms: N_13  and  C_21 
REMARK       I    between atoms: N_20  and  C_74 
REMARK    7  A    between atoms: C_21  and  C_22 
REMARK    8  A    between atoms: C_22  and  N_23 
REMARK    9  A    between atoms: C_25  and  O_29 
REMARK   10  A    between atoms: C_32  and  O_34 
REMARK   11  A    between atoms: C_39  and  C_56 
REMARK   12  A    between atoms: C_43  and  C_45 
REMARK   13  A    between atoms: C_45  and  C_46 
REMARK   14  A    between atoms: C_45  and  O_48 
REMARK   15  A    between atoms: C_46  and  C_47 
REMARK   16  A    between atoms: C_52  and  O_55 
REMARK   17  A    between atoms: C_56  and  C_57 
REMARK   18  A    between atoms: C_56  and  O_60 
REMARK   19  A    between atoms: C_57  and  C_58 
REMARK   20  A    between atoms: C_58  and  N_59 
REMARK   21  A    between atoms: C_61  and  C_62 
REMARK   22  A    between atoms: C_61  and  C_66 
REMARK   23  A    between atoms: C_67  and  C_62 
REMARK   24  A    between atoms: C_63  and  C_64 
REMARK   25  A    between atoms: C_70  and  C_63 
REMARK   26  A    between atoms: C_64  and  C_65 
REMARK   27  A    between atoms: C_65  and  C_66 
REMARK   28  A    between atoms: C_67  and  C_68 
REMARK   29  A    between atoms: C_71  and  C_68 
REMARK   30  A    between atoms: C_69  and  C_70 
REMARK   31  A    between atoms: C_71  and  C_72 
REMARK   32  A    between atoms: C_74  and  C_72 
ROOT
HETATM    1  C   UNK N   1      29.896  17.112   5.570  0.00  0.00     0.182 C 
HETATM    2  O   UNK N   1      29.547  16.087   6.447  0.00  0.00    -0.388 OA
HETATM    3  H   UNK N   1      29.215  15.379   7.023  0.00  0.00     0.210 HD
ENDROOT
BRANCH   1   4
HETATM    4  C   UNK N   1      30.784  16.540   4.452  0.00  0.00     0.183 C 
BRANCH   4   5
HETATM    5  C   UNK N   1      32.225  17.075   4.493  0.00  0.00     0.208 C 
HETATM    6  N   UNK N   1      33.090  16.573   3.437  0.00  0.00    -0.344 N 
HETATM    7  C   UNK N   1      33.093  15.320   2.905  0.00  0.00     0.241 C 
HETATM    8  H   UNK N   1      33.744  17.209   3.067  0.00  0.00     0.163 HD
HETATM    9  C   UNK N   1      32.129  14.244   3.360  0.00  0.00     0.181 C 
HETATM   10  O   UNK N   1      33.902  15.061   2.028  0.00  0.00    -0.271 OA
HETATM   11  N   UNK N   1      32.857  13.069   3.768  0.00  0.00    -0.334 N 
HETATM   12  C   UNK N   1      31.271  13.777   2.189  0.00  0.00     0.068 C 
HETATM   13  C   UNK N   1      33.654  13.077   4.894  0.00  0.00     0.246 C 
HETATM   14  C   UNK N   1      32.685  11.956   2.877  0.00  0.00     0.158 C 
HETATM   15  C   UNK N   1      34.624  11.960   5.278  0.00  0.00     0.205 C 
HETATM   16  O   UNK N   1      33.651  14.061   5.613  0.00  0.00    -0.271 OA
HETATM   17  N   UNK N   1      35.943  12.550   5.281  0.00  0.00    -0.344 N 
HETATM   18  C   UNK N   1      36.798  12.609   6.337  0.00  0.00     0.241 C 
HETATM   19  H   UNK N   1      36.253  12.949   4.436  0.00  0.00     0.163 HD
HETATM   20  C   UNK N   1      36.497  12.038   7.721  0.00  0.00     0.179 C 
HETATM   21  O   UNK N   1      37.859  13.195   6.178  0.00  0.00    -0.271 OA
HETATM   22  C   UNK N   1      37.767  11.850   8.574  0.00  0.00     0.070 C 
HETATM   23  C   UNK N   1      37.621  10.832   9.704  0.00  0.00     0.162 C 
HETATM   24  C   UNK N   1      36.752  11.192  10.926  0.00  0.00     0.209 C 
HETATM   25  N   UNK N   1      35.705  12.194  10.806  0.00  0.00    -0.336 N 
HETATM   26  C   UNK N   1      35.909  13.513  10.554  0.00  0.00     0.244 C 
HETATM   27  H   UNK N   1      34.775  11.893  10.915  0.00  0.00     0.164 HD
HETATM   28  O   UNK N   1      37.029  13.944  10.314  0.00  0.00    -0.271 OA
HETATM   29  C   UNK N   1      34.742  14.460  10.679  0.00  0.00     0.208 C 
HETATM   30  N   UNK N   1      34.514  15.242   9.500  0.00  0.00    -0.334 N 
HETATM   31  C   UNK N   1      35.012  15.584  11.676  0.00  0.00     0.151 C 
HETATM   32  C   UNK N   1      35.301  16.454   9.465  0.00  0.00     0.129 C 
HETATM   33  C   UNK N   1      33.309  15.179   8.867  0.00  0.00     0.246 C 
HETATM   34  C   UNK N   1      35.813  16.617  10.890  0.00  0.00     0.054 C 
HETATM   35  O   UNK N   1      32.579  14.204   9.014  0.00  0.00    -0.271 OA
HETATM   36  C   UNK N   1      32.778  16.421   8.217  0.00  0.00     0.205 C 
HETATM   37  N   UNK N   1      32.311  16.290   6.858  0.00  0.00    -0.344 N 
HETATM   38  C   UNK N   1      32.901  16.970   5.841  0.00  0.00     0.243 C 
HETATM   39  H   UNK N   1      31.550  15.697   6.664  0.00  0.00     0.163 HD
HETATM   40  O   UNK N   1      33.951  17.567   6.028  0.00  0.00    -0.271 OA
HETATM   41  C   UNK N   1      31.900  12.481   1.693  0.00  0.00     0.138 C 
BRANCH  15  42
HETATM   42  C   UNK N   1      34.609  10.751   4.337  0.00  0.00     0.146 C 
HETATM   43  C   UNK N   1      33.737   9.641   4.889  0.00  0.00     0.042 C 
BRANCH  42  44
HETATM   44  O   UNK N   1      35.878  10.267   4.053  0.00  0.00    -0.393 OA
HETATM   45  H   UNK N   1      36.423   9.661   4.580  0.00  0.00     0.210 HD
ENDBRANCH  42  44
ENDBRANCH  15  42
BRANCH  20  46
HETATM   46  N   UNK N   1      35.569  10.922   7.814  0.00  0.00    -0.348 N 
HETATM   47  C   UNK N   1      35.833   9.606   7.596  0.00  0.00     0.218 C 
HETATM   48  O   UNK N   1      34.945   8.794   7.788  0.00  0.00    -0.274 OA
HETATM   49  H   UNK N   1      34.644  11.145   8.066  0.00  0.00     0.163 HD
BRANCH  47  50
HETATM   50  C   UNK N   1      37.128   9.112   7.025  0.00  0.00     0.103 C 
BRANCH  50  51
HETATM   51  C   UNK N   1      37.381   7.625   7.067  0.00  0.00     0.009 C 
BRANCH  51  52
HETATM   52  C   UNK N   1      37.825   7.258   8.477  0.00  0.00     0.000 C 
BRANCH  52  53
HETATM   53  C   UNK N   1      36.946   6.162   9.071  0.00  0.00     0.000 C 
BRANCH  53  54
HETATM   54  C   UNK N   1      37.734   5.172   9.917  0.00  0.00     0.000 C 
BRANCH  54  55
HETATM   55  C   UNK N   1      38.504   5.891  11.009  0.00  0.00     0.000 C 
BRANCH  55  56
HETATM   56  C   UNK N   1      37.573   6.143  12.181  0.00  0.00     0.000 C 
BRANCH  56  57
HETATM   57  C   UNK N   1      37.506   7.622  12.528  0.00  0.00     0.004 C 
BRANCH  57  58
HETATM   58  C   UNK N   1      36.109   7.990  13.002  0.00  0.00    -0.018 C 
HETATM   59  C   UNK N   1      36.026   7.768  14.500  0.00  0.00     0.010 C 
BRANCH  58  60
HETATM   60  C   UNK N   1      35.057   7.125  12.315  0.00  0.00     0.008 C 
BRANCH  60  61
HETATM   61  C   UNK N   1      34.442   7.801  11.088  0.00  0.00    -0.019 C 
HETATM   62  C   UNK N   1      33.782   9.128  11.418  0.00  0.00     0.010 C 
BRANCH  61  63
HETATM   63  C   UNK N   1      33.411   6.897  10.431  0.00  0.00    -0.000 C 
HETATM   64  C   UNK N   1      33.420   5.508  11.045  0.00  0.00     0.005 C 
ENDBRANCH  61  63
ENDBRANCH  60  61
ENDBRANCH  58  60
ENDBRANCH  57  58
ENDBRANCH  56  57
ENDBRANCH  55  56
ENDBRANCH  54  55
ENDBRANCH  53  54
ENDBRANCH  52  53
ENDBRANCH  51  52
ENDBRANCH  50  51
ENDBRANCH  47  50
ENDBRANCH  20  46
BRANCH  23  65
HETATM   65  O   UNK N   1      38.874  10.352  10.090  0.00  0.00    -0.392 OA
HETATM   66  H   UNK N   1      39.683  10.393   9.559  0.00  0.00     0.210 HD
ENDBRANCH  23  65
BRANCH  24  67
HETATM   67  N   UNK N   1      37.407  11.168  12.235  0.00  0.00    -0.398 N 
HETATM   68  H   UNK N   1      38.371  10.878  12.397  0.00  0.00     0.155 HD
BRANCH  67  69
HETATM   69  C   UNK N   1      36.491  11.615  13.271  0.00  0.00     0.135 C 
BRANCH  69  70
HETATM   70  C   UNK N   1      37.279  11.929  14.524  0.00  0.00     0.130 C 
BRANCH  70  71
HETATM   71  N   UNK N   1      37.225  13.356  14.782  0.00  0.00    -0.429 N 
HETATM   72  H   UNK N   1      37.626  14.290  14.702  0.00  0.00     0.149 HD
HETATM   73  H   UNK N   1      36.356  13.492  15.298  0.00  0.00     0.149 HD
ENDBRANCH  70  71
ENDBRANCH  69  70
ENDBRANCH  67  69
ENDBRANCH  24  67
BRANCH  36  74
HETATM   74  C   UNK N   1      31.695  17.012   9.120  0.00  0.00     0.151 C 
BRANCH  74  75
HETATM   75  C   UNK N   1      31.169  18.331   8.588  0.00  0.00     0.053 C 
BRANCH  75  76
HETATM   76  C   UNK N   1      29.950  18.770   9.391  0.00  0.00     0.113 C 
BRANCH  76  77
HETATM   77  N   UNK N   1      28.727  18.347   8.725  0.00  0.00    -0.430 N 
HETATM   78  H   UNK N   1      27.863  18.089   9.201  0.00  0.00     0.149 HD
HETATM   79  H   UNK N   1      28.735  18.305   7.705  0.00  0.00     0.149 HD
ENDBRANCH  76  77
ENDBRANCH  75  76
ENDBRANCH  74  75
BRANCH  74  80
HETATM   80  O   UNK N   1      30.654  16.106   9.340  0.00  0.00    -0.393 OA
HETATM   81  H   UNK N   1      30.297  15.205   9.314  0.00  0.00     0.210 HD
ENDBRANCH  74  80
ENDBRANCH  36  74
BRANCH  31  82
HETATM   82  O   UNK N   1      35.666  15.173  12.835  0.00  0.00    -0.393 OA
HETATM   83  H   UNK N   1      36.631  15.071  12.839  0.00  0.00     0.210 HD
ENDBRANCH  31  82
BRANCH  41  84
HETATM   84  O   UNK N   1      32.791  12.759   0.656  0.00  0.00    -0.394 OA
HETATM   85  H   UNK N   1      32.916  13.130  -0.231  0.00  0.00     0.210 HD
ENDBRANCH  41  84
ENDBRANCH   4   5
BRANCH   4  86
HETATM   86  O   UNK N   1      30.202  16.702   3.190  0.00  0.00    -0.390 OA
HETATM   87  H   UNK N   1      30.331  16.025   2.507  0.00  0.00     0.210 HD
ENDBRANCH   4  86
ENDBRANCH   1   4
BRANCH   1  88
HETATM   88  C   UNK N   1      28.656  17.887   5.185  0.00  0.00    -0.027 A 
HETATM   89  C   UNK N   1      28.788  19.251   4.895  0.00  0.00     0.012 A 
HETATM   90  C   UNK N   1      27.662  20.026   4.605  0.00  0.00     0.037 A 
HETATM   91  C   UNK N   1      26.393  19.445   4.612  0.00  0.00     0.065 A 
HETATM   92  C   UNK N   1      26.250  18.083   4.889  0.00  0.00     0.037 A 
HETATM   93  C   UNK N   1      27.378  17.305   5.172  0.00  0.00     0.012 A 
BRANCH  91  94
HETATM   94  O   UNK N   1      25.309  20.197   4.358  0.00  0.00    -0.361 OA
HETATM   95  H   UNK N   1      25.379  20.995   3.872  0.00  0.00     0.217 HD
ENDBRANCH  91  94
ENDBRANCH   1  88
TORSDOF 32
ENDMDL
MODEL 8
REMARK VINA RESULT:      -6.3      2.387      3.321
REMARK  32 active torsions:
REMARK  status: ('A' for Active; 'I' for Inactive)
REMARK    1  A    between atoms: C_1  and  O_14 
REMARK    2  A    between atoms: C_2  and  N_13 
REMARK    3  A    between atoms: C_6  and  N_20 
REMARK    4  A    between atoms: C_9  and  O_8 
REMARK    5  A    between atoms: C_9  and  C_10 
REMARK    6  A    between atoms: N_13  and  C_21 
REMARK       I    between atoms: N_20  and  C_74 
REMARK    7  A    between atoms: C_21  and  C_22 
REMARK    8  A    between atoms: C_22  and  N_23 
REMARK    9  A    between atoms: C_25  and  O_29 
REMARK   10  A    between atoms: C_32  and  O_34 
REMARK   11  A    between atoms: C_39  and  C_56 
REMARK   12  A    between atoms: C_43  and  C_45 
REMARK   13  A    between atoms: C_45  and  C_46 
REMARK   14  A    between atoms: C_45  and  O_48 
REMARK   15  A    between atoms: C_46  and  C_47 
REMARK   16  A    between atoms: C_52  and  O_55 
REMARK   17  A    between atoms: C_56  and  C_57 
REMARK   18  A    between atoms: C_56  and  O_60 
REMARK   19  A    between atoms: C_57  and  C_58 
REMARK   20  A    between atoms: C_58  and  N_59 
REMARK   21  A    between atoms: C_61  and  C_62 
REMARK   22  A    between atoms: C_61  and  C_66 
REMARK   23  A    between atoms: C_67  and  C_62 
REMARK   24  A    between atoms: C_63  and  C_64 
REMARK   25  A    between atoms: C_70  and  C_63 
REMARK   26  A    between atoms: C_64  and  C_65 
REMARK   27  A    between atoms: C_65  and  C_66 
REMARK   28  A    between atoms: C_67  and  C_68 
REMARK   29  A    between atoms: C_71  and  C_68 
REMARK   30  A    between atoms: C_69  and  C_70 
REMARK   31  A    between atoms: C_71  and  C_72 
REMARK   32  A    between atoms: C_74  and  C_72 
ROOT
HETATM    1  C   UNK N   1      28.474  13.830   3.636  0.00  0.00     0.182 C 
HETATM    2  O   UNK N   1      28.206  13.574   4.980  0.00  0.00    -0.388 OA
HETATM    3  H   UNK N   1      27.929  13.377   5.890  0.00  0.00     0.210 HD
ENDROOT
BRANCH   1   4
HETATM    4  C   UNK N   1      29.354  12.701   3.073  0.00  0.00     0.183 C 
BRANCH   4   5
HETATM    5  C   UNK N   1      30.727  13.193   2.586  0.00  0.00     0.208 C 
HETATM    6  N   UNK N   1      31.597  12.151   2.066  0.00  0.00    -0.344 N 
HETATM    7  C   UNK N   1      31.718  10.877   2.528  0.00  0.00     0.241 C 
HETATM    8  H   UNK N   1      32.161  12.394   1.296  0.00  0.00     0.163 HD
HETATM    9  C   UNK N   1      30.900  10.356   3.692  0.00  0.00     0.181 C 
HETATM   10  O   UNK N   1      32.513  10.129   1.980  0.00  0.00    -0.271 OA
HETATM   11  N   UNK N   1      31.771   9.820   4.708  0.00  0.00    -0.334 N 
HETATM   12  C   UNK N   1      30.051   9.169   3.248  0.00  0.00     0.068 C 
HETATM   13  C   UNK N   1      32.609  10.639   5.436  0.00  0.00     0.246 C 
HETATM   14  C   UNK N   1      31.687   8.391   4.832  0.00  0.00     0.158 C 
HETATM   15  C   UNK N   1      33.712  10.141   6.369  0.00  0.00     0.205 C 
HETATM   16  O   UNK N   1      32.526  11.845   5.292  0.00  0.00    -0.271 OA
HETATM   17  N   UNK N   1      34.957  10.641   5.830  0.00  0.00    -0.344 N 
HETATM   18  C   UNK N   1      35.843  11.453   6.467  0.00  0.00     0.241 C 
HETATM   19  H   UNK N   1      35.184  10.368   4.912  0.00  0.00     0.163 HD
HETATM   20  C   UNK N   1      35.666  11.970   7.893  0.00  0.00     0.179 C 
HETATM   21  O   UNK N   1      36.824  11.825   5.841  0.00  0.00    -0.271 OA
HETATM   22  C   UNK N   1      36.983  12.485   8.505  0.00  0.00     0.070 C 
HETATM   23  C   UNK N   1      36.999  12.511  10.033  0.00  0.00     0.162 C 
HETATM   24  C   UNK N   1      36.147  13.563  10.770  0.00  0.00     0.209 C 
HETATM   25  N   UNK N   1      34.991  14.155  10.115  0.00  0.00    -0.336 N 
HETATM   26  C   UNK N   1      35.036  14.952   9.016  0.00  0.00     0.244 C 
HETATM   27  H   UNK N   1      34.106  13.962  10.498  0.00  0.00     0.164 HD
HETATM   28  O   UNK N   1      36.090  15.159   8.430  0.00  0.00    -0.271 OA
HETATM   29  C   UNK N   1      33.778  15.663   8.590  0.00  0.00     0.208 C 
HETATM   30  N   UNK N   1      33.414  15.412   7.226  0.00  0.00    -0.334 N 
HETATM   31  C   UNK N   1      33.962  17.177   8.524  0.00  0.00     0.151 C 
HETATM   32  C   UNK N   1      34.059  16.310   6.295  0.00  0.00     0.129 C 
HETATM   33  C   UNK N   1      32.198  14.869   6.937  0.00  0.00     0.246 C 
HETATM   34  C   UNK N   1      34.609  17.432   7.166  0.00  0.00     0.054 C 
HETATM   35  O   UNK N   1      31.588  14.223   7.784  0.00  0.00    -0.271 OA
HETATM   36  C   UNK N   1      31.505  15.299   5.680  0.00  0.00     0.205 C 
HETATM   37  N   UNK N   1      30.999  14.248   4.829  0.00  0.00    -0.344 N 
HETATM   38  C   UNK N   1      31.466  14.077   3.566  0.00  0.00     0.243 C 
HETATM   39  H   UNK N   1      30.302  13.644   5.172  0.00  0.00     0.163 HD
HETATM   40  O   UNK N   1      32.451  14.694   3.185  0.00  0.00    -0.271 OA
HETATM   41  C   UNK N   1      30.799   7.921   3.699  0.00  0.00     0.138 C 
BRANCH  15  42
HETATM   42  C   UNK N   1      33.792   8.617   6.505  0.00  0.00     0.146 C 
HETATM   43  C   UNK N   1      33.074   8.143   7.753  0.00  0.00     0.042 C 
BRANCH  42  44
HETATM   44  O   UNK N   1      35.095   8.137   6.491  0.00  0.00    -0.393 OA
HETATM   45  H   UNK N   1      35.444   7.335   6.911  0.00  0.00     0.210 HD
ENDBRANCH  42  44
ENDBRANCH  15  42
BRANCH  20  46
HETATM   46  N   UNK N   1      34.873  11.174   8.816  0.00  0.00    -0.348 N 
HETATM   47  C   UNK N   1      35.264  10.066   9.500  0.00  0.00     0.218 C 
HETATM   48  O   UNK N   1      34.483   9.562  10.289  0.00  0.00    -0.274 OA
HETATM   49  H   UNK N   1      33.946  11.473   8.964  0.00  0.00     0.163 HD
BRANCH  47  50
HETATM   50  C   UNK N   1      36.566   9.365   9.252  0.00  0.00     0.103 C 
BRANCH  50  51
HETATM   51  C   UNK N   1      37.018   8.359  10.282  0.00  0.00     0.009 C 
BRANCH  51  52
HETATM   52  C   UNK N   1      38.442   8.706  10.695  0.00  0.00     0.000 C 
BRANCH  52  53
HETATM   53  C   UNK N   1      38.563   8.858  12.208  0.00  0.00     0.000 C 
BRANCH  53  54
HETATM   54  C   UNK N   1      37.223   9.121  12.880  0.00  0.00     0.000 C 
BRANCH  54  55
HETATM   55  C   UNK N   1      37.106  10.577  13.296  0.00  0.00     0.000 C 
BRANCH  55  56
HETATM   56  C   UNK N   1      35.648  10.992  13.224  0.00  0.00     0.000 C 
BRANCH  56  57
HETATM   57  C   UNK N   1      34.734   9.902  13.761  0.00  0.00     0.004 C 
BRANCH  57  58
HETATM   58  C   UNK N   1      33.966  10.405  14.973  0.00  0.00    -0.018 C 
HETATM   59  C   UNK N   1      34.165  11.904  15.091  0.00  0.00     0.010 C 
BRANCH  58  60
HETATM   60  C   UNK N   1      34.472   9.739  16.249  0.00  0.00     0.008 C 
BRANCH  60  61
HETATM   61  C   UNK N   1      35.484  10.600  17.007  0.00  0.00    -0.019 C 
HETATM   62  C   UNK N   1      36.895  10.040  16.946  0.00  0.00     0.010 C 
BRANCH  61  63
HETATM   63  C   UNK N   1      35.085  10.748  18.467  0.00  0.00    -0.000 C 
HETATM   64  C   UNK N   1      35.410  12.135  18.993  0.00  0.00     0.005 C 
ENDBRANCH  61  63
ENDBRANCH  60  61
ENDBRANCH  58  60
ENDBRANCH  57  58
ENDBRANCH  56  57
ENDBRANCH  55  56
ENDBRANCH  54  55
ENDBRANCH  53  54
ENDBRANCH  52  53
ENDBRANCH  51  52
ENDBRANCH  50  51
ENDBRANCH  47  50
ENDBRANCH  20  46
BRANCH  23  65
HETATM   65  O   UNK N   1      38.313  12.493  10.505  0.00  0.00    -0.392 OA
HETATM   66  H   UNK N   1      38.629  12.000  11.277  0.00  0.00     0.210 HD
ENDBRANCH  23  65
BRANCH  24  67
HETATM   67  N   UNK N   1      36.855  14.478  11.668  0.00  0.00    -0.398 N 
HETATM   68  H   UNK N   1      37.826  14.771  11.553  0.00  0.00     0.155 HD
BRANCH  67  69
HETATM   69  C   UNK N   1      35.983  14.909  12.747  0.00  0.00     0.135 C 
BRANCH  69  70
HETATM   70  C   UNK N   1      36.488  14.329  14.051  0.00  0.00     0.130 C 
BRANCH  70  71
HETATM   71  N   UNK N   1      37.188  15.358  14.796  0.00  0.00    -0.429 N 
HETATM   72  H   UNK N   1      37.476  16.329  14.916  0.00  0.00     0.149 HD
HETATM   73  H   UNK N   1      37.591  14.869  15.596  0.00  0.00     0.149 HD
ENDBRANCH  70  71
ENDBRANCH  69  70
ENDBRANCH  67  69
ENDBRANCH  24  67
BRANCH  36  74
HETATM   74  C   UNK N   1      30.402  16.290   6.052  0.00  0.00     0.151 C 
BRANCH  74  75
HETATM   75  C   UNK N   1      30.141  17.292   4.943  0.00  0.00     0.053 C 
BRANCH  75  76
HETATM   76  C   UNK N   1      28.647  17.568   4.829  0.00  0.00     0.113 C 
BRANCH  76  77
HETATM   77  N   UNK N   1      28.207  18.425   5.920  0.00  0.00    -0.430 N 
HETATM   78  H   UNK N   1      27.488  19.145   5.843  0.00  0.00     0.149 HD
HETATM   79  H   UNK N   1      28.652  18.297   6.829  0.00  0.00     0.149 HD
ENDBRANCH  76  77
ENDBRANCH  75  76
ENDBRANCH  74  75
BRANCH  74  80
HETATM   80  O   UNK N   1      29.226  15.636   6.427  0.00  0.00    -0.393 OA
HETATM   81  H   UNK N   1      28.470  15.531   7.026  0.00  0.00     0.210 HD
ENDBRANCH  74  80
ENDBRANCH  36  74
BRANCH  31  82
HETATM   82  O   UNK N   1      34.706  17.708   9.575  0.00  0.00    -0.393 OA
HETATM   83  H   UNK N   1      34.559  17.395  10.482  0.00  0.00     0.210 HD
ENDBRANCH  31  82
BRANCH  41  84
HETATM   84  O   UNK N   1      31.609   7.459   2.661  0.00  0.00    -0.394 OA
HETATM   85  H   UNK N   1      32.380   7.622   2.096  0.00  0.00     0.210 HD
ENDBRANCH  41  84
ENDBRANCH   4   5
BRANCH   4  86
HETATM   86  O   UNK N   1      28.688  11.959   2.092  0.00  0.00    -0.390 OA
HETATM   87  H   UNK N   1      27.722  12.012   2.018  0.00  0.00     0.210 HD
ENDBRANCH   4  86
ENDBRANCH   1   4
BRANCH   1  88
HETATM   88  C   UNK N   1      27.184  14.165   2.923  0.00  0.00    -0.027 A 
HETATM   89  C   UNK N   1      26.039  13.418   3.233  0.00  0.00     0.012 A 
HETATM   90  C   UNK N   1      24.841  13.640   2.550  0.00  0.00     0.037 A 
HETATM   91  C   UNK N   1      24.779  14.606   1.544  0.00  0.00     0.065 A 
HETATM   92  C   UNK N   1      25.911  15.365   1.234  0.00  0.00     0.037 A 
HETATM   93  C   UNK N   1      27.108  15.149   1.923  0.00  0.00     0.012 A 
BRANCH  91  94
HETATM   94  O   UNK N   1      23.633  14.801   0.870  0.00  0.00    -0.361 OA
HETATM   95  H   UNK N   1      23.008  15.439   1.156  0.00  0.00     0.217 HD
ENDBRANCH  91  94
ENDBRANCH   1  88
TORSDOF 32
ENDMDL
MODEL 9
REMARK VINA RESULT:      -6.3      3.436      5.130
REMARK  32 active torsions:
REMARK  status: ('A' for Active; 'I' for Inactive)
REMARK    1  A    between atoms: C_1  and  O_14 
REMARK    2  A    between atoms: C_2  and  N_13 
REMARK    3  A    between atoms: C_6  and  N_20 
REMARK    4  A    between atoms: C_9  and  O_8 
REMARK    5  A    between atoms: C_9  and  C_10 
REMARK    6  A    between atoms: N_13  and  C_21 
REMARK       I    between atoms: N_20  and  C_74 
REMARK    7  A    between atoms: C_21  and  C_22 
REMARK    8  A    between atoms: C_22  and  N_23 
REMARK    9  A    between atoms: C_25  and  O_29 
REMARK   10  A    between atoms: C_32  and  O_34 
REMARK   11  A    between atoms: C_39  and  C_56 
REMARK   12  A    between atoms: C_43  and  C_45 
REMARK   13  A    between atoms: C_45  and  C_46 
REMARK   14  A    between atoms: C_45  and  O_48 
REMARK   15  A    between atoms: C_46  and  C_47 
REMARK   16  A    between atoms: C_52  and  O_55 
REMARK   17  A    between atoms: C_56  and  C_57 
REMARK   18  A    between atoms: C_56  and  O_60 
REMARK   19  A    between atoms: C_57  and  C_58 
REMARK   20  A    between atoms: C_58  and  N_59 
REMARK   21  A    between atoms: C_61  and  C_62 
REMARK   22  A    between atoms: C_61  and  C_66 
REMARK   23  A    between atoms: C_67  and  C_62 
REMARK   24  A    between atoms: C_63  and  C_64 
REMARK   25  A    between atoms: C_70  and  C_63 
REMARK   26  A    between atoms: C_64  and  C_65 
REMARK   27  A    between atoms: C_65  and  C_66 
REMARK   28  A    between atoms: C_67  and  C_68 
REMARK   29  A    between atoms: C_71  and  C_68 
REMARK   30  A    between atoms: C_69  and  C_70 
REMARK   31  A    between atoms: C_71  and  C_72 
REMARK   32  A    between atoms: C_74  and  C_72 
ROOT
HETATM    1  C   UNK N   1      29.788  17.128   5.517  0.00  0.00     0.182 C 
HETATM    2  O   UNK N   1      29.453  16.106   6.404  0.00  0.00    -0.388 OA
HETATM    3  H   UNK N   1      29.132  15.396   6.983  0.00  0.00     0.210 HD
ENDROOT
BRANCH   1   4
HETATM    4  C   UNK N   1      30.739  16.573   4.442  0.00  0.00     0.183 C 
BRANCH   4   5
HETATM    5  C   UNK N   1      32.148  17.183   4.510  0.00  0.00     0.208 C 
HETATM    6  N   UNK N   1      33.049  16.751   3.454  0.00  0.00    -0.344 N 
HETATM    7  C   UNK N   1      33.126  15.511   2.898  0.00  0.00     0.241 C 
HETATM    8  H   UNK N   1      33.672  17.428   3.105  0.00  0.00     0.163 HD
HETATM    9  C   UNK N   1      32.217  14.375   3.320  0.00  0.00     0.181 C 
HETATM   10  O   UNK N   1      33.957  15.314   2.024  0.00  0.00    -0.271 OA
HETATM   11  N   UNK N   1      33.003  13.233   3.713  0.00  0.00    -0.334 N 
HETATM   12  C   UNK N   1      31.398  13.887   2.130  0.00  0.00     0.068 C 
HETATM   13  C   UNK N   1      33.788  13.261   4.847  0.00  0.00     0.246 C 
HETATM   14  C   UNK N   1      32.901  12.131   2.797  0.00  0.00     0.158 C 
HETATM   15  C   UNK N   1      34.813  12.190   5.220  0.00  0.00     0.205 C 
HETATM   16  O   UNK N   1      33.723  14.228   5.586  0.00  0.00    -0.271 OA
HETATM   17  N   UNK N   1      36.098  12.850   5.249  0.00  0.00    -0.344 N 
HETATM   18  C   UNK N   1      36.937  12.933   6.316  0.00  0.00     0.241 C 
HETATM   19  H   UNK N   1      36.394  13.283   4.416  0.00  0.00     0.163 HD
HETATM   20  C   UNK N   1      36.654  12.318   7.685  0.00  0.00     0.179 C 
HETATM   21  O   UNK N   1      37.966  13.578   6.181  0.00  0.00    -0.271 OA
HETATM   22  C   UNK N   1      37.922  12.182   8.549  0.00  0.00     0.070 C 
HETATM   23  C   UNK N   1      37.820  11.134   9.656  0.00  0.00     0.162 C 
HETATM   24  C   UNK N   1      36.920  11.421  10.875  0.00  0.00     0.209 C 
HETATM   25  N   UNK N   1      35.822  12.368  10.763  0.00  0.00    -0.336 N 
HETATM   26  C   UNK N   1      35.957  13.701  10.541  0.00  0.00     0.244 C 
HETATM   27  H   UNK N   1      34.908  12.015  10.856  0.00  0.00     0.164 HD
HETATM   28  O   UNK N   1      37.054  14.196  10.322  0.00  0.00    -0.271 OA
HETATM   29  C   UNK N   1      34.739  14.580  10.671  0.00  0.00     0.208 C 
HETATM   30  N   UNK N   1      34.481  15.373   9.505  0.00  0.00    -0.334 N 
HETATM   31  C   UNK N   1      34.938  15.696  11.693  0.00  0.00     0.151 C 
HETATM   32  C   UNK N   1      35.201  16.626   9.504  0.00  0.00     0.129 C 
HETATM   33  C   UNK N   1      33.288  15.258   8.858  0.00  0.00     0.246 C 
HETATM   34  C   UNK N   1      35.690  16.787  10.938  0.00  0.00     0.054 C 
HETATM   35  O   UNK N   1      32.610  14.242   8.977  0.00  0.00    -0.271 OA
HETATM   36  C   UNK N   1      32.697  16.483   8.227  0.00  0.00     0.205 C 
HETATM   37  N   UNK N   1      32.252  16.356   6.860  0.00  0.00    -0.344 N 
HETATM   38  C   UNK N   1      32.815  17.087   5.864  0.00  0.00     0.243 C 
HETATM   39  H   UNK N   1      31.526  15.726   6.646  0.00  0.00     0.163 HD
HETATM   40  O   UNK N   1      33.829  17.736   6.075  0.00  0.00    -0.271 OA
HETATM   41  C   UNK N   1      32.102  12.638   1.616  0.00  0.00     0.138 C 
BRANCH  15  42
HETATM   42  C   UNK N   1      34.873  11.002   4.255  0.00  0.00     0.146 C 
HETATM   43  C   UNK N   1      34.061   9.834   4.777  0.00  0.00     0.042 C 
BRANCH  42  44
HETATM   44  O   UNK N   1      36.169  10.596   3.971  0.00  0.00    -0.393 OA
HETATM   45  H   UNK N   1      36.497   9.696   3.818  0.00  0.00     0.210 HD
ENDBRANCH  42  44
ENDBRANCH  15  42
BRANCH  20  46
HETATM   46  N   UNK N   1      35.786  11.152   7.745  0.00  0.00    -0.348 N 
HETATM   47  C   UNK N   1      36.123   9.858   7.504  0.00  0.00     0.218 C 
HETATM   48  O   UNK N   1      35.278   8.995   7.669  0.00  0.00    -0.274 OA
HETATM   49  H   UNK N   1      34.847  11.320   7.990  0.00  0.00     0.163 HD
BRANCH  47  50
HETATM   50  C   UNK N   1      37.449   9.446   6.938  0.00  0.00     0.103 C 
BRANCH  50  51
HETATM   51  C   UNK N   1      37.519   8.112   6.236  0.00  0.00     0.009 C 
BRANCH  51  52
HETATM   52  C   UNK N   1      38.979   7.683   6.172  0.00  0.00     0.000 C 
BRANCH  52  53
HETATM   53  C   UNK N   1      39.378   6.876   7.403  0.00  0.00     0.000 C 
BRANCH  53  54
HETATM   54  C   UNK N   1      40.323   7.637   8.322  0.00  0.00     0.000 C 
BRANCH  54  55
HETATM   55  C   UNK N   1      41.692   6.981   8.347  0.00  0.00     0.000 C 
BRANCH  55  56
HETATM   56  C   UNK N   1      42.747   8.053   8.546  0.00  0.00     0.000 C 
BRANCH  56  57
HETATM   57  C   UNK N   1      42.120   9.384   8.930  0.00  0.00     0.004 C 
BRANCH  57  58
HETATM   58  C   UNK N   1      42.664  10.499   8.052  0.00  0.00    -0.018 C 
HETATM   59  C   UNK N   1      44.153  10.637   8.302  0.00  0.00     0.010 C 
BRANCH  58  60
HETATM   60  C   UNK N   1      41.984  11.826   8.377  0.00  0.00     0.008 C 
BRANCH  60  61
HETATM   61  C   UNK N   1      41.215  12.405   7.188  0.00  0.00    -0.019 C 
HETATM   62  C   UNK N   1      40.758  11.338   6.208  0.00  0.00     0.010 C 
BRANCH  61  63
HETATM   63  C   UNK N   1      42.062  13.421   6.438  0.00  0.00    -0.000 C 
HETATM   64  C   UNK N   1      41.369  13.894   5.172  0.00  0.00     0.005 C 
ENDBRANCH  61  63
ENDBRANCH  60  61
ENDBRANCH  58  60
ENDBRANCH  57  58
ENDBRANCH  56  57
ENDBRANCH  55  56
ENDBRANCH  54  55
ENDBRANCH  53  54
ENDBRANCH  52  53
ENDBRANCH  51  52
ENDBRANCH  50  51
ENDBRANCH  47  50
ENDBRANCH  20  46
BRANCH  23  65
HETATM   65  O   UNK N   1      39.093  10.715  10.047  0.00  0.00    -0.392 OA
HETATM   66  H   UNK N   1      39.917  10.885   9.566  0.00  0.00     0.210 HD
ENDBRANCH  23  65
BRANCH  24  67
HETATM   67  N   UNK N   1      37.562  11.406  12.191  0.00  0.00    -0.398 N 
HETATM   68  H   UNK N   1      38.571  11.409  12.346  0.00  0.00     0.155 HD
BRANCH  67  69
HETATM   69  C   UNK N   1      36.563  11.384  13.245  0.00  0.00     0.135 C 
BRANCH  69  70
HETATM   70  C   UNK N   1      37.172  11.940  14.514  0.00  0.00     0.130 C 
BRANCH  70  71
HETATM   71  N   UNK N   1      37.186  13.389  14.446  0.00  0.00    -0.429 N 
HETATM   72  H   UNK N   1      37.670  14.280  14.557  0.00  0.00     0.149 HD
HETATM   73  H   UNK N   1      36.249  13.642  14.131  0.00  0.00     0.149 HD
ENDBRANCH  70  71
ENDBRANCH  69  70
ENDBRANCH  67  69
ENDBRANCH  24  67
BRANCH  36  74
HETATM   74  C   UNK N   1      31.575  16.996   9.129  0.00  0.00     0.151 C 
BRANCH  74  75
HETATM   75  C   UNK N   1      31.052  18.346   8.675  0.00  0.00     0.053 C 
BRANCH  75  76
HETATM   76  C   UNK N   1      29.777  18.694   9.432  0.00  0.00     0.113 C 
BRANCH  76  77
HETATM   77  N   UNK N   1      28.608  18.260   8.681  0.00  0.00    -0.430 N 
HETATM   78  H   UNK N   1      28.512  17.352   8.226  0.00  0.00     0.149 HD
HETATM   79  H   UNK N   1      27.828  18.913   8.602  0.00  0.00     0.149 HD
ENDBRANCH  76  77
ENDBRANCH  75  76
ENDBRANCH  74  75
BRANCH  74  80
HETATM   80  O   UNK N   1      30.537  16.066   9.242  0.00  0.00    -0.393 OA
HETATM   81  H   UNK N   1      30.044  15.304   8.904  0.00  0.00     0.210 HD
ENDBRANCH  74  80
ENDBRANCH  36  74
BRANCH  31  82
HETATM   82  O   UNK N   1      35.601  15.298  12.851  0.00  0.00    -0.393 OA
HETATM   83  H   UNK N   1      35.800  14.360  13.000  0.00  0.00     0.210 HD
ENDBRANCH  31  82
BRANCH  41  84
HETATM   84  O   UNK N   1      32.986  12.984   0.594  0.00  0.00    -0.394 OA
HETATM   85  H   UNK N   1      33.862  13.327   0.357  0.00  0.00     0.210 HD
ENDBRANCH  41  84
ENDBRANCH   4   5
BRANCH   4  86
HETATM   86  O   UNK N   1      30.189  16.669   3.160  0.00  0.00    -0.390 OA
HETATM   87  H   UNK N   1      30.653  17.167   2.469  0.00  0.00     0.210 HD
ENDBRANCH   4  86
ENDBRANCH   1   4
BRANCH   1  88
HETATM   88  C   UNK N   1      28.530  17.838   5.073  0.00  0.00    -0.027 A 
HETATM   89  C   UNK N   1      28.565  19.232   4.940  0.00  0.00     0.012 A 
HETATM   90  C   UNK N   1      27.410  19.942   4.603  0.00  0.00     0.037 A 
HETATM   91  C   UNK N   1      26.206  19.264   4.405  0.00  0.00     0.065 A 
HETATM   92  C   UNK N   1      26.160  17.873   4.525  0.00  0.00     0.037 A 
HETATM   93  C   UNK N   1      27.319  17.161   4.854  0.00  0.00     0.012 A 
BRANCH  91  94
HETATM   94  O   UNK N   1      25.091  19.951   4.106  0.00  0.00    -0.361 OA
HETATM   95  H   UNK N   1      24.850  20.715   4.592  0.00  0.00     0.217 HD
ENDBRANCH  91  94
ENDBRANCH   1  88
TORSDOF 32
ENDMDL
