MODEL 1
REMARK VINA RESULT:      -6.6      0.000      0.000
REMARK  3 active torsions:
REMARK  status: ('A' for Active; 'I' for Inactive)
REMARK    1  A    between atoms: C_1  and  O_21 
REMARK    2  A    between atoms: C_2  and  C_10 
REMARK       I    between atoms: C_10  and  N_12 
REMARK    3  A    between atoms: N_12  and  C_13 
ROOT
HETATM    1  C   UNK N   1      34.574  16.323   8.825  0.00  0.00     0.117 A 
HETATM    2  C   UNK N   1      35.556  15.387   9.104  0.00  0.00     0.147 A 
HETATM    3  N   UNK N   1      36.082  14.503   8.064  0.00  0.00    -0.268 N 
HETATM    4  S   UNK N   1      35.567  14.635   6.401  0.00  0.00     0.266 S 
HETATM    5  C   UNK N   1      33.992  16.530   7.471  0.00  0.00     0.063 A 
HETATM    6  C   UNK N   1      34.340  15.864   6.320  0.00  0.00     0.100 A 
HETATM    7  C   UNK N   1      33.640  16.266   5.153  0.00  0.00     0.034 A 
HETATM    8  C   UNK N   1      32.709  17.287   5.404  0.00  0.00     0.052 A 
HETATM    9  S   UNK N   1      32.820  17.614   7.037  0.00  0.00    -0.098 SA
HETATM   10  C   UNK N   1      36.989  13.420   8.357  0.00  0.00     0.170 C 
HETATM   11  O   UNK N   1      35.119  13.219   6.012  0.00  0.00    -0.200 OA
HETATM   12  O   UNK N   1      36.855  14.900   5.607  0.00  0.00    -0.200 OA
ENDROOT
BRANCH   2  13
HETATM   13  C   UNK N   1      36.106  15.278  10.517  0.00  0.00     0.277 C 
HETATM   14  O   UNK N   1      36.888  16.114  10.952  0.00  0.00    -0.266 OA
HETATM   15  N   UNK N   1      35.747  14.220  11.289  0.00  0.00    -0.308 N 
HETATM   16  H   UNK N   1      35.141  13.572  10.863  0.00  0.00     0.170 HD
BRANCH  15  17
HETATM   17  C   UNK N   1      36.125  13.917  12.625  0.00  0.00     0.107 A 
HETATM   18  C   UNK N   1      36.242  12.600  13.091  0.00  0.00     0.048 A 
HETATM   19  C   UNK N   1      36.640  12.375  14.411  0.00  0.00     0.005 A 
HETATM   20  C   UNK N   1      36.916  13.456  15.249  0.00  0.00     0.017 A 
HETATM   21  C   UNK N   1      36.787  14.753  14.752  0.00  0.00     0.089 A 
HETATM   22  N   UNK N   1      36.401  14.951  13.465  0.00  0.00    -0.352 N 
ATOM     23  HN  UNK N   1      36.315  15.906  13.118  1.00  0.00     0.166 HD
ENDBRANCH  15  17
ENDBRANCH   2  13
BRANCH   1  24
HETATM   24  O   UNK N   1      34.103  17.120   9.807  0.00  0.00    -0.357 OA
HETATM   25  H   UNK N   1      34.684  17.689  10.274  0.00  0.00     0.217 HD
ENDBRANCH   1  24
TORSDOF 3
ENDMDL
MODEL 2
REMARK VINA RESULT:      -6.5      4.022      6.032
REMARK  3 active torsions:
REMARK  status: ('A' for Active; 'I' for Inactive)
REMARK    1  A    between atoms: C_1  and  O_21 
REMARK    2  A    between atoms: C_2  and  C_10 
REMARK       I    between atoms: C_10  and  N_12 
REMARK    3  A    between atoms: N_12  and  C_13 
ROOT
HETATM    1  C   UNK N   1      31.058  16.990   5.972  0.00  0.00     0.117 A 
HETATM    2  C   UNK N   1      31.147  17.414   7.287  0.00  0.00     0.147 A 
HETATM    3  N   UNK N   1      29.972  17.895   8.013  0.00  0.00    -0.268 N 
HETATM    4  S   UNK N   1      28.381  17.882   7.293  0.00  0.00     0.266 S 
HETATM    5  C   UNK N   1      29.787  16.963   5.198  0.00  0.00     0.063 A 
HETATM    6  C   UNK N   1      28.541  17.319   5.657  0.00  0.00     0.100 A 
HETATM    7  C   UNK N   1      27.488  17.183   4.715  0.00  0.00     0.034 A 
HETATM    8  C   UNK N   1      27.930  16.701   3.473  0.00  0.00     0.052 A 
HETATM    9  S   UNK N   1      29.577  16.480   3.629  0.00  0.00    -0.098 SA
HETATM   10  C   UNK N   1      30.063  18.484   9.327  0.00  0.00     0.170 C 
HETATM   11  O   UNK N   1      27.860  19.317   7.458  0.00  0.00    -0.200 OA
HETATM   12  O   UNK N   1      27.528  17.017   8.234  0.00  0.00    -0.200 OA
ENDROOT
BRANCH   2  13
HETATM   13  C   UNK N   1      32.491  17.372   7.998  0.00  0.00     0.277 C 
HETATM   14  O   UNK N   1      33.202  18.367   8.052  0.00  0.00    -0.266 OA
HETATM   15  N   UNK N   1      32.914  16.205   8.548  0.00  0.00    -0.308 N 
HETATM   16  H   UNK N   1      32.304  15.440   8.439  0.00  0.00     0.170 HD
BRANCH  15  17
HETATM   17  C   UNK N   1      34.114  15.934   9.259  0.00  0.00     0.107 A 
HETATM   18  C   UNK N   1      34.951  14.857   8.934  0.00  0.00     0.048 A 
HETATM   19  C   UNK N   1      36.128  14.663   9.661  0.00  0.00     0.005 A 
HETATM   20  C   UNK N   1      36.458  15.537  10.698  0.00  0.00     0.017 A 
HETATM   21  C   UNK N   1      35.602  16.596  10.995  0.00  0.00     0.089 A 
HETATM   22  N   UNK N   1      34.463  16.770  10.275  0.00  0.00    -0.352 N 
ATOM     23  HN  UNK N   1      33.849  17.552  10.504  1.00  0.00     0.166 HD
ENDBRANCH  15  17
ENDBRANCH   2  13
BRANCH   1  24
HETATM   24  O   UNK N   1      32.162  16.559   5.326  0.00  0.00    -0.357 OA
HETATM   25  H   UNK N   1      32.795  17.173   5.009  0.00  0.00     0.217 HD
ENDBRANCH   1  24
TORSDOF 3
ENDMDL
MODEL 3
REMARK VINA RESULT:      -6.4      3.331      6.516
REMARK  3 active torsions:
REMARK  status: ('A' for Active; 'I' for Inactive)
REMARK    1  A    between atoms: C_1  and  O_21 
REMARK    2  A    between atoms: C_2  and  C_10 
REMARK       I    between atoms: C_10  and  N_12 
REMARK    3  A    between atoms: N_12  and  C_13 
ROOT
HETATM    1  C   UNK N   1      34.232  14.484  10.278  0.00  0.00     0.117 A 
HETATM    2  C   UNK N   1      34.142  15.125   9.054  0.00  0.00     0.147 A 
HETATM    3  N   UNK N   1      34.961  14.709   7.915  0.00  0.00    -0.268 N 
HETATM    4  S   UNK N   1      36.031  13.332   8.010  0.00  0.00     0.266 S 
HETATM    5  C   UNK N   1      35.131  13.327  10.540  0.00  0.00     0.063 A 
HETATM    6  C   UNK N   1      35.966  12.717   9.634  0.00  0.00     0.100 A 
HETATM    7  C   UNK N   1      36.706  11.617  10.139  0.00  0.00     0.034 A 
HETATM    8  C   UNK N   1      36.437  11.358  11.492  0.00  0.00     0.052 A 
HETATM    9  S   UNK N   1      35.313  12.498  11.961  0.00  0.00    -0.098 SA
HETATM   10  C   UNK N   1      35.000  15.452   6.679  0.00  0.00     0.170 C 
HETATM   11  O   UNK N   1      37.397  13.861   7.550  0.00  0.00    -0.200 OA
HETATM   12  O   UNK N   1      35.554  12.383   6.900  0.00  0.00    -0.200 OA
ENDROOT
BRANCH   2  13
HETATM   13  C   UNK N   1      33.168  16.280   8.883  0.00  0.00     0.277 C 
HETATM   14  O   UNK N   1      33.556  17.440   8.936  0.00  0.00    -0.266 OA
HETATM   15  N   UNK N   1      31.849  16.013   8.702  0.00  0.00    -0.308 N 
HETATM   16  H   UNK N   1      31.606  15.059   8.701  0.00  0.00     0.170 HD
BRANCH  15  17
HETATM   17  C   UNK N   1      30.770  16.919   8.514  0.00  0.00     0.107 A 
HETATM   18  C   UNK N   1      30.040  16.979   7.319  0.00  0.00     0.048 A 
HETATM   19  C   UNK N   1      28.977  17.879   7.212  0.00  0.00     0.005 A 
HETATM   20  C   UNK N   1      28.652  18.704   8.289  0.00  0.00     0.017 A 
HETATM   21  C   UNK N   1      29.400  18.618   9.462  0.00  0.00     0.089 A 
HETATM   22  N   UNK N   1      30.430  17.736   9.548  0.00  0.00    -0.352 N 
ATOM     23  HN  UNK N   1      30.965  17.685  10.415  1.00  0.00     0.166 HD
ENDBRANCH  15  17
ENDBRANCH   2  13
BRANCH   1  24
HETATM   24  O   UNK N   1      33.469  14.896  11.312  0.00  0.00    -0.357 OA
HETATM   25  H   UNK N   1      33.012  15.714  11.267  0.00  0.00     0.217 HD
ENDBRANCH   1  24
TORSDOF 3
ENDMDL
MODEL 4
REMARK VINA RESULT:      -6.3     12.815     14.354
REMARK  3 active torsions:
REMARK  status: ('A' for Active; 'I' for Inactive)
REMARK    1  A    between atoms: C_1  and  O_21 
REMARK    2  A    between atoms: C_2  and  C_10 
REMARK       I    between atoms: C_10  and  N_12 
REMARK    3  A    between atoms: N_12  and  C_13 
ROOT
HETATM    1  C   UNK N   1      23.453  17.437   5.107  0.00  0.00     0.117 A 
HETATM    2  C   UNK N   1      22.196  16.858   5.151  0.00  0.00     0.147 A 
HETATM    3  N   UNK N   1      21.068  17.432   4.419  0.00  0.00    -0.268 N 
HETATM    4  S   UNK N   1      21.260  18.825   3.384  0.00  0.00     0.266 S 
HETATM    5  C   UNK N   1      23.774  18.655   4.313  0.00  0.00     0.063 A 
HETATM    6  C   UNK N   1      22.909  19.359   3.509  0.00  0.00     0.100 A 
HETATM    7  C   UNK N   1      23.476  20.478   2.846  0.00  0.00     0.034 A 
HETATM    8  C   UNK N   1      24.836  20.654   3.144  0.00  0.00     0.052 A 
HETATM    9  S   UNK N   1      25.235  19.422   4.197  0.00  0.00    -0.098 SA
HETATM   10  C   UNK N   1      19.720  16.941   4.569  0.00  0.00     0.170 C 
HETATM   11  O   UNK N   1      20.197  19.825   3.865  0.00  0.00    -0.200 OA
HETATM   12  O   UNK N   1      20.795  18.356   1.997  0.00  0.00    -0.200 OA
ENDROOT
BRANCH   2  13
HETATM   13  C   UNK N   1      21.983  15.594   5.969  0.00  0.00     0.277 C 
HETATM   14  O   UNK N   1      21.864  14.506   5.422  0.00  0.00    -0.266 OA
HETATM   15  N   UNK N   1      21.891  15.687   7.321  0.00  0.00    -0.308 N 
HETATM   16  H   UNK N   1      21.966  16.597   7.689  0.00  0.00     0.170 HD
BRANCH  15  17
HETATM   17  C   UNK N   1      21.703  14.654   8.278  0.00  0.00     0.107 A 
HETATM   18  C   UNK N   1      20.637  14.660   9.189  0.00  0.00     0.048 A 
HETATM   19  C   UNK N   1      20.500  13.601  10.088  0.00  0.00     0.005 A 
HETATM   20  C   UNK N   1      21.420  12.551  10.073  0.00  0.00     0.017 A 
HETATM   21  C   UNK N   1      22.469  12.578   9.155  0.00  0.00     0.089 A 
HETATM   22  N   UNK N   1      22.585  13.617   8.287  0.00  0.00    -0.352 N 
ATOM     23  HN  UNK N   1      23.357  13.619   7.621  1.00  0.00     0.166 HD
ENDBRANCH  15  17
ENDBRANCH   2  13
BRANCH   1  24
HETATM   24  O   UNK N   1      24.474  16.888   5.799  0.00  0.00    -0.357 OA
HETATM   25  H   UNK N   1      24.314  16.462   6.619  0.00  0.00     0.217 HD
ENDBRANCH   1  24
TORSDOF 3
ENDMDL
MODEL 5
REMARK VINA RESULT:      -6.3      2.347      3.264
REMARK  3 active torsions:
REMARK  status: ('A' for Active; 'I' for Inactive)
REMARK    1  A    between atoms: C_1  and  O_21 
REMARK    2  A    between atoms: C_2  and  C_10 
REMARK       I    between atoms: C_10  and  N_12 
REMARK    3  A    between atoms: N_12  and  C_13 
ROOT
HETATM    1  C   UNK N   1      32.968  14.211   7.793  0.00  0.00     0.117 A 
HETATM    2  C   UNK N   1      33.815  14.832   8.696  0.00  0.00     0.147 A 
HETATM    3  N   UNK N   1      34.032  16.278   8.664  0.00  0.00    -0.268 N 
HETATM    4  S   UNK N   1      33.173  17.310   7.548  0.00  0.00     0.266 S 
HETATM    5  C   UNK N   1      32.200  14.939   6.746  0.00  0.00     0.063 A 
HETATM    6  C   UNK N   1      32.191  16.297   6.533  0.00  0.00     0.100 A 
HETATM    7  C   UNK N   1      31.355  16.737   5.474  0.00  0.00     0.034 A 
HETATM    8  C   UNK N   1      30.684  15.681   4.839  0.00  0.00     0.052 A 
HETATM    9  S   UNK N   1      31.169  14.292   5.625  0.00  0.00    -0.098 SA
HETATM   10  C   UNK N   1      35.021  16.929   9.488  0.00  0.00     0.170 C 
HETATM   11  O   UNK N   1      34.268  18.114   6.830  0.00  0.00    -0.200 OA
HETATM   12  O   UNK N   1      32.427  18.319   8.434  0.00  0.00    -0.200 OA
ENDROOT
BRANCH   2  13
HETATM   13  C   UNK N   1      34.530  13.999   9.748  0.00  0.00     0.277 C 
HETATM   14  O   UNK N   1      35.249  13.063   9.423  0.00  0.00    -0.266 OA
HETATM   15  N   UNK N   1      34.336  14.281  11.062  0.00  0.00    -0.308 N 
HETATM   16  H   UNK N   1      33.721  15.027  11.248  0.00  0.00     0.170 HD
BRANCH  15  17
HETATM   17  C   UNK N   1      34.897  13.651  12.205  0.00  0.00     0.107 A 
HETATM   18  C   UNK N   1      35.817  14.298  13.043  0.00  0.00     0.048 A 
HETATM   19  C   UNK N   1      36.311  13.626  14.163  0.00  0.00     0.005 A 
HETATM   20  C   UNK N   1      35.889  12.325  14.437  0.00  0.00     0.017 A 
HETATM   21  C   UNK N   1      34.974  11.712  13.581  0.00  0.00     0.089 A 
HETATM   22  N   UNK N   1      34.503  12.382  12.498  0.00  0.00    -0.352 N 
ATOM     23  HN  UNK N   1      33.833  11.919  11.884  1.00  0.00     0.166 HD
ENDBRANCH  15  17
ENDBRANCH   2  13
BRANCH   1  24
HETATM   24  O   UNK N   1      32.794  12.874   7.843  0.00  0.00    -0.357 OA
HETATM   25  H   UNK N   1      33.193  12.369   8.525  0.00  0.00     0.217 HD
ENDBRANCH   1  24
TORSDOF 3
ENDMDL
MODEL 6
REMARK VINA RESULT:      -6.1      3.681      7.054
REMARK  3 active torsions:
REMARK  status: ('A' for Active; 'I' for Inactive)
REMARK    1  A    between atoms: C_1  and  O_21 
REMARK    2  A    between atoms: C_2  and  C_10 
REMARK       I    between atoms: C_10  and  N_12 
REMARK    3  A    between atoms: N_12  and  C_13 
ROOT
HETATM    1  C   UNK N   1      33.517  13.621   9.423  0.00  0.00     0.117 A 
HETATM    2  C   UNK N   1      33.723  14.989   9.366  0.00  0.00     0.147 A 
HETATM    3  N   UNK N   1      34.893  15.609   9.987  0.00  0.00    -0.268 N 
HETATM    4  S   UNK N   1      36.135  14.655  10.759  0.00  0.00     0.266 S 
HETATM    5  C   UNK N   1      34.453  12.672  10.086  0.00  0.00     0.063 A 
HETATM    6  C   UNK N   1      35.640  12.990  10.703  0.00  0.00     0.100 A 
HETATM    7  C   UNK N   1      36.354  11.889  11.244  0.00  0.00     0.034 A 
HETATM    8  C   UNK N   1      35.699  10.664  11.038  0.00  0.00     0.052 A 
HETATM    9  S   UNK N   1      34.297  11.029  10.211  0.00  0.00    -0.098 SA
HETATM   10  C   UNK N   1      35.053  17.040  10.076  0.00  0.00     0.170 C 
HETATM   11  O   UNK N   1      36.283  15.260  12.163  0.00  0.00    -0.200 OA
HETATM   12  O   UNK N   1      37.429  15.009  10.012  0.00  0.00    -0.200 OA
ENDROOT
BRANCH   2  13
HETATM   13  C   UNK N   1      32.720  15.867   8.635  0.00  0.00     0.277 C 
HETATM   14  O   UNK N   1      32.971  16.314   7.524  0.00  0.00    -0.266 OA
HETATM   15  N   UNK N   1      31.547  16.181   9.244  0.00  0.00    -0.308 N 
HETATM   16  H   UNK N   1      31.427  15.812  10.148  0.00  0.00     0.170 HD
BRANCH  15  17
HETATM   17  C   UNK N   1      30.469  16.969   8.758  0.00  0.00     0.107 A 
HETATM   18  C   UNK N   1      29.701  17.788   9.597  0.00  0.00     0.048 A 
HETATM   19  C   UNK N   1      28.669  18.553   9.047  0.00  0.00     0.005 A 
HETATM   20  C   UNK N   1      28.414  18.496   7.676  0.00  0.00     0.017 A 
HETATM   21  C   UNK N   1      29.198  17.669   6.872  0.00  0.00     0.089 A 
HETATM   22  N   UNK N   1      30.197  16.934   7.425  0.00  0.00    -0.352 N 
ATOM     23  HN  UNK N   1      30.762  16.336   6.821  1.00  0.00     0.166 HD
ENDBRANCH  15  17
ENDBRANCH   2  13
BRANCH   1  24
HETATM   24  O   UNK N   1      32.424  13.078   8.846  0.00  0.00    -0.357 OA
HETATM   25  H   UNK N   1      31.778  12.646   9.370  0.00  0.00     0.217 HD
ENDBRANCH   1  24
TORSDOF 3
ENDMDL
MODEL 7
REMARK VINA RESULT:      -6.1      3.509      7.238
REMARK  3 active torsions:
REMARK  status: ('A' for Active; 'I' for Inactive)
REMARK    1  A    between atoms: C_1  and  O_21 
REMARK    2  A    between atoms: C_2  and  C_10 
REMARK       I    between atoms: C_10  and  N_12 
REMARK    3  A    between atoms: N_12  and  C_13 
ROOT
HETATM    1  C   UNK N   1      35.971  13.940  12.607  0.00  0.00     0.117 A 
HETATM    2  C   UNK N   1      35.609  13.464  11.358  0.00  0.00     0.147 A 
HETATM    3  N   UNK N   1      35.217  12.069  11.160  0.00  0.00    -0.268 N 
HETATM    4  S   UNK N   1      35.102  10.950  12.496  0.00  0.00     0.266 S 
HETATM    5  C   UNK N   1      35.975  13.105  13.840  0.00  0.00     0.063 A 
HETATM    6  C   UNK N   1      35.610  11.783  13.934  0.00  0.00     0.100 A 
HETATM    7  C   UNK N   1      35.689  11.226  15.236  0.00  0.00     0.034 A 
HETATM    8  C   UNK N   1      36.132  12.149  16.196  0.00  0.00     0.052 A 
HETATM    9  S   UNK N   1      36.391  13.576  15.370  0.00  0.00    -0.098 SA
HETATM   10  C   UNK N   1      34.985  11.510   9.850  0.00  0.00     0.170 C 
HETATM   11  O   UNK N   1      35.963   9.748  12.081  0.00  0.00    -0.200 OA
HETATM   12  O   UNK N   1      33.648  10.452  12.471  0.00  0.00    -0.200 OA
ENDROOT
BRANCH   2  13
HETATM   13  C   UNK N   1      35.609  14.409  10.167  0.00  0.00     0.277 C 
HETATM   14  O   UNK N   1      36.646  14.658   9.565  0.00  0.00    -0.266 OA
HETATM   15  N   UNK N   1      34.448  15.006   9.794  0.00  0.00    -0.308 N 
HETATM   16  H   UNK N   1      33.662  14.783  10.343  0.00  0.00     0.170 HD
BRANCH  15  17
HETATM   17  C   UNK N   1      34.209  15.908   8.723  0.00  0.00     0.107 A 
HETATM   18  C   UNK N   1      33.725  17.208   8.929  0.00  0.00     0.048 A 
HETATM   19  C   UNK N   1      33.534  18.049   7.831  0.00  0.00     0.005 A 
HETATM   20  C   UNK N   1      33.826  17.592   6.545  0.00  0.00     0.017 A 
HETATM   21  C   UNK N   1      34.304  16.293   6.376  0.00  0.00     0.089 A 
HETATM   22  N   UNK N   1      34.485  15.490   7.457  0.00  0.00    -0.352 N 
ATOM     23  HN  UNK N   1      34.838  14.544   7.315  1.00  0.00     0.166 HD
ENDBRANCH  15  17
ENDBRANCH   2  13
BRANCH   1  24
HETATM   24  O   UNK N   1      36.335  15.231  12.757  0.00  0.00    -0.357 OA
HETATM   25  H   UNK N   1      36.955  15.619  12.171  0.00  0.00     0.217 HD
ENDBRANCH   1  24
TORSDOF 3
ENDMDL
MODEL 8
REMARK VINA RESULT:      -6.1      7.998     11.638
REMARK  3 active torsions:
REMARK  status: ('A' for Active; 'I' for Inactive)
REMARK    1  A    between atoms: C_1  and  O_21 
REMARK    2  A    between atoms: C_2  and  C_10 
REMARK       I    between atoms: C_10  and  N_12 
REMARK    3  A    between atoms: N_12  and  C_13 
ROOT
HETATM    1  C   UNK N   1      28.053  18.489   6.879  0.00  0.00     0.117 A 
HETATM    2  C   UNK N   1      27.500  18.132   5.661  0.00  0.00     0.147 A 
HETATM    3  N   UNK N   1      28.148  17.153   4.788  0.00  0.00    -0.268 N 
HETATM    4  S   UNK N   1      29.604  16.319   5.270  0.00  0.00     0.266 S 
HETATM    5  C   UNK N   1      29.315  17.910   7.414  0.00  0.00     0.063 A 
HETATM    6  C   UNK N   1      30.091  16.946   6.816  0.00  0.00     0.100 A 
HETATM    7  C   UNK N   1      31.241  16.554   7.550  0.00  0.00     0.034 A 
HETATM    8  C   UNK N   1      31.365  17.239   8.769  0.00  0.00     0.052 A 
HETATM    9  S   UNK N   1      30.056  18.270   8.849  0.00  0.00    -0.098 SA
HETATM   10  C   UNK N   1      27.677  16.878   3.453  0.00  0.00     0.170 C 
HETATM   11  O   UNK N   1      30.591  16.548   4.116  0.00  0.00    -0.200 OA
HETATM   12  O   UNK N   1      29.241  14.827   5.220  0.00  0.00    -0.200 OA
ENDROOT
BRANCH   2  13
HETATM   13  C   UNK N   1      26.188  18.762   5.220  0.00  0.00     0.277 C 
HETATM   14  O   UNK N   1      26.140  19.937   4.879  0.00  0.00    -0.266 OA
HETATM   15  N   UNK N   1      25.054  18.016   5.240  0.00  0.00    -0.308 N 
HETATM   16  H   UNK N   1      25.162  17.089   5.554  0.00  0.00     0.170 HD
BRANCH  15  17
HETATM   17  C   UNK N   1      23.733  18.384   4.870  0.00  0.00     0.107 A 
HETATM   18  C   UNK N   1      22.609  17.995   5.612  0.00  0.00     0.048 A 
HETATM   19  C   UNK N   1      21.341  18.412   5.203  0.00  0.00     0.005 A 
HETATM   20  C   UNK N   1      21.203  19.209   4.065  0.00  0.00     0.017 A 
HETATM   21  C   UNK N   1      22.342  19.576   3.350  0.00  0.00     0.089 A 
HETATM   22  N   UNK N   1      23.567  19.162   3.765  0.00  0.00    -0.352 N 
ATOM     23  HN  UNK N   1      24.390  19.442   3.231  1.00  0.00     0.166 HD
ENDBRANCH  15  17
ENDBRANCH   2  13
BRANCH   1  24
HETATM   24  O   UNK N   1      27.435  19.401   7.659  0.00  0.00    -0.357 OA
HETATM   25  H   UNK N   1      27.906  19.835   8.343  0.00  0.00     0.217 HD
ENDBRANCH   1  24
TORSDOF 3
ENDMDL
MODEL 9
REMARK VINA RESULT:      -6.0     16.010     18.639
REMARK  3 active torsions:
REMARK  status: ('A' for Active; 'I' for Inactive)
REMARK    1  A    between atoms: C_1  and  O_21 
REMARK    2  A    between atoms: C_2  and  C_10 
REMARK       I    between atoms: C_10  and  N_12 
REMARK    3  A    between atoms: N_12  and  C_13 
ROOT
HETATM    1  C   UNK N   1      28.530  25.236  -4.825  0.00  0.00     0.117 A 
HETATM    2  C   UNK N   1      28.755  24.090  -5.568  0.00  0.00     0.147 A 
HETATM    3  N   UNK N   1      27.726  23.539  -6.448  0.00  0.00    -0.268 N 
HETATM    4  S   UNK N   1      26.191  24.340  -6.678  0.00  0.00     0.266 S 
HETATM    5  C   UNK N   1      27.259  26.011  -4.867  0.00  0.00     0.063 A 
HETATM    6  C   UNK N   1      26.157  25.734  -5.641  0.00  0.00     0.100 A 
HETATM    7  C   UNK N   1      25.078  26.645  -5.504  0.00  0.00     0.034 A 
HETATM    8  C   UNK N   1      25.350  27.674  -4.590  0.00  0.00     0.052 A 
HETATM    9  S   UNK N   1      26.892  27.385  -4.021  0.00  0.00    -0.098 SA
HETATM   10  C   UNK N   1      27.877  22.267  -7.113  0.00  0.00     0.170 C 
HETATM   11  O   UNK N   1      25.136  23.263  -6.385  0.00  0.00    -0.200 OA
HETATM   12  O   UNK N   1      26.107  24.609  -8.188  0.00  0.00    -0.200 OA
ENDROOT
BRANCH   2  13
HETATM   13  C   UNK N   1      30.102  23.391  -5.475  0.00  0.00     0.277 C 
HETATM   14  O   UNK N   1      30.969  23.585  -6.318  0.00  0.00    -0.266 OA
HETATM   15  N   UNK N   1      30.328  22.517  -4.460  0.00  0.00    -0.308 N 
HETATM   16  H   UNK N   1      29.576  22.387  -3.838  0.00  0.00     0.170 HD
BRANCH  15  17
HETATM   17  C   UNK N   1      31.497  21.763  -4.170  0.00  0.00     0.107 A 
HETATM   18  C   UNK N   1      32.124  21.803  -2.917  0.00  0.00     0.048 A 
HETATM   19  C   UNK N   1      33.258  21.019  -2.695  0.00  0.00     0.005 A 
HETATM   20  C   UNK N   1      33.753  20.206  -3.716  0.00  0.00     0.017 A 
HETATM   21  C   UNK N   1      33.105  20.192  -4.950  0.00  0.00     0.089 A 
HETATM   22  N   UNK N   1      32.002  20.961  -5.146  0.00  0.00    -0.352 N 
ATOM     23  HN  UNK N   1      31.539  20.936  -6.055  1.00  0.00     0.166 HD
ENDBRANCH  15  17
ENDBRANCH   2  13
BRANCH   1  24
HETATM   24  O   UNK N   1      29.497  25.717  -4.015  0.00  0.00    -0.357 OA
HETATM   25  H   UNK N   1      29.664  25.312  -3.186  0.00  0.00     0.217 HD
ENDBRANCH   1  24
TORSDOF 3
ENDMDL
