REMARK WARNING: 32 MAX_TORS EXCEEDED!!!
REMARK  45 active torsions:
REMARK  status: ('A' for Active; 'I' for Inactive)
REMARK    1  A    between atoms: S_3  and  C_99 
REMARK    2  A    between atoms: O_4  and  C_47 
REMARK    3  A    between atoms: O_4  and  C_51 
REMARK    4  A    between atoms: O_7  and  C_50 
REMARK    5  A    between atoms: C_58  and  O_7 
REMARK    6  A    between atoms: O_8  and  C_48 
REMARK    7  A    between atoms: O_9  and  C_49 
REMARK    8  A    between atoms: O_10  and  C_54 
REMARK    9  A    between atoms: O_10  and  C_63 
REMARK   10  A    between atoms: O_12  and  C_55 
REMARK   11  A    between atoms: O_13  and  C_57 
REMARK   12  A    between atoms: O_14  and  C_59 
REMARK   13  A    between atoms: C_66  and  O_17 
REMARK   14  A    between atoms: C_78  and  O_20 
REMARK   15  A    between atoms: C_60  and  N_25 
REMARK       I    between atoms: N_25  and  C_67 
REMARK       I    between atoms: N_27  and  C_62 
REMARK   16  A    between atoms: C_65  and  N_27 
REMARK       I    between atoms: N_30  and  C_63 
REMARK       I    between atoms: N_31  and  C_73 
REMARK   17  A    between atoms: C_75  and  N_31 
REMARK   18  A    between atoms: C_80  and  N_36 
REMARK   19  A    between atoms: N_36  and  C_84 
REMARK   20  A    between atoms: N_37  and  C_77 
REMARK       I    between atoms: N_38  and  C_81 
REMARK   21  A    between atoms: N_38  and  C_85 
REMARK       I    between atoms: N_39  and  C_86 
REMARK   22  A    between atoms: C_87  and  N_40 
REMARK       I    between atoms: N_41  and  C_89 
REMARK       I    between atoms: N_46  and  C_96 
REMARK   23  A    between atoms: N_46  and  C_97 
REMARK   24  A    between atoms: C_52  and  C_57 
REMARK   25  A    between atoms: C_56  and  C_59 
REMARK   26  A    between atoms: C_58  and  C_60 
REMARK   27  A    between atoms: C_58  and  C_61 
REMARK   28  A    between atoms: C_60  and  C_62 
REMARK   29  A    between atoms: C_65  and  C_66 
REMARK   30  A    between atoms: C_66  and  C_69 
REMARK   31  A    between atoms: C_67  and  C_71 
REMARK   32  A    between atoms: C_69  and  C_73 
REMARK   33  A    between atoms: C_75  and  C_78 
REMARK   34  A    between atoms: C_75  and  C_81 
REMARK   35  A    between atoms: C_76  and  C_80 
REMARK   36  A    between atoms: C_80  and  C_82 
REMARK   37  A    between atoms: C_82  and  C_86 
REMARK   38  A    between atoms: C_84  and  C_87 
REMARK   39  A    between atoms: C_85  and  C_88 
REMARK   40  A    between atoms: C_87  and  C_89 
REMARK   41  A    between atoms: C_88  and  C_90 
REMARK   42  A    between atoms: C_91  and  C_93 
REMARK   43  A    between atoms: C_94  and  C_96 
REMARK   44  A    between atoms: C_97  and  C_98 
REMARK   45  A    between atoms: C_98  and  C_99 
ROOT
HETATM    1  O   UNK N   1      19.449   0.729  -1.480  0.00  0.00    -0.348 OA
HETATM    2  O   UNK N   1      18.238   2.055   1.619  0.00  0.00    -0.388 OA
HETATM    3  C   UNK N   1      18.518   0.728  -0.413  0.00  0.00     0.292 C 
HETATM    4  C   UNK N   1      18.320   2.124   0.225  0.00  0.00     0.205 C 
HETATM    5  C   UNK N   1      19.402   3.095  -0.243  0.00  0.00     0.198 C 
HETATM    6  C   UNK N   1      20.766   2.419  -0.127  0.00  0.00     0.181 C 
HETATM    7  C   UNK N   1      20.730   1.192  -1.067  0.00  0.00     0.179 C 
HETATM    8  H   UNK N   1      18.167   2.080   2.586  0.00  0.00     0.210 HD
ENDROOT
BRANCH   3   9
HETATM    9  O   UNK N   1      18.763  -0.319   0.492  0.00  0.00    -0.346 OA
BRANCH   9  10
HETATM   10  C   UNK N   1      18.158  -1.453  -0.077  0.00  0.00     0.211 C 
HETATM   11  C   UNK N   1      19.118  -2.202  -1.000  0.00  0.00     0.183 C 
HETATM   12  C   UNK N   1      19.577  -3.516  -0.370  0.00  0.00     0.180 C 
HETATM   13  C   UNK N   1      18.362  -4.383  -0.006  0.00  0.00     0.179 C 
HETATM   14  O   UNK N   1      17.281  -3.692   0.595  0.00  0.00    -0.348 OA
HETATM   15  C   UNK N   1      17.560  -2.365   1.022  0.00  0.00     0.293 C 
BRANCH  11  16
HETATM   16  O   UNK N   1      18.482  -2.438  -2.220  0.00  0.00    -0.390 OA
HETATM   17  H   UNK N   1      18.118  -2.137  -3.067  0.00  0.00     0.210 HD
ENDBRANCH  11  16
BRANCH  12  18
HETATM   18  O   UNK N   1      20.314  -3.252   0.786  0.00  0.00    -0.390 OA
HETATM   19  H   UNK N   1      20.729  -3.604   1.588  0.00  0.00     0.210 HD
ENDBRANCH  12  18
BRANCH  13  20
HETATM   20  C   UNK N   1      17.842  -5.100  -1.247  0.00  0.00     0.198 C 
BRANCH  20  21
HETATM   21  O   UNK N   1      16.793  -5.957  -0.909  0.00  0.00    -0.398 OA
HETATM   22  H   UNK N   1      15.913  -5.624  -0.674  0.00  0.00     0.209 HD
ENDBRANCH  20  21
ENDBRANCH  13  20
BRANCH  15  23
HETATM   23  O   UNK N   1      16.388  -1.792   1.555  0.00  0.00    -0.345 OA
BRANCH  23  24
HETATM   24  C   UNK N   1      15.456  -1.738   0.502  0.00  0.00     0.207 C 
BRANCH  24  25
HETATM   25  C   UNK N   1      14.698  -0.426   0.451  0.00  0.00     0.212 C 
BRANCH  25  26
HETATM   26  N   UNK N   1      13.333  -0.694   0.125  0.00  0.00    -0.340 N 
HETATM   27  C   UNK N   1      12.300  -0.206   0.833  0.00  0.00     0.269 C 
HETATM   28  O   UNK N   1      12.478   0.635   1.698  0.00  0.00    -0.266 OA
HETATM   29  H   UNK N   1      13.141  -1.263  -0.655  0.00  0.00     0.163 HD
BRANCH  27  30
HETATM   30  C   UNK N   1      10.985  -0.798   0.594  0.00  0.00     0.111 A 
HETATM   31  N   UNK N   1      10.962  -2.007  -0.023  0.00  0.00    -0.339 N 
HETATM   32  C   UNK N   1       9.813  -2.690  -0.212  0.00  0.00     0.106 A 
ATOM     33  HN  UNK N   1      11.838  -2.410  -0.355  1.00  0.00     0.167 HD
HETATM   34  N   UNK N   1       8.636  -2.139   0.192  0.00  0.00    -0.330 N 
HETATM   35  C   UNK N   1       8.597  -0.928   0.802  0.00  0.00     0.108 A 
ATOM     36  HN  UNK N   1       7.765  -2.646   0.032  1.00  0.00     0.168 HD
HETATM   37  C   UNK N   1       9.782  -0.224   1.039  0.00  0.00     0.014 A 
HETATM   38  C   UNK N   1       9.742   1.100   1.735  0.00  0.00     0.055 C 
BRANCH  32  39
HETATM   39  C   UNK N   1       9.876  -4.098  -0.753  0.00  0.00     0.153 C 
BRANCH  39  40
HETATM   40  N   UNK N   1       8.541  -4.685  -0.915  0.00  0.00    -0.408 N 
HETATM   41  H   UNK N   1       8.116  -4.939  -1.807  0.00  0.00     0.154 HD
BRANCH  40  42
HETATM   42  C   UNK N   1       7.911  -4.853   0.391  0.00  0.00     0.148 C 
BRANCH  42  43
HETATM   43  C   UNK N   1       6.422  -5.031   0.222  0.00  0.00     0.184 C 
BRANCH  43  44
HETATM   44  N   UNK N   1       5.738  -4.120   1.123  0.00  0.00    -0.417 N 
HETATM   45  H   UNK N   1       6.052  -3.384   1.756  0.00  0.00     0.150 HD
HETATM   46  H   UNK N   1       4.726  -4.243   1.123  0.00  0.00     0.150 HD
ENDBRANCH  43  44
BRANCH  43  47
HETATM   47  C   UNK N   1       6.004  -6.445   0.504  0.00  0.00     0.239 C 
HETATM   48  O   UNK N   1       6.823  -7.288   0.841  0.00  0.00    -0.271 OA
HETATM   49  N   UNK N   1       4.709  -6.791   0.377  0.00  0.00    -0.368 N 
HETATM   50  H   UNK N   1       4.016  -6.097   0.285  0.00  0.00     0.159 HD
HETATM   51  H   UNK N   1       4.453  -7.742   0.377  0.00  0.00     0.159 HD
ENDBRANCH  43  47
ENDBRANCH  42  43
ENDBRANCH  40  42
ENDBRANCH  39  40
BRANCH  39  52
HETATM   52  C   UNK N   1      10.749  -4.953   0.186  0.00  0.00     0.135 C 
BRANCH  52  53
HETATM   53  C   UNK N   1      10.950  -6.384  -0.231  0.00  0.00     0.217 C 
HETATM   54  O   UNK N   1      10.504  -6.801  -1.288  0.00  0.00    -0.274 OA
HETATM   55  N   UNK N   1      11.631  -7.218   0.578  0.00  0.00    -0.370 N 
HETATM   56  H   UNK N   1      11.352  -7.954   1.170  0.00  0.00     0.159 HD
HETATM   57  H   UNK N   1      12.603  -7.060   0.578  0.00  0.00     0.159 HD
ENDBRANCH  52  53
ENDBRANCH  39  52
ENDBRANCH  32  39
BRANCH  35  58
HETATM   58  N   UNK N   1       7.363  -0.411   1.239  0.00  0.00    -0.385 N 
HETATM   59  H   UNK N   1       7.245   0.517   1.545  0.00  0.00     0.157 HD
HETATM   60  H   UNK N   1       6.580  -1.007   1.239  0.00  0.00     0.157 HD
ENDBRANCH  35  58
ENDBRANCH  27  30
ENDBRANCH  25  26
BRANCH  25  61
HETATM   61  C   UNK N   1      15.255   0.529  -0.544  0.00  0.00     0.243 C 
HETATM   62  O   UNK N   1      15.297   0.234  -1.730  0.00  0.00    -0.271 OA
HETATM   63  N   UNK N   1      15.545   1.778  -0.111  0.00  0.00    -0.352 N 
HETATM   64  H   UNK N   1      15.688   1.877   0.858  0.00  0.00     0.163 HD
BRANCH  63  65
HETATM   65  C   UNK N   1      15.672   2.995  -0.903  0.00  0.00     0.110 C 
HETATM   66  C   UNK N   1      15.523   2.814  -2.409  0.00  0.00     0.035 C 
BRANCH  65  67
HETATM   67  C   UNK N   1      14.604   3.957  -0.390  0.00  0.00     0.153 C 
BRANCH  67  68
HETATM   68  O   UNK N   1      15.068   4.534   0.795  0.00  0.00    -0.393 OA
HETATM   69  H   UNK N   1      15.576   4.455   1.618  0.00  0.00     0.210 HD
ENDBRANCH  67  68
BRANCH  67  70
HETATM   70  C   UNK N   1      13.302   3.175  -0.115  0.00  0.00     0.104 C 
HETATM   71  C   UNK N   1      12.630   2.419  -1.258  0.00  0.00     0.022 C 
BRANCH  70  72
HETATM   72  C   UNK N   1      12.467   3.589   1.051  0.00  0.00     0.224 C 
HETATM   73  O   UNK N   1      12.859   3.360   2.184  0.00  0.00    -0.273 OA
HETATM   74  N   UNK N   1      11.306   4.240   0.877  0.00  0.00    -0.345 N 
HETATM   75  H   UNK N   1      10.831   4.574   1.672  0.00  0.00     0.163 HD
BRANCH  74  76
HETATM   76  C   UNK N   1      10.724   4.472  -0.420  0.00  0.00     0.205 C 
BRANCH  76  77
HETATM   77  C   UNK N   1      10.831   5.952  -0.779  0.00  0.00     0.146 C 
HETATM   78  C   UNK N   1      12.097   6.138  -1.595  0.00  0.00     0.042 C 
BRANCH  77  79
HETATM   79  O   UNK N   1       9.744   6.381  -1.542  0.00  0.00    -0.393 OA
HETATM   80  H   UNK N   1       9.625   7.185  -2.071  0.00  0.00     0.210 HD
ENDBRANCH  77  79
ENDBRANCH  76  77
BRANCH  76  81
HETATM   81  C   UNK N   1       9.334   3.916  -0.407  0.00  0.00     0.243 C 
HETATM   82  O   UNK N   1       9.016   3.094  -1.250  0.00  0.00    -0.271 OA
HETATM   83  N   UNK N   1       8.437   4.290   0.534  0.00  0.00    -0.359 N 
HETATM   84  H   UNK N   1       7.527   3.919   0.487  0.00  0.00     0.162 HD
BRANCH  83  85
HETATM   85  C   UNK N   1       8.754   5.213   1.608  0.00  0.00     0.129 C 
BRANCH  85  86
HETATM   86  C   UNK N   1       8.186   6.611   1.341  0.00  0.00     0.084 C 
BRANCH  86  87
HETATM   87  C   UNK N   1       6.728   6.558   1.028  0.00  0.00     0.052 A 
HETATM   88  S   UNK N   1       5.705   7.818   0.746  0.00  0.00    -0.086 SA
HETATM   89  C   UNK N   1       4.324   6.934   0.427  0.00  0.00     0.083 A 
HETATM   90  C   UNK N   1       4.736   5.592   0.553  0.00  0.00     0.073 A 
HETATM   91  N   UNK N   1       6.049   5.407   0.882  0.00  0.00    -0.351 N 
ATOM     92  HN  UNK N   1       6.473   4.487   1.005  1.00  0.00     0.166 HD
BRANCH  90  93
HETATM   93  C   UNK N   1       3.927   4.415   0.271  0.00  0.00     0.102 A 
HETATM   94  S   UNK N   1       2.338   4.302  -0.153  0.00  0.00    -0.080 SA
HETATM   95  C   UNK N   1       2.298   2.662  -0.463  0.00  0.00     0.087 A 
HETATM   96  C   UNK N   1       3.614   2.221  -0.210  0.00  0.00     0.108 A 
HETATM   97  N   UNK N   1       4.490   3.192   0.200  0.00  0.00    -0.344 N 
ATOM     98  HN  UNK N   1       5.468   3.008   0.428  1.00  0.00     0.167 HD
BRANCH  96  99
HETATM   99  C   UNK N   1       4.109   0.862  -0.465  0.00  0.00     0.268 C 
HETATM  100  O   UNK N   1       5.271   0.599  -0.194  0.00  0.00    -0.266 OA
HETATM  101  N   UNK N   1       3.332  -0.062  -1.073  0.00  0.00    -0.356 N 
HETATM  102  H   UNK N   1       2.395   0.152  -1.288  0.00  0.00     0.162 HD
BRANCH 101 103
HETATM  103  C   UNK N   1       3.866  -1.362  -1.411  0.00  0.00     0.123 C 
BRANCH 103 104
HETATM  104  C   UNK N   1       2.882  -2.455  -1.065  0.00  0.00     0.029 C 
BRANCH 104 105
HETATM  105  C   UNK N   1       2.578  -2.467   0.418  0.00  0.00     0.064 C 
BRANCH 105 106
HETATM  106  S   UNK N   1       0.783  -2.684   0.599  0.00  0.00    -0.228 SA
HETATM  107  C   UNK N   1      -0.297  -1.216   0.543  0.00  0.00     0.078 C 
HETATM  108  C   UNK N   1       0.070  -4.340   0.337  0.00  0.00     0.078 C 
ENDBRANCH 105 106
ENDBRANCH 104 105
ENDBRANCH 103 104
ENDBRANCH 101 103
ENDBRANCH  96  99
ENDBRANCH  90  93
ENDBRANCH  86  87
ENDBRANCH  85  86
ENDBRANCH  83  85
ENDBRANCH  76  81
ENDBRANCH  74  76
ENDBRANCH  70  72
ENDBRANCH  67  70
ENDBRANCH  65  67
ENDBRANCH  63  65
ENDBRANCH  25  61
ENDBRANCH  24  25
BRANCH  24 109
HETATM  109  C   UNK N   1      14.669  -3.011   0.310  0.00  0.00     0.057 A 
HETATM  110  N   UNK N   1      14.466  -3.936   1.260  0.00  0.00    -0.352 N 
HETATM  111  C   UNK N   1      13.856  -4.954   0.624  0.00  0.00     0.180 A 
HETATM  112  H   UNK N   1      14.708  -3.882   2.213  0.00  0.00     0.166 HD
HETATM  113  N   UNK N   1      13.685  -4.695  -0.691  0.00  0.00    -0.360 N 
HETATM  114  C   UNK N   1      14.204  -3.473  -0.896  0.00  0.00     0.116 A 
ATOM    115  HN  UNK N   1      13.252  -5.303  -1.386  1.00  0.00     0.166 HD
ENDBRANCH  24 109
ENDBRANCH  23  24
ENDBRANCH  15  23
ENDBRANCH   9  10
ENDBRANCH   3   9
BRANCH   5 116
HETATM  116  O   UNK N   1      19.232   4.365   0.300  0.00  0.00    -0.293 OA
BRANCH 116 117
HETATM  117  C   UNK N   1      20.154   5.173   0.889  0.00  0.00     0.358 C 
HETATM  118  O   UNK N   1      21.309   4.812   1.051  0.00  0.00    -0.239 OA
HETATM  119  N   UNK N   1      19.789   6.409   1.279  0.00  0.00    -0.346 N 
HETATM  120  H   UNK N   1      20.438   7.092   1.565  0.00  0.00     0.161 HD
HETATM  121  H   UNK N   1      18.832   6.640   1.279  0.00  0.00     0.161 HD
ENDBRANCH 116 117
ENDBRANCH   5 116
BRANCH   6 122
HETATM  122  O   UNK N   1      20.995   2.033   1.198  0.00  0.00    -0.390 OA
HETATM  123  H   UNK N   1      20.843   1.761   2.117  0.00  0.00     0.210 HD
ENDBRANCH   6 122
BRANCH   7 124
HETATM  124  C   UNK N   1      21.746   0.085  -0.801  0.00  0.00     0.198 C 
BRANCH 124 125
HETATM  125  O   UNK N   1      21.461  -0.584   0.390  0.00  0.00    -0.398 OA
HETATM  126  H   UNK N   1      20.960  -0.645   1.218  0.00  0.00     0.209 HD
ENDBRANCH 124 125
ENDBRANCH   7 124
TORSDOF 45
