REMARK  1 active torsions:
REMARK  status: ('A' for Active; 'I' for Inactive)
REMARK    1  A    between atoms: O_1  and  C_2 
ROOT
HETATM    1  O   UNK N   1       1.728  -0.347   0.000  0.00  0.00    -0.401 OA
HETATM    2  H   UNK N   1       0.870   0.107   0.000  0.00  0.00     0.209 HD
ENDROOT
BRANCH   1   3
HETATM    3  C   UNK N   1       2.907   0.393   0.000  0.00  0.00     0.159 C 
HETATM    4  C   UNK N   1       4.088  -0.552   0.000  0.00  0.00     0.033 C 
ENDBRANCH   1   3
TORSDOF 1
