REMARK  12 active torsions:
REMARK  status: ('A' for Active; 'I' for Inactive)
REMARK    1  A    between atoms: N_1  and  C_2 
REMARK    2  A    between atoms: C_2  and  C_3 
REMARK    3  A    between atoms: C_6  and  C_5 
REMARK    4  A    between atoms: C_9  and  C_15 
REMARK    5  A    between atoms: C_11  and  C_26 
REMARK    6  A    between atoms: C_11  and  C_12 
REMARK    7  A    between atoms: C_12  and  O_14 
REMARK    8  A    between atoms: C_15  and  O_17 
REMARK    9  A    between atoms: C_21  and  C_22 
REMARK   10  A    between atoms: C_22  and  C_23 
REMARK   11  A    between atoms: C_23  and  C_24 
REMARK   12  A    between atoms: C_26  and  C_27 
ROOT
HETATM    1  N   UNK N   1      -1.289  -1.116  -0.327  0.00  0.00    -0.331 N 
HETATM    2  C   UNK N   1      -1.277   0.239  -0.378  0.00  0.00     0.052 A 
HETATM    3  C   UNK N   1      -2.580   0.695  -0.458  0.00  0.00     0.119 A 
HETATM    4  N   UNK N   1      -3.399  -0.376  -0.467  0.00  0.00    -0.353 N 
ATOM      5  HN  UNK N   1      -4.418  -0.372  -0.524  1.00  0.00     0.166 HD
HETATM    6  C   UNK N   1      -2.592  -1.455  -0.386  0.00  0.00     0.084 A 
ENDROOT
BRANCH   2   7
HETATM    7  C   UNK N   1      -0.067   1.093  -0.378  0.00  0.00     0.045 C 
HETATM    8  C   UNK N   1       0.038   2.320   0.162  0.00  0.00     0.022 C 
BRANCH   8   9
HETATM    9  C   UNK N   1      -1.097   2.914   0.956  0.00  0.00     0.091 C 
BRANCH   9  10
HETATM   10  C   UNK N   1      -1.629   4.210   0.426  0.00  0.00    -0.013 A 
HETATM   11  S   UNK N   1      -1.142   5.051  -0.916  0.00  0.00    -0.106 SA
HETATM   12  C   UNK N   1      -2.166   6.353  -0.826  0.00  0.00     0.050 A 
HETATM   13  C   UNK N   1      -2.955   6.143   0.315  0.00  0.00     0.008 A 
HETATM   14  C   UNK N   1      -2.654   4.941   1.017  0.00  0.00     0.015 A 
ENDBRANCH   9  10
ENDBRANCH   8   9
BRANCH   8  15
HETATM   15  C   UNK N   1       1.340   3.031   0.088  0.00  0.00     0.172 C 
HETATM   16  O   UNK N   1       2.267   2.560  -0.554  0.00  0.00    -0.646 OA
BRANCH  15  17
HETATM   17  O   UNK N   1       1.513   4.197   0.738  0.00  0.00    -0.773 OA
HETATM   18  H   UNK N   1       2.276   4.499   1.191  0.00  0.00     0.167 HD
ENDBRANCH  15  17
ENDBRANCH   8  15
ENDBRANCH   2   7
BRANCH   1  19
HETATM   19  C   UNK N   1      -0.189  -2.096  -0.220  0.00  0.00     0.169 C 
BRANCH  19  20
HETATM   20  C   UNK N   1       1.171  -1.496  -0.058  0.00  0.00    -0.040 A 
HETATM   21  C   UNK N   1       2.072  -1.552  -1.123  0.00  0.00     0.010 A 
HETATM   22  C   UNK N   1       3.314  -0.923  -1.025  0.00  0.00     0.019 A 
HETATM   23  C   UNK N   1       3.665  -0.227   0.140  0.00  0.00     0.037 A 
HETATM   24  C   UNK N   1       2.773  -0.201   1.223  0.00  0.00     0.019 A 
HETATM   25  C   UNK N   1       1.532  -0.841   1.129  0.00  0.00     0.010 A 
BRANCH  23  26
HETATM   26  C   UNK N   1       4.949   0.497   0.204  0.00  0.00     0.176 C 
HETATM   27  O   UNK N   1       5.237   1.158   1.190  0.00  0.00    -0.646 OA
BRANCH  26  28
HETATM   28  O   UNK N   1       5.801   0.458  -0.840  0.00  0.00    -0.773 OA
HETATM   29  H   UNK N   1       6.073  -0.069  -1.565  0.00  0.00     0.167 HD
ENDBRANCH  26  28
ENDBRANCH  23  26
ENDBRANCH  19  20
ENDBRANCH   1  19
BRANCH   6  30
HETATM   30  C   UNK N   1      -3.104  -2.859  -0.370  0.00  0.00     0.076 C 
BRANCH  30  31
HETATM   31  C   UNK N   1      -4.013  -3.071   0.828  0.00  0.00     0.007 C 
BRANCH  31  32
HETATM   32  C   UNK N   1      -4.665  -4.441   0.764  0.00  0.00    -0.004 C 
HETATM   33  C   UNK N   1      -5.799  -4.440  -0.245  0.00  0.00     0.005 C 
ENDBRANCH  31  32
ENDBRANCH  30  31
ENDBRANCH   6  30
TORSDOF 12
