MODEL 1
REMARK VINA RESULT:      -9.2      0.000      0.000
REMARK  7 active torsions:
REMARK  status: ('A' for Active; 'I' for Inactive)
REMARK    1  A    between atoms: C_2  and  O_32 
REMARK    2  A    between atoms: C_3  and  N_28 
REMARK    3  A    between atoms: C_4  and  O_31 
REMARK    4  A    between atoms: C_5  and  O_10 
REMARK    5  A    between atoms: C_7  and  O_13 
REMARK    6  A    between atoms: C_11  and  C_16 
REMARK       I    between atoms: C_16  and  N_20 
REMARK    7  A    between atoms: C_23  and  O_26 
ROOT
HETATM    1  C   UNK N   1      23.138  17.082   5.513  0.00  0.00     0.104 C 
HETATM    2  C   UNK N   1      21.611  17.288   5.844  0.00  0.00     0.180 C 
HETATM    3  C   UNK N   1      23.575  17.774   4.165  0.00  0.00     0.289 C 
HETATM    4  C   UNK N   1      23.448  15.561   5.584  0.00  0.00     0.137 C 
HETATM    5  C   UNK N   1      20.971  16.205   6.726  0.00  0.00     0.097 C 
HETATM    6  C   UNK N   1      20.830  17.567   4.574  0.00  0.00     0.208 C 
HETATM    7  C   UNK N   1      22.644  18.889   3.690  0.00  0.00     0.096 C 
HETATM    8  C   UNK N   1      23.198  15.143   7.056  0.00  0.00     0.063 C 
HETATM    9  C   UNK N   1      21.696  15.192   7.282  0.00  0.00     0.033 C 
HETATM   10  C   UNK N   1      21.303  18.734   3.796  0.00  0.00     0.112 C 
HETATM   11  O   UNK N   1      19.761  17.022   4.327  0.00  0.00    -0.288 OA
HETATM   12  C   UNK N   1      23.804  13.775   7.439  0.00  0.00     0.027 C 
HETATM   13  C   UNK N   1      21.072  14.216   8.241  0.00  0.00     0.194 C 
HETATM   14  C   UNK N   1      23.314  13.255   8.774  0.00  0.00    -0.037 A 
HETATM   15  C   UNK N   1      21.954  13.396   9.116  0.00  0.00     0.054 A 
HETATM   16  O   UNK N   1      19.861  14.202   8.413  0.00  0.00    -0.287 OA
HETATM   17  C   UNK N   1      24.177  12.557   9.638  0.00  0.00     0.009 A 
HETATM   18  C   UNK N   1      21.478  12.812  10.315  0.00  0.00     0.080 A 
HETATM   19  C   UNK N   1      23.702  12.005  10.826  0.00  0.00     0.003 A 
HETATM   20  C   UNK N   1      22.354  12.122  11.157  0.00  0.00     0.037 A 
HETATM   21  C   UNK N   1      25.335  13.791   7.376  0.00  0.00     0.016 C 
ENDROOT
BRANCH  10  22
HETATM   22  C   UNK N   1      20.326  19.745   3.279  0.00  0.00     0.255 C 
HETATM   23  N   UNK N   1      19.489  19.457   2.263  0.00  0.00    -0.366 N 
HETATM   24  H   UNK N   1      18.952  20.129   1.785  0.00  0.00     0.159 HD
HETATM   25  H   UNK N   1      19.409  18.517   1.983  0.00  0.00     0.159 HD
HETATM   26  O   UNK N   1      20.323  20.876   3.744  0.00  0.00    -0.268 OA
ENDBRANCH  10  22
BRANCH   7  27
HETATM   27  O   UNK N   1      23.170  19.993   3.117  0.00  0.00    -0.362 OA
HETATM   28  H   UNK N   1      23.214  20.833   3.529  0.00  0.00     0.217 HD
ENDBRANCH   7  27
BRANCH   2  29
HETATM   29  O   UNK N   1      21.516  18.473   6.583  0.00  0.00    -0.374 OA
HETATM   30  H   UNK N   1      21.238  19.330   6.941  0.00  0.00     0.211 HD
ENDBRANCH   2  29
BRANCH   3  31
HETATM   31  N   UNK N   1      24.980  18.239   4.056  0.00  0.00     0.091 N 
HETATM   32  C   UNK N   1      25.714  17.309   3.212  0.00  0.00     0.310 C 
HETATM   33  C   UNK N   1      25.729  18.361   5.295  0.00  0.00     0.310 C 
ENDBRANCH   3  31
BRANCH   5  34
HETATM   34  O   UNK N   1      19.650  16.312   6.991  0.00  0.00    -0.361 OA
HETATM   35  H   UNK N   1      19.219  15.659   7.507  0.00  0.00     0.217 HD
ENDBRANCH   5  34
BRANCH   4  36
HETATM   36  O   UNK N   1      24.738  15.252   5.165  0.00  0.00    -0.394 OA
HETATM   37  H   UNK N   1      25.125  15.640   4.365  0.00  0.00     0.210 HD
ENDBRANCH   4  36
BRANCH  18  38
HETATM   38  O   UNK N   1      20.190  12.931  10.682  0.00  0.00    -0.360 OA
HETATM   39  H   UNK N   1      19.505  12.620  10.123  0.00  0.00     0.217 HD
ENDBRANCH  18  38
TORSDOF 7
ENDMDL
MODEL 2
REMARK VINA RESULT:      -8.2     14.350     15.687
REMARK  7 active torsions:
REMARK  status: ('A' for Active; 'I' for Inactive)
REMARK    1  A    between atoms: C_2  and  O_32 
REMARK    2  A    between atoms: C_3  and  N_28 
REMARK    3  A    between atoms: C_4  and  O_31 
REMARK    4  A    between atoms: C_5  and  O_10 
REMARK    5  A    between atoms: C_7  and  O_13 
REMARK    6  A    between atoms: C_11  and  C_16 
REMARK       I    between atoms: C_16  and  N_20 
REMARK    7  A    between atoms: C_23  and  O_26 
ROOT
HETATM    1  C   UNK N   1      28.154  24.153  -6.132  0.00  0.00     0.104 C 
HETATM    2  C   UNK N   1      28.367  24.728  -4.680  0.00  0.00     0.180 C 
HETATM    3  C   UNK N   1      26.808  24.638  -6.796  0.00  0.00     0.289 C 
HETATM    4  C   UNK N   1      28.319  22.610  -6.071  0.00  0.00     0.137 C 
HETATM    5  C   UNK N   1      29.253  23.880  -3.754  0.00  0.00     0.097 C 
HETATM    6  C   UNK N   1      27.033  25.099  -4.060  0.00  0.00     0.208 C 
HETATM    7  C   UNK N   1      26.215  25.906  -6.182  0.00  0.00     0.096 C 
HETATM    8  C   UNK N   1      29.789  22.354  -5.647  0.00  0.00     0.063 C 
HETATM    9  C   UNK N   1      29.907  22.764  -4.189  0.00  0.00     0.033 C 
HETATM   10  C   UNK N   1      26.234  26.073  -4.838  0.00  0.00     0.112 C 
HETATM   11  O   UNK N   1      26.739  24.802  -2.909  0.00  0.00    -0.288 OA
HETATM   12  C   UNK N   1      30.279  20.911  -5.892  0.00  0.00     0.027 C 
HETATM   13  C   UNK N   1      30.866  22.022  -3.299  0.00  0.00     0.194 C 
HETATM   14  C   UNK N   1      31.600  20.604  -5.218  0.00  0.00    -0.037 A 
HETATM   15  C   UNK N   1      31.838  21.077  -3.913  0.00  0.00     0.054 A 
HETATM   16  O   UNK N   1      30.953  22.300  -2.111  0.00  0.00    -0.287 OA
HETATM   17  C   UNK N   1      32.555  19.781  -5.842  0.00  0.00     0.009 A 
HETATM   18  C   UNK N   1      33.028  20.696  -3.245  0.00  0.00     0.080 A 
HETATM   19  C   UNK N   1      33.732  19.430  -5.184  0.00  0.00     0.003 A 
HETATM   20  C   UNK N   1      33.961  19.877  -3.885  0.00  0.00     0.037 A 
HETATM   21  C   UNK N   1      30.323  20.568  -7.385  0.00  0.00     0.016 C 
ENDROOT
BRANCH  10  22
HETATM   22  C   UNK N   1      25.602  27.248  -4.157  0.00  0.00     0.255 C 
HETATM   23  N   UNK N   1      25.938  27.595  -2.899  0.00  0.00    -0.366 N 
HETATM   24  H   UNK N   1      25.440  28.247  -2.356  0.00  0.00     0.159 HD
HETATM   25  H   UNK N   1      26.731  27.170  -2.498  0.00  0.00     0.159 HD
HETATM   26  O   UNK N   1      24.720  27.875  -4.726  0.00  0.00    -0.268 OA
ENDBRANCH  10  22
BRANCH   7  27
HETATM   27  O   UNK N   1      25.628  26.820  -6.984  0.00  0.00    -0.362 OA
HETATM   28  H   UNK N   1      25.990  27.126  -7.792  0.00  0.00     0.217 HD
ENDBRANCH   7  27
BRANCH   2  29
HETATM   29  O   UNK N   1      29.039  25.947  -4.825  0.00  0.00    -0.374 OA
HETATM   30  H   UNK N   1      29.258  26.887  -4.924  0.00  0.00     0.211 HD
ENDBRANCH   2  29
BRANCH   3  31
HETATM   31  N   UNK N   1      26.775  24.758  -8.275  0.00  0.00     0.091 N 
HETATM   32  C   UNK N   1      25.899  23.725  -8.806  0.00  0.00     0.310 C 
HETATM   33  C   UNK N   1      28.044  24.631  -8.972  0.00  0.00     0.310 C 
ENDBRANCH   3  31
BRANCH   5  34
HETATM   34  O   UNK N   1      29.420  24.307  -2.483  0.00  0.00    -0.361 OA
HETATM   35  H   UNK N   1      28.693  24.657  -2.005  0.00  0.00     0.217 HD
ENDBRANCH   5  34
BRANCH   4  36
HETATM   36  O   UNK N   1      28.007  21.984  -7.275  0.00  0.00    -0.394 OA
HETATM   37  H   UNK N   1      28.686  21.771  -7.934  0.00  0.00     0.210 HD
ENDBRANCH   4  36
BRANCH  18  38
HETATM   38  O   UNK N   1      33.298  21.133  -2.003  0.00  0.00    -0.360 OA
HETATM   39  H   UNK N   1      34.038  21.685  -1.843  0.00  0.00     0.217 HD
ENDBRANCH  18  38
TORSDOF 7
ENDMDL
MODEL 3
REMARK VINA RESULT:      -8.0      8.945     12.673
REMARK  7 active torsions:
REMARK  status: ('A' for Active; 'I' for Inactive)
REMARK    1  A    between atoms: C_2  and  O_32 
REMARK    2  A    between atoms: C_3  and  N_28 
REMARK    3  A    between atoms: C_4  and  O_31 
REMARK    4  A    between atoms: C_5  and  O_10 
REMARK    5  A    between atoms: C_7  and  O_13 
REMARK    6  A    between atoms: C_11  and  C_16 
REMARK       I    between atoms: C_16  and  N_20 
REMARK    7  A    between atoms: C_23  and  O_26 
ROOT
HETATM    1  C   UNK N   1      34.083  14.322   7.819  0.00  0.00     0.104 C 
HETATM    2  C   UNK N   1      33.288  14.254   9.178  0.00  0.00     0.180 C 
HETATM    3  C   UNK N   1      35.578  13.836   7.954  0.00  0.00     0.289 C 
HETATM    4  C   UNK N   1      33.925  15.753   7.237  0.00  0.00     0.137 C 
HETATM    5  C   UNK N   1      32.111  15.231   9.308  0.00  0.00     0.097 C 
HETATM    6  C   UNK N   1      34.247  14.309  10.352  0.00  0.00     0.208 C 
HETATM    7  C   UNK N   1      35.853  12.951   9.169  0.00  0.00     0.096 C 
HETATM    8  C   UNK N   1      32.413  15.927   6.936  0.00  0.00     0.063 C 
HETATM    9  C   UNK N   1      31.705  16.028   8.277  0.00  0.00     0.033 C 
HETATM   10  C   UNK N   1      35.283  13.252  10.361  0.00  0.00     0.112 C 
HETATM   11  O   UNK N   1      34.048  15.020  11.329  0.00  0.00    -0.288 OA
HETATM   12  C   UNK N   1      32.083  17.116   6.008  0.00  0.00     0.027 C 
HETATM   13  C   UNK N   1      30.474  16.885   8.387  0.00  0.00     0.194 C 
HETATM   14  C   UNK N   1      30.605  17.444   5.957  0.00  0.00    -0.037 A 
HETATM   15  C   UNK N   1      29.848  17.416   7.145  0.00  0.00     0.054 A 
HETATM   16  O   UNK N   1      29.905  17.020   9.461  0.00  0.00    -0.287 OA
HETATM   17  C   UNK N   1      29.998  17.860   4.758  0.00  0.00     0.009 A 
HETATM   18  C   UNK N   1      28.493  17.829   7.112  0.00  0.00     0.080 A 
HETATM   19  C   UNK N   1      28.660  18.244   4.733  0.00  0.00     0.003 A 
HETATM   20  C   UNK N   1      27.914  18.239   5.909  0.00  0.00     0.037 A 
HETATM   21  C   UNK N   1      32.658  16.919   4.601  0.00  0.00     0.016 C 
ENDROOT
BRANCH  10  22
HETATM   22  C   UNK N   1      35.568  12.482  11.614  0.00  0.00     0.255 C 
HETATM   23  N   UNK N   1      34.584  12.152  12.473  0.00  0.00    -0.366 N 
HETATM   24  H   UNK N   1      34.740  11.797  13.378  0.00  0.00     0.159 HD
HETATM   25  H   UNK N   1      33.653  12.273  12.178  0.00  0.00     0.159 HD
HETATM   26  O   UNK N   1      36.722  12.194  11.899  0.00  0.00    -0.268 OA
ENDBRANCH  10  22
BRANCH   7  27
HETATM   27  O   UNK N   1      36.706  11.911   9.054  0.00  0.00    -0.362 OA
HETATM   28  H   UNK N   1      37.429  11.753   9.629  0.00  0.00     0.217 HD
ENDBRANCH   7  27
BRANCH   2  29
HETATM   29  O   UNK N   1      32.720  12.976   9.248  0.00  0.00    -0.374 OA
HETATM   30  H   UNK N   1      32.457  12.086   9.527  0.00  0.00     0.211 HD
ENDBRANCH   2  29
BRANCH   3  31
HETATM   31  N   UNK N   1      36.212  13.224   6.759  0.00  0.00     0.091 N 
HETATM   32  C   UNK N   1      37.178  14.164   6.213  0.00  0.00     0.310 C 
HETATM   33  C   UNK N   1      35.329  12.848   5.667  0.00  0.00     0.310 C 
ENDBRANCH   3  31
BRANCH   5  34
HETATM   34  O   UNK N   1      31.433  15.245  10.477  0.00  0.00    -0.361 OA
HETATM   35  H   UNK N   1      31.516  14.531  11.077  0.00  0.00     0.217 HD
ENDBRANCH   5  34
BRANCH   4  36
HETATM   36  O   UNK N   1      34.710  15.969   6.107  0.00  0.00    -0.394 OA
HETATM   37  H   UNK N   1      34.384  15.782   5.213  0.00  0.00     0.210 HD
ENDBRANCH   4  36
BRANCH  18  38
HETATM   38  O   UNK N   1      27.734  17.809   8.221  0.00  0.00    -0.360 OA
HETATM   39  H   UNK N   1      27.554  17.000   8.659  0.00  0.00     0.217 HD
ENDBRANCH  18  38
TORSDOF 7
ENDMDL
MODEL 4
REMARK VINA RESULT:      -7.6      7.493     10.855
REMARK  7 active torsions:
REMARK  status: ('A' for Active; 'I' for Inactive)
REMARK    1  A    between atoms: C_2  and  O_32 
REMARK    2  A    between atoms: C_3  and  N_28 
REMARK    3  A    between atoms: C_4  and  O_31 
REMARK    4  A    between atoms: C_5  and  O_10 
REMARK    5  A    between atoms: C_7  and  O_13 
REMARK    6  A    between atoms: C_11  and  C_16 
REMARK       I    between atoms: C_16  and  N_20 
REMARK    7  A    between atoms: C_23  and  O_26 
ROOT
HETATM    1  C   UNK N   1      32.464  16.769   6.019  0.00  0.00     0.104 C 
HETATM    2  C   UNK N   1      32.105  16.558   4.499  0.00  0.00     0.180 C 
HETATM    3  C   UNK N   1      33.621  15.819   6.517  0.00  0.00     0.289 C 
HETATM    4  C   UNK N   1      31.153  16.670   6.845  0.00  0.00     0.137 C 
HETATM    5  C   UNK N   1      30.672  16.937   4.097  0.00  0.00     0.097 C 
HETATM    6  C   UNK N   1      32.506  15.164   4.052  0.00  0.00     0.208 C 
HETATM    7  C   UNK N   1      34.502  15.250   5.404  0.00  0.00     0.096 C 
HETATM    8  C   UNK N   1      30.264  17.851   6.377  0.00  0.00     0.063 C 
HETATM    9  C   UNK N   1      29.800  17.524   4.967  0.00  0.00     0.033 C 
HETATM   10  C   UNK N   1      33.935  14.834   4.246  0.00  0.00     0.112 C 
HETATM   11  O   UNK N   1      31.769  14.455   3.379  0.00  0.00    -0.288 OA
HETATM   12  C   UNK N   1      29.085  18.171   7.322  0.00  0.00     0.027 C 
HETATM   13  C   UNK N   1      28.446  18.000   4.518  0.00  0.00     0.194 C 
HETATM   14  C   UNK N   1      28.073  19.122   6.717  0.00  0.00    -0.037 A 
HETATM   15  C   UNK N   1      27.701  18.970   5.366  0.00  0.00     0.054 A 
HETATM   16  O   UNK N   1      28.026  17.717   3.404  0.00  0.00    -0.287 OA
HETATM   17  C   UNK N   1      27.437  20.098   7.505  0.00  0.00     0.009 A 
HETATM   18  C   UNK N   1      26.675  19.789   4.835  0.00  0.00     0.080 A 
HETATM   19  C   UNK N   1      26.444  20.913   6.966  0.00  0.00     0.003 A 
HETATM   20  C   UNK N   1      26.057  20.750   5.638  0.00  0.00     0.037 A 
HETATM   21  C   UNK N   1      29.568  18.670   8.688  0.00  0.00     0.016 C 
ENDROOT
BRANCH  10  22
HETATM   22  C   UNK N   1      34.720  14.192   3.144  0.00  0.00     0.255 C 
HETATM   23  N   UNK N   1      34.457  14.456   1.849  0.00  0.00    -0.366 N 
HETATM   24  H   UNK N   1      34.827  13.943   1.096  0.00  0.00     0.159 HD
HETATM   25  H   UNK N   1      33.857  15.210   1.644  0.00  0.00     0.159 HD
HETATM   26  O   UNK N   1      35.580  13.366   3.414  0.00  0.00    -0.268 OA
ENDBRANCH  10  22
BRANCH   7  27
HETATM   27  O   UNK N   1      35.829  15.115   5.612  0.00  0.00    -0.362 OA
HETATM   28  H   UNK N   1      36.465  15.029   4.930  0.00  0.00     0.217 HD
ENDBRANCH   7  27
BRANCH   2  29
HETATM   29  O   UNK N   1      32.936  17.414   3.767  0.00  0.00    -0.374 OA
HETATM   30  H   UNK N   1      33.447  17.843   3.062  0.00  0.00     0.211 HD
ENDBRANCH   2  29
BRANCH   3  31
HETATM   31  N   UNK N   1      34.490  16.310   7.615  0.00  0.00     0.091 N 
HETATM   32  C   UNK N   1      34.162  15.579   8.830  0.00  0.00     0.310 C 
HETATM   33  C   UNK N   1      34.400  17.724   7.940  0.00  0.00     0.310 C 
ENDBRANCH   3  31
BRANCH   5  34
HETATM   34  O   UNK N   1      30.303  16.723   2.815  0.00  0.00    -0.361 OA
HETATM   35  H   UNK N   1      30.826  16.180   2.259  0.00  0.00     0.217 HD
ENDBRANCH   5  34
BRANCH   4  36
HETATM   36  O   UNK N   1      31.375  16.696   8.219  0.00  0.00    -0.394 OA
HETATM   37  H   UNK N   1      31.906  16.019   8.666  0.00  0.00     0.210 HD
ENDBRANCH   4  36
BRANCH  18  38
HETATM   38  O   UNK N   1      26.297  19.681   3.549  0.00  0.00    -0.360 OA
HETATM   39  H   UNK N   1      26.533  18.928   3.045  0.00  0.00     0.217 HD
ENDBRANCH  18  38
TORSDOF 7
ENDMDL
MODEL 5
REMARK VINA RESULT:      -7.5      8.358     12.224
REMARK  7 active torsions:
REMARK  status: ('A' for Active; 'I' for Inactive)
REMARK    1  A    between atoms: C_2  and  O_32 
REMARK    2  A    between atoms: C_3  and  N_28 
REMARK    3  A    between atoms: C_4  and  O_31 
REMARK    4  A    between atoms: C_5  and  O_10 
REMARK    5  A    between atoms: C_7  and  O_13 
REMARK    6  A    between atoms: C_11  and  C_16 
REMARK       I    between atoms: C_16  and  N_20 
REMARK    7  A    between atoms: C_23  and  O_26 
ROOT
HETATM    1  C   UNK N   1      33.661  15.775   7.945  0.00  0.00     0.104 C 
HETATM    2  C   UNK N   1      33.760  15.510   6.395  0.00  0.00     0.180 C 
HETATM    3  C   UNK N   1      34.634  14.867   8.790  0.00  0.00     0.289 C 
HETATM    4  C   UNK N   1      32.167  15.674   8.359  0.00  0.00     0.137 C 
HETATM    5  C   UNK N   1      32.501  15.845   5.582  0.00  0.00     0.097 C 
HETATM    6  C   UNK N   1      34.290  14.112   6.133  0.00  0.00     0.208 C 
HETATM    7  C   UNK N   1      35.806  14.283   8.002  0.00  0.00     0.096 C 
HETATM    8  C   UNK N   1      31.438  16.820   7.612  0.00  0.00     0.063 C 
HETATM    9  C   UNK N   1      31.407  16.440   6.141  0.00  0.00     0.033 C 
HETATM   10  C   UNK N   1      35.605  13.819   6.745  0.00  0.00     0.112 C 
HETATM   11  O   UNK N   1      33.788  13.366   5.302  0.00  0.00    -0.288 OA
HETATM   12  C   UNK N   1      30.033  17.145   8.162  0.00  0.00     0.027 C 
HETATM   13  C   UNK N   1      30.236  16.872   5.301  0.00  0.00     0.194 C 
HETATM   14  C   UNK N   1      29.229  18.054   7.256  0.00  0.00    -0.037 A 
HETATM   15  C   UNK N   1      29.266  17.851   5.862  0.00  0.00     0.054 A 
HETATM   16  O   UNK N   1      30.161  16.546   4.125  0.00  0.00    -0.287 OA
HETATM   17  C   UNK N   1      28.379  19.040   7.791  0.00  0.00     0.009 A 
HETATM   18  C   UNK N   1      28.428  18.631   5.027  0.00  0.00     0.080 A 
HETATM   19  C   UNK N   1      27.576  19.816   6.958  0.00  0.00     0.003 A 
HETATM   20  C   UNK N   1      27.593  19.603   5.582  0.00  0.00     0.037 A 
HETATM   21  C   UNK N   1      30.092  17.695   9.591  0.00  0.00     0.016 C 
ENDROOT
BRANCH  10  22
HETATM   22  C   UNK N   1      36.684  13.161   5.941  0.00  0.00     0.255 C 
HETATM   23  N   UNK N   1      36.869  13.457   4.640  0.00  0.00    -0.366 N 
HETATM   24  H   UNK N   1      37.447  12.940   4.034  0.00  0.00     0.159 HD
HETATM   25  H   UNK N   1      36.399  14.240   4.273  0.00  0.00     0.159 HD
HETATM   26  O   UNK N   1      37.376  12.292   6.453  0.00  0.00    -0.268 OA
ENDBRANCH  10  22
BRANCH   7  27
HETATM   27  O   UNK N   1      37.018  14.184   8.590  0.00  0.00    -0.362 OA
HETATM   28  H   UNK N   1      37.253  14.606   9.392  0.00  0.00     0.217 HD
ENDBRANCH   7  27
BRANCH   2  29
HETATM   29  O   UNK N   1      34.758  16.361   5.904  0.00  0.00    -0.374 OA
HETATM   30  H   UNK N   1      35.392  16.826   5.337  0.00  0.00     0.211 HD
ENDBRANCH   2  29
BRANCH   3  31
HETATM   31  N   UNK N   1      35.141  15.411  10.075  0.00  0.00     0.091 N 
HETATM   32  C   UNK N   1      34.420  14.774  11.167  0.00  0.00     0.310 C 
HETATM   33  C   UNK N   1      35.019  16.845  10.273  0.00  0.00     0.310 C 
ENDBRANCH   3  31
BRANCH   5  34
HETATM   34  O   UNK N   1      32.522  15.583   4.256  0.00  0.00    -0.361 OA
HETATM   35  H   UNK N   1      32.234  14.750   3.937  0.00  0.00     0.217 HD
ENDBRANCH   5  34
BRANCH   4  36
HETATM   36  O   UNK N   1      31.981  15.748   9.737  0.00  0.00    -0.394 OA
HETATM   37  H   UNK N   1      31.759  16.581  10.180  0.00  0.00     0.210 HD
ENDBRANCH   4  36
BRANCH  18  38
HETATM   38  O   UNK N   1      28.441  18.476   3.692  0.00  0.00    -0.360 OA
HETATM   39  H   UNK N   1      27.643  18.513   3.201  0.00  0.00     0.217 HD
ENDBRANCH  18  38
TORSDOF 7
ENDMDL
MODEL 6
REMARK VINA RESULT:      -7.0      8.449     11.155
REMARK  7 active torsions:
REMARK  status: ('A' for Active; 'I' for Inactive)
REMARK    1  A    between atoms: C_2  and  O_32 
REMARK    2  A    between atoms: C_3  and  N_28 
REMARK    3  A    between atoms: C_4  and  O_31 
REMARK    4  A    between atoms: C_5  and  O_10 
REMARK    5  A    between atoms: C_7  and  O_13 
REMARK    6  A    between atoms: C_11  and  C_16 
REMARK       I    between atoms: C_16  and  N_20 
REMARK    7  A    between atoms: C_23  and  O_26 
ROOT
HETATM    1  C   UNK N   1      31.538  15.425   6.308  0.00  0.00     0.104 C 
HETATM    2  C   UNK N   1      31.650  16.611   7.340  0.00  0.00     0.180 C 
HETATM    3  C   UNK N   1      30.096  15.286   5.685  0.00  0.00     0.289 C 
HETATM    4  C   UNK N   1      32.068  14.136   6.993  0.00  0.00     0.137 C 
HETATM    5  C   UNK N   1      32.740  16.457   8.412  0.00  0.00     0.097 C 
HETATM    6  C   UNK N   1      30.285  16.941   7.914  0.00  0.00     0.208 C 
HETATM    7  C   UNK N   1      29.236  16.546   5.778  0.00  0.00     0.096 C 
HETATM    8  C   UNK N   1      33.569  14.396   7.288  0.00  0.00     0.063 C 
HETATM    9  C   UNK N   1      33.628  15.421   8.407  0.00  0.00     0.033 C 
HETATM   10  C   UNK N   1      29.255  17.288   6.911  0.00  0.00     0.112 C 
HETATM   11  O   UNK N   1      30.105  17.129   9.111  0.00  0.00    -0.288 OA
HETATM   12  C   UNK N   1      34.381  13.124   7.614  0.00  0.00     0.027 C 
HETATM   13  C   UNK N   1      34.763  15.358   9.393  0.00  0.00     0.194 C 
HETATM   14  C   UNK N   1      35.757  13.419   8.174  0.00  0.00    -0.037 A 
HETATM   15  C   UNK N   1      35.914  14.457   9.114  0.00  0.00     0.054 A 
HETATM   16  O   UNK N   1      34.817  16.143  10.330  0.00  0.00    -0.287 OA
HETATM   17  C   UNK N   1      36.862  12.617   7.836  0.00  0.00     0.009 A 
HETATM   18  C   UNK N   1      37.180  14.658   9.717  0.00  0.00     0.080 A 
HETATM   19  C   UNK N   1      38.107  12.838   8.420  0.00  0.00     0.003 A 
HETATM   20  C   UNK N   1      38.262  13.848   9.366  0.00  0.00     0.037 A 
HETATM   21  C   UNK N   1      34.461  12.174   6.414  0.00  0.00     0.016 C 
ENDROOT
BRANCH  10  22
HETATM   22  C   UNK N   1      28.381  18.489   7.108  0.00  0.00     0.255 C 
HETATM   23  N   UNK N   1      27.786  18.738   8.291  0.00  0.00    -0.366 N 
HETATM   24  H   UNK N   1      27.081  19.412   8.422  0.00  0.00     0.159 HD
HETATM   25  H   UNK N   1      28.075  18.213   9.073  0.00  0.00     0.159 HD
HETATM   26  O   UNK N   1      28.150  19.232   6.164  0.00  0.00    -0.268 OA
ENDBRANCH  10  22
BRANCH   7  27
HETATM   27  O   UNK N   1      28.424  16.873   4.750  0.00  0.00    -0.362 OA
HETATM   28  H   UNK N   1      27.809  17.579   4.765  0.00  0.00     0.217 HD
ENDBRANCH   7  27
BRANCH   2  29
HETATM   29  O   UNK N   1      32.008  17.749   6.607  0.00  0.00    -0.374 OA
HETATM   30  H   UNK N   1      32.419  18.574   6.304  0.00  0.00     0.211 HD
ENDBRANCH   2  29
BRANCH   3  31
HETATM   31  N   UNK N   1      29.991  14.731   4.312  0.00  0.00     0.091 N 
HETATM   32  C   UNK N   1      29.436  13.389   4.393  0.00  0.00     0.310 C 
HETATM   33  C   UNK N   1      31.224  14.629   3.550  0.00  0.00     0.310 C 
ENDBRANCH   3  31
BRANCH   5  34
HETATM   34  O   UNK N   1      32.838  17.425   9.350  0.00  0.00    -0.361 OA
HETATM   35  H   UNK N   1      32.181  18.091   9.409  0.00  0.00     0.217 HD
ENDBRANCH   5  34
BRANCH   4  36
HETATM   36  O   UNK N   1      31.879  12.994   6.219  0.00  0.00    -0.394 OA
HETATM   37  H   UNK N   1      31.533  12.171   6.596  0.00  0.00     0.210 HD
ENDBRANCH   4  36
BRANCH  18  38
HETATM   38  O   UNK N   1      37.374  15.643  10.611  0.00  0.00    -0.360 OA
HETATM   39  H   UNK N   1      36.808  15.731  11.353  0.00  0.00     0.217 HD
ENDBRANCH  18  38
TORSDOF 7
ENDMDL
MODEL 7
REMARK VINA RESULT:      -6.9      1.409      1.776
REMARK  7 active torsions:
REMARK  status: ('A' for Active; 'I' for Inactive)
REMARK    1  A    between atoms: C_2  and  O_32 
REMARK    2  A    between atoms: C_3  and  N_28 
REMARK    3  A    between atoms: C_4  and  O_31 
REMARK    4  A    between atoms: C_5  and  O_10 
REMARK    5  A    between atoms: C_7  and  O_13 
REMARK    6  A    between atoms: C_11  and  C_16 
REMARK       I    between atoms: C_16  and  N_20 
REMARK    7  A    between atoms: C_23  and  O_26 
ROOT
HETATM    1  C   UNK N   1      24.334  16.942   5.571  0.00  0.00     0.104 C 
HETATM    2  C   UNK N   1      22.899  17.592   5.550  0.00  0.00     0.180 C 
HETATM    3  C   UNK N   1      25.243  17.418   4.373  0.00  0.00     0.289 C 
HETATM    4  C   UNK N   1      24.167  15.401   5.676  0.00  0.00     0.137 C 
HETATM    5  C   UNK N   1      21.792  16.778   6.239  0.00  0.00     0.097 C 
HETATM    6  C   UNK N   1      22.537  18.026   4.142  0.00  0.00     0.208 C 
HETATM    7  C   UNK N   1      24.806  18.731   3.724  0.00  0.00     0.096 C 
HETATM    8  C   UNK N   1      23.484  15.138   7.043  0.00  0.00     0.063 C 
HETATM    9  C   UNK N   1      22.050  15.626   6.922  0.00  0.00     0.033 C 
HETATM   10  C   UNK N   1      23.489  18.971   3.518  0.00  0.00     0.112 C 
HETATM   11  O   UNK N   1      21.440  17.799   3.647  0.00  0.00    -0.288 OA
HETATM   12  C   UNK N   1      23.566  13.673   7.522  0.00  0.00     0.027 C 
HETATM   13  C   UNK N   1      20.971  14.914   7.692  0.00  0.00     0.194 C 
HETATM   14  C   UNK N   1      22.660  13.375   8.699  0.00  0.00    -0.037 A 
HETATM   15  C   UNK N   1      21.359  13.916   8.726  0.00  0.00     0.054 A 
HETATM   16  O   UNK N   1      19.802  15.255   7.583  0.00  0.00    -0.287 OA
HETATM   17  C   UNK N   1      23.068  12.499   9.721  0.00  0.00     0.009 A 
HETATM   18  C   UNK N   1      20.478  13.546   9.772  0.00  0.00     0.080 A 
HETATM   19  C   UNK N   1      22.200  12.160  10.757  0.00  0.00     0.003 A 
HETATM   20  C   UNK N   1      20.905  12.674  10.775  0.00  0.00     0.037 A 
HETATM   21  C   UNK N   1      25.009  13.247   7.810  0.00  0.00     0.016 C 
ENDROOT
BRANCH  10  22
HETATM   22  C   UNK N   1      22.989  20.196   2.816  0.00  0.00     0.255 C 
HETATM   23  N   UNK N   1      21.686  20.540   2.847  0.00  0.00    -0.366 N 
HETATM   24  H   UNK N   1      21.286  21.232   2.273  0.00  0.00     0.159 HD
HETATM   25  H   UNK N   1      21.099  20.071   3.483  0.00  0.00     0.159 HD
HETATM   26  O   UNK N   1      23.761  20.870   2.149  0.00  0.00    -0.268 OA
ENDBRANCH  10  22
BRANCH   7  27
HETATM   27  O   UNK N   1      25.743  19.611   3.311  0.00  0.00    -0.362 OA
HETATM   28  H   UNK N   1      26.102  19.635   2.446  0.00  0.00     0.217 HD
ENDBRANCH   7  27
BRANCH   2  29
HETATM   29  O   UNK N   1      22.987  18.786   6.275  0.00  0.00    -0.374 OA
HETATM   30  H   UNK N   1      22.785  19.607   6.750  0.00  0.00     0.211 HD
ENDBRANCH   2  29
BRANCH   3  31
HETATM   31  N   UNK N   1      26.710  17.456   4.597  0.00  0.00     0.091 N 
HETATM   32  C   UNK N   1      27.017  18.567   5.486  0.00  0.00     0.310 C 
HETATM   33  C   UNK N   1      27.550  17.616   3.422  0.00  0.00     0.310 C 
ENDBRANCH   3  31
BRANCH   5  34
HETATM   34  O   UNK N   1      20.534  17.271   6.199  0.00  0.00    -0.361 OA
HETATM   35  H   UNK N   1      20.392  18.184   6.042  0.00  0.00     0.217 HD
ENDBRANCH   5  34
BRANCH   4  36
HETATM   36  O   UNK N   1      25.373  14.716   5.555  0.00  0.00    -0.394 OA
HETATM   37  H   UNK N   1      26.228  15.165   5.635  0.00  0.00     0.210 HD
ENDBRANCH   4  36
BRANCH  18  38
HETATM   38  O   UNK N   1      19.232  14.047   9.838  0.00  0.00    -0.360 OA
HETATM   39  H   UNK N   1      18.711  13.924  10.608  0.00  0.00     0.217 HD
ENDBRANCH  18  38
TORSDOF 7
ENDMDL
MODEL 8
REMARK VINA RESULT:      -6.9     11.911     14.309
REMARK  7 active torsions:
REMARK  status: ('A' for Active; 'I' for Inactive)
REMARK    1  A    between atoms: C_2  and  O_32 
REMARK    2  A    between atoms: C_3  and  N_28 
REMARK    3  A    between atoms: C_4  and  O_31 
REMARK    4  A    between atoms: C_5  and  O_10 
REMARK    5  A    between atoms: C_7  and  O_13 
REMARK    6  A    between atoms: C_11  and  C_16 
REMARK       I    between atoms: C_16  and  N_20 
REMARK    7  A    between atoms: C_23  and  O_26 
ROOT
HETATM    1  C   UNK N   1      36.063  13.525   8.782  0.00  0.00     0.104 C 
HETATM    2  C   UNK N   1      35.312  14.583   9.676  0.00  0.00     0.180 C 
HETATM    3  C   UNK N   1      35.777  13.706   7.242  0.00  0.00     0.289 C 
HETATM    4  C   UNK N   1      35.740  12.109   9.332  0.00  0.00     0.137 C 
HETATM    5  C   UNK N   1      35.019  14.144  11.119  0.00  0.00     0.097 C 
HETATM    6  C   UNK N   1      34.090  15.114   8.950  0.00  0.00     0.208 C 
HETATM    7  C   UNK N   1      35.270  15.093   6.846  0.00  0.00     0.096 C 
HETATM    8  C   UNK N   1      36.336  12.061  10.763  0.00  0.00     0.063 C 
HETATM    9  C   UNK N   1      35.476  12.964  11.631  0.00  0.00     0.033 C 
HETATM   10  C   UNK N   1      34.366  15.726   7.632  0.00  0.00     0.112 C 
HETATM   11  O   UNK N   1      33.002  15.236   9.499  0.00  0.00    -0.288 OA
HETATM   12  C   UNK N   1      36.467  10.638  11.349  0.00  0.00     0.027 C 
HETATM   13  C   UNK N   1      35.283  12.612  13.081  0.00  0.00     0.194 C 
HETATM   14  C   UNK N   1      36.775  10.626  12.832  0.00  0.00    -0.037 A 
HETATM   15  C   UNK N   1      36.119  11.538  13.682  0.00  0.00     0.054 A 
HETATM   16  O   UNK N   1      34.562  13.296  13.795  0.00  0.00    -0.287 OA
HETATM   17  C   UNK N   1      37.638   9.662  13.383  0.00  0.00     0.009 A 
HETATM   18  C   UNK N   1      36.326  11.451  15.081  0.00  0.00     0.080 A 
HETATM   19  C   UNK N   1      37.851   9.600  14.758  0.00  0.00     0.003 A 
HETATM   20  C   UNK N   1      37.187  10.485  15.605  0.00  0.00     0.037 A 
HETATM   21  C   UNK N   1      37.474   9.789  10.565  0.00  0.00     0.016 C 
ENDROOT
BRANCH  10  22
HETATM   22  C   UNK N   1      33.763  17.048   7.270  0.00  0.00     0.255 C 
HETATM   23  N   UNK N   1      32.436  17.263   7.362  0.00  0.00    -0.366 N 
HETATM   24  H   UNK N   1      31.978  18.048   6.985  0.00  0.00     0.159 HD
HETATM   25  H   UNK N   1      31.891  16.594   7.837  0.00  0.00     0.159 HD
HETATM   26  O   UNK N   1      34.475  17.937   6.825  0.00  0.00    -0.268 OA
ENDBRANCH  10  22
BRANCH   7  27
HETATM   27  O   UNK N   1      35.688  15.646   5.688  0.00  0.00    -0.362 OA
HETATM   28  H   UNK N   1      36.533  15.508   5.309  0.00  0.00     0.217 HD
ENDBRANCH   7  27
BRANCH   2  29
HETATM   29  O   UNK N   1      36.162  15.690   9.790  0.00  0.00    -0.374 OA
HETATM   30  H   UNK N   1      36.595  16.550   9.676  0.00  0.00     0.211 HD
ENDBRANCH   2  29
BRANCH   3  31
HETATM   31  N   UNK N   1      36.840  13.293   6.292  0.00  0.00     0.091 N 
HETATM   32  C   UNK N   1      36.415  12.075   5.619  0.00  0.00     0.310 C 
HETATM   33  C   UNK N   1      38.154  13.025   6.853  0.00  0.00     0.310 C 
ENDBRANCH   3  31
BRANCH   5  34
HETATM   34  O   UNK N   1      34.329  14.998  11.907  0.00  0.00    -0.361 OA
HETATM   35  H   UNK N   1      34.739  15.776  12.229  0.00  0.00     0.217 HD
ENDBRANCH   5  34
BRANCH   4  36
HETATM   36  O   UNK N   1      36.236  11.088   8.526  0.00  0.00    -0.394 OA
HETATM   37  H   UNK N   1      36.511  10.233   8.892  0.00  0.00     0.210 HD
ENDBRANCH   4  36
BRANCH  18  38
HETATM   38  O   UNK N   1      35.727  12.308  15.926  0.00  0.00    -0.360 OA
HETATM   39  H   UNK N   1      35.726  12.144  16.849  0.00  0.00     0.217 HD
ENDBRANCH  18  38
TORSDOF 7
ENDMDL
MODEL 9
REMARK VINA RESULT:      -6.8     15.354     16.950
REMARK  7 active torsions:
REMARK  status: ('A' for Active; 'I' for Inactive)
REMARK    1  A    between atoms: C_2  and  O_32 
REMARK    2  A    between atoms: C_3  and  N_28 
REMARK    3  A    between atoms: C_4  and  O_31 
REMARK    4  A    between atoms: C_5  and  O_10 
REMARK    5  A    between atoms: C_7  and  O_13 
REMARK    6  A    between atoms: C_11  and  C_16 
REMARK       I    between atoms: C_16  and  N_20 
REMARK    7  A    between atoms: C_23  and  O_26 
ROOT
HETATM    1  C   UNK N   1      28.358  24.226  -6.209  0.00  0.00     0.104 C 
HETATM    2  C   UNK N   1      26.838  24.587  -6.416  0.00  0.00     0.180 C 
HETATM    3  C   UNK N   1      28.680  22.713  -6.517  0.00  0.00     0.289 C 
HETATM    4  C   UNK N   1      28.777  24.695  -4.789  0.00  0.00     0.137 C 
HETATM    5  C   UNK N   1      26.319  25.774  -5.591  0.00  0.00     0.097 C 
HETATM    6  C   UNK N   1      25.979  23.343  -6.284  0.00  0.00     0.208 C 
HETATM    7  C   UNK N   1      27.651  22.010  -7.401  0.00  0.00     0.096 C 
HETATM    8  C   UNK N   1      28.629  26.239  -4.788  0.00  0.00     0.063 C 
HETATM    9  C   UNK N   1      27.140  26.541  -4.816  0.00  0.00     0.033 C 
HETATM   10  C   UNK N   1      26.330  22.242  -7.209  0.00  0.00     0.112 C 
HETATM   11  O   UNK N   1      24.941  23.328  -5.634  0.00  0.00    -0.288 OA
HETATM   12  C   UNK N   1      29.348  26.945  -3.618  0.00  0.00     0.027 C 
HETATM   13  C   UNK N   1      26.633  27.772  -4.117  0.00  0.00     0.194 C 
HETATM   14  C   UNK N   1      28.960  28.402  -3.468  0.00  0.00    -0.037 A 
HETATM   15  C   UNK N   1      27.612  28.779  -3.625  0.00  0.00     0.054 A 
HETATM   16  O   UNK N   1      25.436  28.020  -4.086  0.00  0.00    -0.287 OA
HETATM   17  C   UNK N   1      29.911  29.367  -3.089  0.00  0.00     0.009 A 
HETATM   18  C   UNK N   1      27.236  30.122  -3.376  0.00  0.00     0.080 A 
HETATM   19  C   UNK N   1      29.534  30.689  -2.868  0.00  0.00     0.003 A 
HETATM   20  C   UNK N   1      28.198  31.062  -3.000  0.00  0.00     0.037 A 
HETATM   21  C   UNK N   1      30.869  26.780  -3.699  0.00  0.00     0.016 C 
ENDROOT
BRANCH  10  22
HETATM   22  C   UNK N   1      25.261  21.531  -7.980  0.00  0.00     0.255 C 
HETATM   23  N   UNK N   1      23.963  21.868  -7.853  0.00  0.00    -0.366 N 
HETATM   24  H   UNK N   1      23.217  21.330  -8.205  0.00  0.00     0.159 HD
HETATM   25  H   UNK N   1      23.746  22.703  -7.379  0.00  0.00     0.159 HD
HETATM   26  O   UNK N   1      25.558  20.585  -8.696  0.00  0.00    -0.268 OA
ENDBRANCH  10  22
BRANCH   7  27
HETATM   27  O   UNK N   1      28.069  21.120  -8.327  0.00  0.00    -0.362 OA
HETATM   28  H   UNK N   1      27.689  21.024  -9.178  0.00  0.00     0.217 HD
ENDBRANCH   7  27
BRANCH   2  29
HETATM   29  O   UNK N   1      26.695  24.973  -7.754  0.00  0.00    -0.374 OA
HETATM   30  H   UNK N   1      26.859  25.260  -8.666  0.00  0.00     0.211 HD
ENDBRANCH   2  29
BRANCH   3  31
HETATM   31  N   UNK N   1      30.042  22.387  -7.009  0.00  0.00     0.091 N 
HETATM   32  C   UNK N   1      30.750  21.658  -5.968  0.00  0.00     0.310 C 
HETATM   33  C   UNK N   1      30.888  23.506  -7.387  0.00  0.00     0.310 C 
ENDBRANCH   3  31
BRANCH   5  34
HETATM   34  O   UNK N   1      25.008  26.086  -5.696  0.00  0.00    -0.361 OA
HETATM   35  H   UNK N   1      24.633  26.266  -6.536  0.00  0.00     0.217 HD
ENDBRANCH   5  34
BRANCH   4  36
HETATM   36  O   UNK N   1      30.065  24.294  -4.445  0.00  0.00    -0.394 OA
HETATM   37  H   UNK N   1      30.796  24.314  -5.082  0.00  0.00     0.210 HD
ENDBRANCH   4  36
BRANCH  18  38
HETATM   38  O   UNK N   1      25.962  30.525  -3.523  0.00  0.00    -0.360 OA
HETATM   39  H   UNK N   1      25.650  30.820  -4.356  0.00  0.00     0.217 HD
ENDBRANCH  18  38
TORSDOF 7
ENDMDL
