MODEL 1
REMARK VINA RESULT:      -7.5      0.000      0.000
REMARK  20 active torsions:
REMARK  status: ('A' for Active; 'I' for Inactive)
REMARK    1  A    between atoms: C_22  and  C_16 
REMARK    2  A    between atoms: C_25  and  C_16 
REMARK    3  A    between atoms: C_23  and  C_17 
REMARK    4  A    between atoms: C_27  and  C_17 
REMARK    5  A    between atoms: C_26  and  C_18 
REMARK    6  A    between atoms: C_28  and  C_18 
REMARK    7  A    between atoms: C_25  and  C_20 
REMARK    8  A    between atoms: S_47  and  C_20 
REMARK    9  A    between atoms: C_29  and  C_24 
REMARK   10  A    between atoms: C_25  and  C_31 
REMARK   11  A    between atoms: C_30  and  C_27 
REMARK   12  A    between atoms: C_27  and  N_37 
REMARK   13  A    between atoms: C_32  and  C_28 
REMARK   14  A    between atoms: C_28  and  N_39 
REMARK   15  A    between atoms: C_30  and  C_29 
REMARK   16  A    between atoms: C_29  and  O_41 
REMARK   17  A    between atoms: C_30  and  O_42 
REMARK   18  A    between atoms: C_31  and  O_43 
REMARK   19  A    between atoms: C_32  and  O_44 
REMARK   20  A    between atoms: S_47  and  C_33 
ROOT
HETATM    1  C   UNK N   1      20.589  16.470   7.014  0.00  0.00     0.163 C 
ENDROOT
BRANCH   1   2
HETATM    2  C   UNK N   1      20.526  16.680   8.537  0.00  0.00     0.092 C 
BRANCH   2   3
HETATM    3  C   UNK N   1      19.227  17.197   9.064  0.00  0.00     0.028 A 
HETATM    4  C   UNK N   1      19.028  18.390   9.714  0.00  0.00     0.114 A 
HETATM    5  N   UNK N   1      17.712  18.500   9.972  0.00  0.00    -0.360 N 
HETATM    6  C   UNK N   1      17.141  17.383   9.471  0.00  0.00     0.180 A 
ATOM      7  HN  UNK N   1      17.241  19.270  10.448  1.00  0.00     0.166 HD
HETATM    8  N   UNK N   1      18.053  16.568   8.904  0.00  0.00    -0.354 N 
HETATM    9  H   UNK N   1      17.893  15.700   8.468  0.00  0.00     0.166 HD
ENDBRANCH   2   3
ENDBRANCH   1   2
BRANCH   1  10
HETATM   10  C   UNK N   1      21.218  17.660   6.289  0.00  0.00     0.135 C 
HETATM   11  N   UNK N   1      21.879  17.547   5.173  0.00  0.00    -0.365 N 
ATOM     12  HN  UNK N   1      22.018  16.619   4.776  1.00  0.00     0.161 HD
BRANCH  11  13
HETATM   13  C   UNK N   1      22.430  18.709   4.464  0.00  0.00     0.115 C 
BRANCH  13  14
HETATM   14  C   UNK N   1      23.719  18.276   3.723  0.00  0.00     0.032 C 
BRANCH  14  15
HETATM   15  C   UNK N   1      24.991  18.786   4.405  0.00  0.00    -0.013 C 
HETATM   16  C   UNK N   1      25.280  20.245   4.051  0.00  0.00     0.005 C 
HETATM   17  C   UNK N   1      26.535  20.728   4.773  0.00  0.00     0.000 C 
HETATM   18  C   UNK N   1      27.726  19.852   4.395  0.00  0.00     0.000 C 
HETATM   19  C   UNK N   1      27.437  18.391   4.734  0.00  0.00     0.000 C 
HETATM   20  C   UNK N   1      26.180  17.918   4.006  0.00  0.00     0.005 C 
ENDBRANCH  14  15
ENDBRANCH  13  14
BRANCH  13  21
HETATM   21  C   UNK N   1      21.447  19.349   3.424  0.00  0.00     0.169 C 
BRANCH  21  22
HETATM   22  C   UNK N   1      20.398  18.418   2.731  0.00  0.00     0.153 C 
BRANCH  22  23
HETATM   23  C   UNK N   1      20.835  17.119   2.046  0.00  0.00     0.017 A 
HETATM   24  C   UNK N   1      19.926  15.977   2.388  0.00  0.00     0.007 A 
HETATM   25  C   UNK N   1      19.899  16.593   0.992  0.00  0.00     0.007 A 
ENDBRANCH  22  23
BRANCH  22  26
HETATM   26  O   UNK N   1      19.778  19.159   1.720  0.00  0.00    -0.393 OA
HETATM   27  H   UNK N   1      19.846  18.976   0.770  0.00  0.00     0.210 HD
ENDBRANCH  22  26
ENDBRANCH  21  22
BRANCH  21  28
HETATM   28  O   UNK N   1      20.696  20.321   4.092  0.00  0.00    -0.391 OA
HETATM   29  H   UNK N   1      20.652  20.327   5.062  0.00  0.00     0.210 HD
ENDBRANCH  21  28
ENDBRANCH  13  21
ENDBRANCH  11  13
BRANCH  10  30
HETATM   30  O   UNK N   1      21.047  18.878   6.848  0.00  0.00    -0.348 OA
HETATM   31  H   UNK N   1      21.716  19.533   6.845  0.00  0.00     0.219 HD
ENDBRANCH  10  30
ENDBRANCH   1  10
BRANCH   1  32
HETATM   32  N   UNK N   1      21.148  15.151   6.743  0.00  0.00    -0.362 N 
HETATM   33  C   UNK N   1      20.590  14.194   6.070  0.00  0.00     0.117 C 
ATOM     34  HN  UNK N   1      22.075  14.963   7.124  1.00  0.00     0.162 HD
BRANCH  33  35
HETATM   35  C   UNK N   1      21.379  12.929   5.750  0.00  0.00     0.078 C 
BRANCH  35  36
HETATM   36  C   UNK N   1      20.905  12.329   4.419  0.00  0.00     0.052 C 
BRANCH  36  37
HETATM   37  C   UNK N   1      21.524  12.815   3.139  0.00  0.00    -0.057 A 
HETATM   38  C   UNK N   1      22.639  13.663   3.139  0.00  0.00     0.007 A 
HETATM   39  C   UNK N   1      23.166  14.122   1.925  0.00  0.00     0.001 A 
HETATM   40  C   UNK N   1      22.571  13.750   0.715  0.00  0.00     0.000 A 
HETATM   41  C   UNK N   1      21.453  12.914   0.715  0.00  0.00     0.001 A 
HETATM   42  C   UNK N   1      20.933  12.448   1.925  0.00  0.00     0.007 A 
ENDBRANCH  36  37
ENDBRANCH  35  36
BRANCH  35  43
HETATM   43  C   UNK N   1      21.350  11.927   6.917  0.00  0.00     0.154 C 
BRANCH  43  44
HETATM   44  S   UNK N   1      22.946  11.901   7.812  0.00  0.00     0.152 S 
HETATM   45  O   UNK N   1      23.506  10.468   7.758  0.00  0.00    -0.227 OA
HETATM   46  O   UNK N   1      23.990  12.580   6.912  0.00  0.00    -0.227 OA
BRANCH  44  47
HETATM   47  C   UNK N   1      23.145  12.522   9.520  0.00  0.00     0.053 C 
HETATM   48  C   UNK N   1      22.915  11.402  10.514  0.00  0.00     0.031 C 
HETATM   49  C   UNK N   1      24.530  13.100   9.727  0.00  0.00     0.031 C 
HETATM   50  C   UNK N   1      22.122  13.612   9.766  0.00  0.00     0.031 C 
ENDBRANCH  44  47
ENDBRANCH  43  44
ENDBRANCH  35  43
ENDBRANCH  33  35
BRANCH  33  51
HETATM   51  O   UNK N   1      19.333  14.330   5.601  0.00  0.00    -0.349 OA
HETATM   52  H   UNK N   1      18.578  13.958   5.188  0.00  0.00     0.219 HD
ENDBRANCH  33  51
ENDBRANCH   1  32
TORSDOF 20
ENDMDL
MODEL 2
REMARK VINA RESULT:      -7.4      1.425      2.021
REMARK  20 active torsions:
REMARK  status: ('A' for Active; 'I' for Inactive)
REMARK    1  A    between atoms: C_22  and  C_16 
REMARK    2  A    between atoms: C_25  and  C_16 
REMARK    3  A    between atoms: C_23  and  C_17 
REMARK    4  A    between atoms: C_27  and  C_17 
REMARK    5  A    between atoms: C_26  and  C_18 
REMARK    6  A    between atoms: C_28  and  C_18 
REMARK    7  A    between atoms: C_25  and  C_20 
REMARK    8  A    between atoms: S_47  and  C_20 
REMARK    9  A    between atoms: C_29  and  C_24 
REMARK   10  A    between atoms: C_25  and  C_31 
REMARK   11  A    between atoms: C_30  and  C_27 
REMARK   12  A    between atoms: C_27  and  N_37 
REMARK   13  A    between atoms: C_32  and  C_28 
REMARK   14  A    between atoms: C_28  and  N_39 
REMARK   15  A    between atoms: C_30  and  C_29 
REMARK   16  A    between atoms: C_29  and  O_41 
REMARK   17  A    between atoms: C_30  and  O_42 
REMARK   18  A    between atoms: C_31  and  O_43 
REMARK   19  A    between atoms: C_32  and  O_44 
REMARK   20  A    between atoms: S_47  and  C_33 
ROOT
HETATM    1  C   UNK N   1      20.644  16.552   6.635  0.00  0.00     0.163 C 
ENDROOT
BRANCH   1   2
HETATM    2  C   UNK N   1      20.640  16.491   8.172  0.00  0.00     0.092 C 
BRANCH   2   3
HETATM    3  C   UNK N   1      19.445  17.092   8.838  0.00  0.00     0.028 A 
HETATM    4  C   UNK N   1      19.381  18.323   9.442  0.00  0.00     0.114 A 
HETATM    5  N   UNK N   1      18.116  18.505   9.866  0.00  0.00    -0.360 N 
HETATM    6  C   UNK N   1      17.441  17.391   9.508  0.00  0.00     0.180 A 
ATOM      7  HN  UNK N   1      17.744  19.318  10.356  1.00  0.00     0.166 HD
HETATM    8  N   UNK N   1      18.237  16.509   8.871  0.00  0.00    -0.354 N 
HETATM    9  H   UNK N   1      17.986  15.629   8.508  0.00  0.00     0.166 HD
ENDBRANCH   2   3
ENDBRANCH   1   2
BRANCH   1  10
HETATM   10  C   UNK N   1      21.509  17.694   6.101  0.00  0.00     0.135 C 
HETATM   11  N   UNK N   1      22.265  17.584   5.046  0.00  0.00    -0.365 N 
ATOM     12  HN  UNK N   1      22.314  16.685   4.569  1.00  0.00     0.161 HD
BRANCH  11  13
HETATM   13  C   UNK N   1      23.047  18.710   4.518  0.00  0.00     0.115 C 
BRANCH  13  14
HETATM   14  C   UNK N   1      24.418  18.179   4.033  0.00  0.00     0.032 C 
BRANCH  14  15
HETATM   15  C   UNK N   1      24.752  16.798   4.604  0.00  0.00    -0.013 C 
HETATM   16  C   UNK N   1      26.056  16.813   5.402  0.00  0.00     0.005 C 
HETATM   17  C   UNK N   1      26.339  15.430   5.982  0.00  0.00     0.000 C 
HETATM   18  C   UNK N   1      26.423  14.400   4.860  0.00  0.00     0.000 C 
HETATM   19  C   UNK N   1      25.128  14.390   4.051  0.00  0.00     0.000 C 
HETATM   20  C   UNK N   1      24.855  15.778   3.475  0.00  0.00     0.005 C 
ENDBRANCH  14  15
ENDBRANCH  13  14
BRANCH  13  21
HETATM   21  C   UNK N   1      22.357  19.467   3.331  0.00  0.00     0.169 C 
BRANCH  21  22
HETATM   22  C   UNK N   1      20.864  19.905   3.504  0.00  0.00     0.153 C 
BRANCH  22  23
HETATM   23  C   UNK N   1      19.751  19.227   2.699  0.00  0.00     0.017 A 
HETATM   24  C   UNK N   1      20.297  18.213   1.740  0.00  0.00     0.007 A 
HETATM   25  C   UNK N   1      19.537  17.766   2.985  0.00  0.00     0.007 A 
ENDBRANCH  22  23
BRANCH  22  26
HETATM   26  O   UNK N   1      20.778  21.257   3.157  0.00  0.00    -0.393 OA
HETATM   27  H   UNK N   1      21.036  21.632   2.301  0.00  0.00     0.210 HD
ENDBRANCH  22  26
ENDBRANCH  21  22
BRANCH  21  28
HETATM   28  O   UNK N   1      23.067  20.653   3.115  0.00  0.00    -0.391 OA
HETATM   29  H   UNK N   1      23.358  20.894   2.221  0.00  0.00     0.210 HD
ENDBRANCH  21  28
ENDBRANCH  13  21
ENDBRANCH  11  13
BRANCH  10  30
HETATM   30  O   UNK N   1      21.451  18.868   6.766  0.00  0.00    -0.348 OA
HETATM   31  H   UNK N   1      20.774  19.066   7.383  0.00  0.00     0.219 HD
ENDBRANCH  10  30
ENDBRANCH   1  10
BRANCH   1  32
HETATM   32  N   UNK N   1      20.905  15.216   6.111  0.00  0.00    -0.362 N 
HETATM   33  C   UNK N   1      21.993  14.526   6.249  0.00  0.00     0.117 C 
ATOM     34  HN  UNK N   1      20.151  14.781   5.580  1.00  0.00     0.162 HD
BRANCH  33  35
HETATM   35  C   UNK N   1      22.043  13.080   5.767  0.00  0.00     0.078 C 
BRANCH  35  36
HETATM   36  C   UNK N   1      21.145  12.898   4.536  0.00  0.00     0.052 C 
BRANCH  36  37
HETATM   37  C   UNK N   1      21.700  13.210   3.175  0.00  0.00    -0.057 A 
HETATM   38  C   UNK N   1      22.549  12.319   2.507  0.00  0.00     0.007 A 
HETATM   39  C   UNK N   1      23.074  12.661   1.255  0.00  0.00     0.001 A 
HETATM   40  C   UNK N   1      22.768  13.898   0.678  0.00  0.00     0.000 A 
HETATM   41  C   UNK N   1      21.931  14.792   1.350  0.00  0.00     0.001 A 
HETATM   42  C   UNK N   1      21.400  14.447   2.594  0.00  0.00     0.007 A 
ENDBRANCH  36  37
ENDBRANCH  35  36
BRANCH  35  43
HETATM   43  C   UNK N   1      21.733  12.089   6.902  0.00  0.00     0.154 C 
BRANCH  43  44
HETATM   44  S   UNK N   1      23.198  11.816   7.965  0.00  0.00     0.152 S 
HETATM   45  O   UNK N   1      23.493  10.306   8.000  0.00  0.00    -0.227 OA
HETATM   46  O   UNK N   1      24.434  12.264   7.171  0.00  0.00    -0.227 OA
BRANCH  44  47
HETATM   47  C   UNK N   1      23.327  12.458   9.672  0.00  0.00     0.053 C 
HETATM   48  C   UNK N   1      23.072  11.346  10.670  0.00  0.00     0.031 C 
HETATM   49  C   UNK N   1      24.699  13.052   9.923  0.00  0.00     0.031 C 
HETATM   50  C   UNK N   1      22.285  13.541   9.868  0.00  0.00     0.031 C 
ENDBRANCH  44  47
ENDBRANCH  43  44
ENDBRANCH  35  43
ENDBRANCH  33  35
BRANCH  33  51
HETATM   51  O   UNK N   1      23.068  15.058   6.867  0.00  0.00    -0.349 OA
HETATM   52  H   UNK N   1      23.974  15.010   7.100  0.00  0.00     0.219 HD
ENDBRANCH  33  51
ENDBRANCH   1  32
TORSDOF 20
ENDMDL
MODEL 3
REMARK VINA RESULT:      -7.3     10.964     15.010
REMARK  20 active torsions:
REMARK  status: ('A' for Active; 'I' for Inactive)
REMARK    1  A    between atoms: C_22  and  C_16 
REMARK    2  A    between atoms: C_25  and  C_16 
REMARK    3  A    between atoms: C_23  and  C_17 
REMARK    4  A    between atoms: C_27  and  C_17 
REMARK    5  A    between atoms: C_26  and  C_18 
REMARK    6  A    between atoms: C_28  and  C_18 
REMARK    7  A    between atoms: C_25  and  C_20 
REMARK    8  A    between atoms: S_47  and  C_20 
REMARK    9  A    between atoms: C_29  and  C_24 
REMARK   10  A    between atoms: C_25  and  C_31 
REMARK   11  A    between atoms: C_30  and  C_27 
REMARK   12  A    between atoms: C_27  and  N_37 
REMARK   13  A    between atoms: C_32  and  C_28 
REMARK   14  A    between atoms: C_28  and  N_39 
REMARK   15  A    between atoms: C_30  and  C_29 
REMARK   16  A    between atoms: C_29  and  O_41 
REMARK   17  A    between atoms: C_30  and  O_42 
REMARK   18  A    between atoms: C_31  and  O_43 
REMARK   19  A    between atoms: C_32  and  O_44 
REMARK   20  A    between atoms: S_47  and  C_33 
ROOT
HETATM    1  C   UNK N   1      34.670  14.774  11.275  0.00  0.00     0.163 C 
ENDROOT
BRANCH   1   2
HETATM    2  C   UNK N   1      36.134  15.226  11.142  0.00  0.00     0.092 C 
BRANCH   2   3
HETATM    3  C   UNK N   1      37.063  14.232  10.524  0.00  0.00     0.028 A 
HETATM    4  C   UNK N   1      37.213  13.981   9.182  0.00  0.00     0.114 A 
HETATM    5  N   UNK N   1      38.185  13.059   9.046  0.00  0.00    -0.360 N 
HETATM    6  C   UNK N   1      38.605  12.776  10.298  0.00  0.00     0.180 A 
ATOM      7  HN  UNK N   1      38.532  12.657   8.175  1.00  0.00     0.166 HD
HETATM    8  N   UNK N   1      37.933  13.488  11.223  0.00  0.00    -0.354 N 
HETATM    9  H   UNK N   1      38.053  13.467  12.200  0.00  0.00     0.166 HD
ENDBRANCH   2   3
ENDBRANCH   1   2
BRANCH   1  10
HETATM   10  C   UNK N   1      33.830  15.156  10.056  0.00  0.00     0.135 C 
HETATM   11  N   UNK N   1      34.095  16.183   9.300  0.00  0.00    -0.365 N 
ATOM     12  HN  UNK N   1      34.878  16.787   9.549  1.00  0.00     0.161 HD
BRANCH  11  13
HETATM   13  C   UNK N   1      33.308  16.503   8.102  0.00  0.00     0.115 C 
BRANCH  13  14
HETATM   14  C   UNK N   1      32.501  17.798   8.367  0.00  0.00     0.032 C 
BRANCH  14  15
HETATM   15  C   UNK N   1      30.996  17.542   8.483  0.00  0.00    -0.013 C 
HETATM   16  C   UNK N   1      30.343  17.361   7.112  0.00  0.00     0.005 C 
HETATM   17  C   UNK N   1      28.852  17.077   7.268  0.00  0.00     0.000 C 
HETATM   18  C   UNK N   1      28.178  18.218   8.023  0.00  0.00     0.000 C 
HETATM   19  C   UNK N   1      28.836  18.412   9.387  0.00  0.00     0.000 C 
HETATM   20  C   UNK N   1      30.327  18.697   9.220  0.00  0.00     0.005 C 
ENDBRANCH  14  15
ENDBRANCH  13  14
BRANCH  13  21
HETATM   21  C   UNK N   1      34.168  16.705   6.807  0.00  0.00     0.169 C 
BRANCH  21  22
HETATM   22  C   UNK N   1      33.581  16.202   5.446  0.00  0.00     0.153 C 
BRANCH  22  23
HETATM   23  C   UNK N   1      32.888  17.173   4.485  0.00  0.00     0.017 A 
HETATM   24  C   UNK N   1      32.988  16.713   3.062  0.00  0.00     0.007 A 
HETATM   25  C   UNK N   1      31.655  16.645   3.804  0.00  0.00     0.007 A 
ENDBRANCH  22  23
BRANCH  22  26
HETATM   26  O   UNK N   1      32.610  15.238   5.736  0.00  0.00    -0.393 OA
HETATM   27  H   UNK N   1      32.790  14.309   5.950  0.00  0.00     0.210 HD
ENDBRANCH  22  26
ENDBRANCH  21  22
BRANCH  21  28
HETATM   28  O   UNK N   1      34.365  18.080   6.640  0.00  0.00    -0.391 OA
HETATM   29  H   UNK N   1      34.174  18.695   7.365  0.00  0.00     0.210 HD
ENDBRANCH  21  28
ENDBRANCH  13  21
ENDBRANCH  11  13
BRANCH  10  30
HETATM   30  O   UNK N   1      32.780  14.359   9.762  0.00  0.00    -0.348 OA
HETATM   31  H   UNK N   1      31.922  14.504  10.111  0.00  0.00     0.219 HD
ENDBRANCH  10  30
ENDBRANCH   1  10
BRANCH   1  32
HETATM   32  N   UNK N   1      34.645  13.377  11.691  0.00  0.00    -0.362 N 
HETATM   33  C   UNK N   1      34.806  12.921  12.894  0.00  0.00     0.117 C 
ATOM     34  HN  UNK N   1      34.485  12.686  10.958  1.00  0.00     0.162 HD
BRANCH  33  35
HETATM   35  C   UNK N   1      34.597  11.438  13.180  0.00  0.00     0.078 C 
BRANCH  35  36
HETATM   36  C   UNK N   1      33.844  11.253  14.505  0.00  0.00     0.052 C 
BRANCH  36  37
HETATM   37  C   UNK N   1      34.615  10.863  15.734  0.00  0.00    -0.057 A 
HETATM   38  C   UNK N   1      34.891   9.523  16.033  0.00  0.00     0.007 A 
HETATM   39  C   UNK N   1      35.582   9.197  17.206  0.00  0.00     0.001 A 
HETATM   40  C   UNK N   1      35.982  10.206  18.089  0.00  0.00     0.000 A 
HETATM   41  C   UNK N   1      35.696  11.542  17.798  0.00  0.00     0.001 A 
HETATM   42  C   UNK N   1      35.015  11.867  16.623  0.00  0.00     0.007 A 
ENDBRANCH  36  37
ENDBRANCH  35  36
BRANCH  35  43
HETATM   43  C   UNK N   1      35.917  10.652  13.113  0.00  0.00     0.154 C 
BRANCH  43  44
HETATM   44  S   UNK N   1      36.110   9.813  11.498  0.00  0.00     0.152 S 
HETATM   45  O   UNK N   1      36.004  10.873  10.387  0.00  0.00    -0.227 OA
HETATM   46  O   UNK N   1      37.597   9.467  11.332  0.00  0.00    -0.227 OA
BRANCH  44  47
HETATM   47  C   UNK N   1      35.108   8.368  10.997  0.00  0.00     0.053 C 
HETATM   48  C   UNK N   1      35.705   7.718   9.765  0.00  0.00     0.031 C 
HETATM   49  C   UNK N   1      35.035   7.348  12.116  0.00  0.00     0.031 C 
HETATM   50  C   UNK N   1      33.703   8.834  10.673  0.00  0.00     0.031 C 
ENDBRANCH  44  47
ENDBRANCH  43  44
ENDBRANCH  35  43
ENDBRANCH  33  35
BRANCH  33  51
HETATM   51  O   UNK N   1      35.102  13.759  13.909  0.00  0.00    -0.349 OA
HETATM   52  H   UNK N   1      35.322  14.618  14.212  0.00  0.00     0.219 HD
ENDBRANCH  33  51
ENDBRANCH   1  32
TORSDOF 20
ENDMDL
MODEL 4
REMARK VINA RESULT:      -7.1      3.407      7.210
REMARK  20 active torsions:
REMARK  status: ('A' for Active; 'I' for Inactive)
REMARK    1  A    between atoms: C_22  and  C_16 
REMARK    2  A    between atoms: C_25  and  C_16 
REMARK    3  A    between atoms: C_23  and  C_17 
REMARK    4  A    between atoms: C_27  and  C_17 
REMARK    5  A    between atoms: C_26  and  C_18 
REMARK    6  A    between atoms: C_28  and  C_18 
REMARK    7  A    between atoms: C_25  and  C_20 
REMARK    8  A    between atoms: S_47  and  C_20 
REMARK    9  A    between atoms: C_29  and  C_24 
REMARK   10  A    between atoms: C_25  and  C_31 
REMARK   11  A    between atoms: C_30  and  C_27 
REMARK   12  A    between atoms: C_27  and  N_37 
REMARK   13  A    between atoms: C_32  and  C_28 
REMARK   14  A    between atoms: C_28  and  N_39 
REMARK   15  A    between atoms: C_30  and  C_29 
REMARK   16  A    between atoms: C_29  and  O_41 
REMARK   17  A    between atoms: C_30  and  O_42 
REMARK   18  A    between atoms: C_31  and  O_43 
REMARK   19  A    between atoms: C_32  and  O_44 
REMARK   20  A    between atoms: S_47  and  C_33 
ROOT
HETATM    1  C   UNK N   1      24.968  15.027   7.020  0.00  0.00     0.163 C 
ENDROOT
BRANCH   1   2
HETATM    2  C   UNK N   1      24.967  13.530   7.378  0.00  0.00     0.092 C 
BRANCH   2   3
HETATM    3  C   UNK N   1      24.346  13.181   8.691  0.00  0.00     0.028 A 
HETATM    4  C   UNK N   1      25.003  13.017   9.886  0.00  0.00     0.114 A 
HETATM    5  N   UNK N   1      24.078  12.764  10.830  0.00  0.00    -0.360 N 
HETATM    6  C   UNK N   1      22.885  12.785  10.195  0.00  0.00     0.180 A 
ATOM      7  HN  UNK N   1      24.243  12.592  11.822  1.00  0.00     0.166 HD
HETATM    8  N   UNK N   1      23.025  13.044   8.880  0.00  0.00    -0.354 N 
HETATM    9  H   UNK N   1      22.312  13.116   8.204  0.00  0.00     0.166 HD
ENDBRANCH   2   3
ENDBRANCH   1   2
BRANCH   1  10
HETATM   10  C   UNK N   1      26.380  15.577   6.826  0.00  0.00     0.135 C 
HETATM   11  N   UNK N   1      26.804  16.671   7.391  0.00  0.00    -0.365 N 
ATOM     12  HN  UNK N   1      26.156  17.211   7.964  1.00  0.00     0.161 HD
BRANCH  11  13
HETATM   13  C   UNK N   1      28.182  17.155   7.235  0.00  0.00     0.115 C 
BRANCH  13  14
HETATM   14  C   UNK N   1      28.143  18.613   6.717  0.00  0.00     0.032 C 
BRANCH  14  15
HETATM   15  C   UNK N   1      27.010  18.852   5.715  0.00  0.00    -0.013 C 
HETATM   16  C   UNK N   1      27.292  18.185   4.369  0.00  0.00     0.005 C 
HETATM   17  C   UNK N   1      26.131  18.418   3.407  0.00  0.00     0.000 C 
HETATM   18  C   UNK N   1      25.903  19.914   3.213  0.00  0.00     0.000 C 
HETATM   19  C   UNK N   1      25.634  20.587   4.557  0.00  0.00     0.000 C 
HETATM   20  C   UNK N   1      26.803  20.349   5.511  0.00  0.00     0.005 C 
ENDBRANCH  14  15
ENDBRANCH  13  14
BRANCH  13  21
HETATM   21  C   UNK N   1      29.027  17.116   8.555  0.00  0.00     0.169 C 
BRANCH  21  22
HETATM   22  C   UNK N   1      30.095  18.238   8.781  0.00  0.00     0.153 C 
BRANCH  22  23
HETATM   23  C   UNK N   1      31.586  17.953   8.573  0.00  0.00     0.017 A 
HETATM   24  C   UNK N   1      31.875  16.482   8.569  0.00  0.00     0.007 A 
HETATM   25  C   UNK N   1      31.947  17.287   7.274  0.00  0.00     0.007 A 
ENDBRANCH  22  23
BRANCH  22  26
HETATM   26  O   UNK N   1      29.997  18.652  10.113  0.00  0.00    -0.393 OA
HETATM   27  H   UNK N   1      29.465  18.216  10.797  0.00  0.00     0.210 HD
ENDBRANCH  22  26
ENDBRANCH  21  22
BRANCH  21  28
HETATM   28  O   UNK N   1      28.139  17.229   9.631  0.00  0.00    -0.391 OA
HETATM   29  H   UNK N   1      28.471  17.234  10.542  0.00  0.00     0.210 HD
ENDBRANCH  21  28
ENDBRANCH  13  21
ENDBRANCH  11  13
BRANCH  10  30
HETATM   30  O   UNK N   1      27.213  14.861   6.040  0.00  0.00    -0.348 OA
HETATM   31  H   UNK N   1      27.071  13.955   5.846  0.00  0.00     0.219 HD
ENDBRANCH  10  30
ENDBRANCH   1  10
BRANCH   1  32
HETATM   32  N   UNK N   1      24.009  15.255   5.946  0.00  0.00    -0.362 N 
HETATM   33  C   UNK N   1      22.746  15.518   6.074  0.00  0.00     0.117 C 
ATOM     34  HN  UNK N   1      24.370  15.201   4.994  1.00  0.00     0.162 HD
BRANCH  33  35
HETATM   35  C   UNK N   1      21.916  15.881   4.848  0.00  0.00     0.078 C 
BRANCH  35  36
HETATM   36  C   UNK N   1      21.188  17.213   5.074  0.00  0.00     0.052 C 
BRANCH  36  37
HETATM   37  C   UNK N   1      21.207  18.249   3.986  0.00  0.00    -0.057 A 
HETATM   38  C   UNK N   1      22.273  19.147   3.846  0.00  0.00     0.007 A 
HETATM   39  C   UNK N   1      22.238  20.121   2.840  0.00  0.00     0.001 A 
HETATM   40  C   UNK N   1      21.133  20.210   1.987  0.00  0.00     0.000 A 
HETATM   41  C   UNK N   1      20.065  19.323   2.134  0.00  0.00     0.001 A 
HETATM   42  C   UNK N   1      20.104  18.346   3.130  0.00  0.00     0.007 A 
ENDBRANCH  36  37
ENDBRANCH  35  36
BRANCH  35  43
HETATM   43  C   UNK N   1      20.978  14.734   4.433  0.00  0.00     0.154 C 
BRANCH  43  44
HETATM   44  S   UNK N   1      21.766  13.649   3.187  0.00  0.00     0.152 S 
HETATM   45  O   UNK N   1      23.168  13.268   3.696  0.00  0.00    -0.227 OA
HETATM   46  O   UNK N   1      21.107  12.266   3.298  0.00  0.00    -0.227 OA
BRANCH  44  47
HETATM   47  C   UNK N   1      21.908  14.096   1.420  0.00  0.00     0.053 C 
HETATM   48  C   UNK N   1      21.464  12.938   0.549  0.00  0.00     0.031 C 
HETATM   49  C   UNK N   1      21.064  15.315   1.101  0.00  0.00     0.031 C 
HETATM   50  C   UNK N   1      23.357  14.414   1.110  0.00  0.00     0.031 C 
ENDBRANCH  44  47
ENDBRANCH  43  44
ENDBRANCH  35  43
ENDBRANCH  33  35
BRANCH  33  51
HETATM   51  O   UNK N   1      22.169  15.528   7.294  0.00  0.00    -0.349 OA
HETATM   52  H   UNK N   1      21.830  15.063   8.033  0.00  0.00     0.219 HD
ENDBRANCH  33  51
ENDBRANCH   1  32
TORSDOF 20
ENDMDL
MODEL 5
REMARK VINA RESULT:      -7.0     10.928     15.130
REMARK  20 active torsions:
REMARK  status: ('A' for Active; 'I' for Inactive)
REMARK    1  A    between atoms: C_22  and  C_16 
REMARK    2  A    between atoms: C_25  and  C_16 
REMARK    3  A    between atoms: C_23  and  C_17 
REMARK    4  A    between atoms: C_27  and  C_17 
REMARK    5  A    between atoms: C_26  and  C_18 
REMARK    6  A    between atoms: C_28  and  C_18 
REMARK    7  A    between atoms: C_25  and  C_20 
REMARK    8  A    between atoms: S_47  and  C_20 
REMARK    9  A    between atoms: C_29  and  C_24 
REMARK   10  A    between atoms: C_25  and  C_31 
REMARK   11  A    between atoms: C_30  and  C_27 
REMARK   12  A    between atoms: C_27  and  N_37 
REMARK   13  A    between atoms: C_32  and  C_28 
REMARK   14  A    between atoms: C_28  and  N_39 
REMARK   15  A    between atoms: C_30  and  C_29 
REMARK   16  A    between atoms: C_29  and  O_41 
REMARK   17  A    between atoms: C_30  and  O_42 
REMARK   18  A    between atoms: C_31  and  O_43 
REMARK   19  A    between atoms: C_32  and  O_44 
REMARK   20  A    between atoms: S_47  and  C_33 
ROOT
HETATM    1  C   UNK N   1      35.228  15.092  11.086  0.00  0.00     0.163 C 
ENDROOT
BRANCH   1   2
HETATM    2  C   UNK N   1      36.496  15.393  10.268  0.00  0.00     0.092 C 
BRANCH   2   3
HETATM    3  C   UNK N   1      37.133  14.213   9.609  0.00  0.00     0.028 A 
HETATM    4  C   UNK N   1      38.293  13.589  10.000  0.00  0.00     0.114 A 
HETATM    5  N   UNK N   1      38.489  12.540   9.179  0.00  0.00    -0.360 N 
HETATM    6  C   UNK N   1      37.449  12.546   8.316  0.00  0.00     0.180 A 
ATOM      7  HN  UNK N   1      39.264  11.878   9.203  1.00  0.00     0.166 HD
HETATM    8  N   UNK N   1      36.600  13.562   8.564  0.00  0.00    -0.354 N 
HETATM    9  H   UNK N   1      35.770  13.781   8.083  0.00  0.00     0.166 HD
ENDBRANCH   2   3
ENDBRANCH   1   2
BRANCH   1  10
HETATM   10  C   UNK N   1      33.954  15.213  10.250  0.00  0.00     0.135 C 
HETATM   11  N   UNK N   1      33.955  15.557   8.994  0.00  0.00    -0.365 N 
ATOM     12  HN  UNK N   1      34.842  15.792   8.550  1.00  0.00     0.161 HD
BRANCH  11  13
HETATM   13  C   UNK N   1      32.725  15.616   8.193  0.00  0.00     0.115 C 
BRANCH  13  14
HETATM   14  C   UNK N   1      32.266  17.091   8.092  0.00  0.00     0.032 C 
BRANCH  14  15
HETATM   15  C   UNK N   1      30.752  17.250   8.255  0.00  0.00    -0.013 C 
HETATM   16  C   UNK N   1      30.043  17.349   6.904  0.00  0.00     0.005 C 
HETATM   17  C   UNK N   1      28.536  17.475   7.104  0.00  0.00     0.000 C 
HETATM   18  C   UNK N   1      28.221  18.703   7.952  0.00  0.00     0.000 C 
HETATM   19  C   UNK N   1      28.938  18.616   9.298  0.00  0.00     0.000 C 
HETATM   20  C   UNK N   1      30.445  18.491   9.086  0.00  0.00     0.005 C 
ENDBRANCH  14  15
ENDBRANCH  13  14
BRANCH  13  21
HETATM   21  C   UNK N   1      32.878  15.040   6.743  0.00  0.00     0.169 C 
BRANCH  21  22
HETATM   22  C   UNK N   1      33.269  16.029   5.594  0.00  0.00     0.153 C 
BRANCH  22  23
HETATM   23  C   UNK N   1      32.384  16.175   4.352  0.00  0.00     0.017 A 
HETATM   24  C   UNK N   1      32.283  17.603   3.907  0.00  0.00     0.007 A 
HETATM   25  C   UNK N   1      33.092  16.596   3.094  0.00  0.00     0.007 A 
ENDBRANCH  22  23
BRANCH  22  26
HETATM   26  O   UNK N   1      34.512  15.627   5.096  0.00  0.00    -0.393 OA
HETATM   27  H   UNK N   1      35.357  15.711   5.565  0.00  0.00     0.210 HD
ENDBRANCH  22  26
ENDBRANCH  21  22
BRANCH  21  28
HETATM   28  O   UNK N   1      33.899  14.084   6.771  0.00  0.00    -0.391 OA
HETATM   29  H   UNK N   1      33.690  13.141   6.677  0.00  0.00     0.210 HD
ENDBRANCH  21  28
ENDBRANCH  13  21
ENDBRANCH  11  13
BRANCH  10  30
HETATM   30  O   UNK N   1      32.787  14.925  10.866  0.00  0.00    -0.348 OA
HETATM   31  H   UNK N   1      32.343  15.539  11.418  0.00  0.00     0.219 HD
ENDBRANCH  10  30
ENDBRANCH   1  10
BRANCH   1  32
HETATM   32  N   UNK N   1      35.427  13.850  11.823  0.00  0.00    -0.362 N 
HETATM   33  C   UNK N   1      36.034  13.709  12.960  0.00  0.00     0.117 C 
ATOM     34  HN  UNK N   1      35.049  13.003  11.398  1.00  0.00     0.162 HD
BRANCH  33  35
HETATM   35  C   UNK N   1      36.019  12.358  13.668  0.00  0.00     0.078 C 
BRANCH  35  36
HETATM   36  C   UNK N   1      36.878  12.415  14.939  0.00  0.00     0.052 C 
BRANCH  36  37
HETATM   37  C   UNK N   1      36.198  12.479  16.277  0.00  0.00    -0.057 A 
HETATM   38  C   UNK N   1      35.830  13.701  16.855  0.00  0.00     0.007 A 
HETATM   39  C   UNK N   1      35.229  13.722  18.120  0.00  0.00     0.001 A 
HETATM   40  C   UNK N   1      35.012  12.527  18.815  0.00  0.00     0.000 A 
HETATM   41  C   UNK N   1      35.390  11.310  18.244  0.00  0.00     0.001 A 
HETATM   42  C   UNK N   1      35.981  11.288  16.978  0.00  0.00     0.007 A 
ENDBRANCH  36  37
ENDBRANCH  35  36
BRANCH  35  43
HETATM   43  C   UNK N   1      36.406  11.212  12.718  0.00  0.00     0.154 C 
BRANCH  43  44
HETATM   44  S   UNK N   1      34.964  10.153  12.332  0.00  0.00     0.152 S 
HETATM   45  O   UNK N   1      35.212   8.760  12.939  0.00  0.00    -0.227 OA
HETATM   46  O   UNK N   1      33.811  10.592  13.248  0.00  0.00    -0.227 OA
BRANCH  44  47
HETATM   47  C   UNK N   1      34.318   9.925  10.637  0.00  0.00     0.053 C 
HETATM   48  C   UNK N   1      35.291   9.108   9.811  0.00  0.00     0.031 C 
HETATM   49  C   UNK N   1      32.972   9.227  10.661  0.00  0.00     0.031 C 
HETATM   50  C   UNK N   1      34.148  11.285   9.991  0.00  0.00     0.031 C 
ENDBRANCH  44  47
ENDBRANCH  43  44
ENDBRANCH  35  43
ENDBRANCH  33  35
BRANCH  33  51
HETATM   51  O   UNK N   1      36.632  14.763  13.552  0.00  0.00    -0.349 OA
HETATM   52  H   UNK N   1      37.410  15.244  13.754  0.00  0.00     0.219 HD
ENDBRANCH  33  51
ENDBRANCH   1  32
TORSDOF 20
ENDMDL
MODEL 6
REMARK VINA RESULT:      -6.9      3.131      6.980
REMARK  20 active torsions:
REMARK  status: ('A' for Active; 'I' for Inactive)
REMARK    1  A    between atoms: C_22  and  C_16 
REMARK    2  A    between atoms: C_25  and  C_16 
REMARK    3  A    between atoms: C_23  and  C_17 
REMARK    4  A    between atoms: C_27  and  C_17 
REMARK    5  A    between atoms: C_26  and  C_18 
REMARK    6  A    between atoms: C_28  and  C_18 
REMARK    7  A    between atoms: C_25  and  C_20 
REMARK    8  A    between atoms: S_47  and  C_20 
REMARK    9  A    between atoms: C_29  and  C_24 
REMARK   10  A    between atoms: C_25  and  C_31 
REMARK   11  A    between atoms: C_30  and  C_27 
REMARK   12  A    between atoms: C_27  and  N_37 
REMARK   13  A    between atoms: C_32  and  C_28 
REMARK   14  A    between atoms: C_28  and  N_39 
REMARK   15  A    between atoms: C_30  and  C_29 
REMARK   16  A    between atoms: C_29  and  O_41 
REMARK   17  A    between atoms: C_30  and  O_42 
REMARK   18  A    between atoms: C_31  and  O_43 
REMARK   19  A    between atoms: C_32  and  O_44 
REMARK   20  A    between atoms: S_47  and  C_33 
ROOT
HETATM    1  C   UNK N   1      24.102  15.498   4.453  0.00  0.00     0.163 C 
ENDROOT
BRANCH   1   2
HETATM    2  C   UNK N   1      23.520  15.933   3.097  0.00  0.00     0.092 C 
BRANCH   2   3
HETATM    3  C   UNK N   1      23.378  14.850   2.078  0.00  0.00     0.028 A 
HETATM    4  C   UNK N   1      22.275  14.054   1.882  0.00  0.00     0.114 A 
HETATM    5  N   UNK N   1      22.535  13.248   0.836  0.00  0.00    -0.360 N 
HETATM    6  C   UNK N   1      23.778  13.571   0.418  0.00  0.00     0.180 A 
ATOM      7  HN  UNK N   1      21.919  12.538   0.440  1.00  0.00     0.166 HD
HETATM    8  N   UNK N   1      24.315  14.556   1.164  0.00  0.00    -0.354 N 
HETATM    9  H   UNK N   1      25.202  14.971   1.061  0.00  0.00     0.166 HD
ENDBRANCH   2   3
ENDBRANCH   1   2
BRANCH   1  10
HETATM   10  C   UNK N   1      25.162  16.470   4.969  0.00  0.00     0.135 C 
HETATM   11  N   UNK N   1      26.442  16.248   4.872  0.00  0.00    -0.365 N 
ATOM     12  HN  UNK N   1      26.758  15.369   4.466  1.00  0.00     0.161 HD
BRANCH  11  13
HETATM   13  C   UNK N   1      27.446  17.220   5.326  0.00  0.00     0.115 C 
BRANCH  13  14
HETATM   14  C   UNK N   1      28.709  16.452   5.787  0.00  0.00     0.032 C 
BRANCH  14  15
HETATM   15  C   UNK N   1      29.103  16.778   7.231  0.00  0.00    -0.013 C 
HETATM   16  C   UNK N   1      27.967  17.467   7.988  0.00  0.00     0.005 C 
HETATM   17  C   UNK N   1      28.383  17.747   9.429  0.00  0.00     0.000 C 
HETATM   18  C   UNK N   1      29.633  18.621   9.451  0.00  0.00     0.000 C 
HETATM   19  C   UNK N   1      30.767  17.944   8.685  0.00  0.00     0.000 C 
HETATM   20  C   UNK N   1      30.340  17.669   7.244  0.00  0.00     0.005 C 
ENDBRANCH  14  15
ENDBRANCH  13  14
BRANCH  13  21
HETATM   21  C   UNK N   1      27.866  18.263   4.234  0.00  0.00     0.169 C 
BRANCH  21  22
HETATM   22  C   UNK N   1      27.861  19.779   4.621  0.00  0.00     0.153 C 
BRANCH  22  23
HETATM   23  C   UNK N   1      27.706  20.214   6.082  0.00  0.00     0.017 A 
HETATM   24  C   UNK N   1      27.465  21.688   6.200  0.00  0.00     0.007 A 
HETATM   25  C   UNK N   1      26.338  20.697   6.476  0.00  0.00     0.007 A 
ENDBRANCH  22  23
BRANCH  22  26
HETATM   26  O   UNK N   1      26.786  20.380   3.959  0.00  0.00    -0.393 OA
HETATM   27  H   UNK N   1      25.857  20.115   4.044  0.00  0.00     0.210 HD
ENDBRANCH  22  26
ENDBRANCH  21  22
BRANCH  21  28
HETATM   28  O   UNK N   1      29.185  17.980   3.863  0.00  0.00    -0.391 OA
HETATM   29  H   UNK N   1      29.911  18.109   4.494  0.00  0.00     0.210 HD
ENDBRANCH  21  28
ENDBRANCH  13  21
ENDBRANCH  11  13
BRANCH  10  30
HETATM   30  O   UNK N   1      24.720  17.617   5.531  0.00  0.00    -0.348 OA
HETATM   31  H   UNK N   1      24.531  17.690   6.446  0.00  0.00     0.219 HD
ENDBRANCH  10  30
ENDBRANCH   1  10
BRANCH   1  32
HETATM   32  N   UNK N   1      23.003  15.169   5.353  0.00  0.00    -0.362 N 
HETATM   33  C   UNK N   1      22.621  13.984   5.713  0.00  0.00     0.117 C 
ATOM     34  HN  UNK N   1      22.480  15.955   5.739  1.00  0.00     0.162 HD
BRANCH  33  35
HETATM   35  C   UNK N   1      21.548  13.823   6.784  0.00  0.00     0.078 C 
BRANCH  35  36
HETATM   36  C   UNK N   1      21.696  12.465   7.485  0.00  0.00     0.052 C 
BRANCH  36  37
HETATM   37  C   UNK N   1      22.443  12.394   8.787  0.00  0.00    -0.057 A 
HETATM   38  C   UNK N   1      23.842  12.344   8.829  0.00  0.00     0.007 A 
HETATM   39  C   UNK N   1      24.500  12.243  10.061  0.00  0.00     0.001 A 
HETATM   40  C   UNK N   1      23.763  12.173  11.248  0.00  0.00     0.000 A 
HETATM   41  C   UNK N   1      22.368  12.211  11.206  0.00  0.00     0.001 A 
HETATM   42  C   UNK N   1      21.712  12.322   9.978  0.00  0.00     0.007 A 
ENDBRANCH  36  37
ENDBRANCH  35  36
BRANCH  35  43
HETATM   43  C   UNK N   1      20.138  14.071   6.222  0.00  0.00     0.154 C 
BRANCH  43  44
HETATM   44  S   UNK N   1      19.579  15.781   6.558  0.00  0.00     0.152 S 
HETATM   45  O   UNK N   1      20.504  16.749   5.800  0.00  0.00    -0.227 OA
HETATM   46  O   UNK N   1      18.298  16.015   5.742  0.00  0.00    -0.227 OA
BRANCH  44  47
HETATM   47  C   UNK N   1      19.333  16.438   8.246  0.00  0.00     0.053 C 
HETATM   48  C   UNK N   1      17.894  16.875   8.434  0.00  0.00     0.031 C 
HETATM   49  C   UNK N   1      19.679  15.393   9.288  0.00  0.00     0.031 C 
HETATM   50  C   UNK N   1      20.239  17.637   8.441  0.00  0.00     0.031 C 
ENDBRANCH  44  47
ENDBRANCH  43  44
ENDBRANCH  35  43
ENDBRANCH  33  35
BRANCH  33  51
HETATM   51  O   UNK N   1      23.206  12.888   5.188  0.00  0.00    -0.349 OA
HETATM   52  H   UNK N   1      23.133  12.065   4.745  0.00  0.00     0.219 HD
ENDBRANCH  33  51
ENDBRANCH   1  32
TORSDOF 20
ENDMDL
MODEL 7
REMARK VINA RESULT:      -6.9     11.246     15.341
REMARK  20 active torsions:
REMARK  status: ('A' for Active; 'I' for Inactive)
REMARK    1  A    between atoms: C_22  and  C_16 
REMARK    2  A    between atoms: C_25  and  C_16 
REMARK    3  A    between atoms: C_23  and  C_17 
REMARK    4  A    between atoms: C_27  and  C_17 
REMARK    5  A    between atoms: C_26  and  C_18 
REMARK    6  A    between atoms: C_28  and  C_18 
REMARK    7  A    between atoms: C_25  and  C_20 
REMARK    8  A    between atoms: S_47  and  C_20 
REMARK    9  A    between atoms: C_29  and  C_24 
REMARK   10  A    between atoms: C_25  and  C_31 
REMARK   11  A    between atoms: C_30  and  C_27 
REMARK   12  A    between atoms: C_27  and  N_37 
REMARK   13  A    between atoms: C_32  and  C_28 
REMARK   14  A    between atoms: C_28  and  N_39 
REMARK   15  A    between atoms: C_30  and  C_29 
REMARK   16  A    between atoms: C_29  and  O_41 
REMARK   17  A    between atoms: C_30  and  O_42 
REMARK   18  A    between atoms: C_31  and  O_43 
REMARK   19  A    between atoms: C_32  and  O_44 
REMARK   20  A    between atoms: S_47  and  C_33 
ROOT
HETATM    1  C   UNK N   1      35.332  15.117  10.930  0.00  0.00     0.163 C 
ENDROOT
BRANCH   1   2
HETATM    2  C   UNK N   1      36.682  14.770  10.278  0.00  0.00     0.092 C 
BRANCH   2   3
HETATM    3  C   UNK N   1      36.638  13.705   9.231  0.00  0.00     0.028 A 
HETATM    4  C   UNK N   1      36.920  13.862   7.896  0.00  0.00     0.114 A 
HETATM    5  N   UNK N   1      36.818  12.653   7.313  0.00  0.00    -0.360 N 
HETATM    6  C   UNK N   1      36.482  11.792   8.299  0.00  0.00     0.180 A 
ATOM      7  HN  UNK N   1      36.963  12.432   6.328  1.00  0.00     0.166 HD
HETATM    8  N   UNK N   1      36.370  12.416   9.488  0.00  0.00    -0.354 N 
HETATM    9  H   UNK N   1      36.142  12.013  10.357  0.00  0.00     0.166 HD
ENDBRANCH   2   3
ENDBRANCH   1   2
BRANCH   1  10
HETATM   10  C   UNK N   1      34.235  15.371   9.895  0.00  0.00     0.135 C 
HETATM   11  N   UNK N   1      34.303  16.313   8.999  0.00  0.00    -0.365 N 
ATOM     12  HN  UNK N   1      35.108  16.939   9.005  1.00  0.00     0.161 HD
BRANCH  11  13
HETATM   13  C   UNK N   1      33.264  16.507   7.980  0.00  0.00     0.115 C 
BRANCH  13  14
HETATM   14  C   UNK N   1      32.454  17.779   8.329  0.00  0.00     0.032 C 
BRANCH  14  15
HETATM   15  C   UNK N   1      30.956  17.502   8.479  0.00  0.00    -0.013 C 
HETATM   16  C   UNK N   1      30.260  17.388   7.122  0.00  0.00     0.005 C 
HETATM   17  C   UNK N   1      28.778  17.081   7.309  0.00  0.00     0.000 C 
HETATM   18  C   UNK N   1      28.119  18.174   8.146  0.00  0.00     0.000 C 
HETATM   19  C   UNK N   1      28.818  18.301   9.497  0.00  0.00     0.000 C 
HETATM   20  C   UNK N   1      30.301  18.609   9.298  0.00  0.00     0.005 C 
ENDBRANCH  14  15
ENDBRANCH  13  14
BRANCH  13  21
HETATM   21  C   UNK N   1      33.819  16.652   6.520  0.00  0.00     0.169 C 
BRANCH  21  22
HETATM   22  C   UNK N   1      32.800  16.585   5.334  0.00  0.00     0.153 C 
BRANCH  22  23
HETATM   23  C   UNK N   1      32.777  15.380   4.389  0.00  0.00     0.017 A 
HETATM   24  C   UNK N   1      33.377  15.708   3.055  0.00  0.00     0.007 A 
HETATM   25  C   UNK N   1      34.120  14.804   4.035  0.00  0.00     0.007 A 
ENDBRANCH  22  23
BRANCH  22  26
HETATM   26  O   UNK N   1      33.049  17.682   4.502  0.00  0.00    -0.393 OA
HETATM   27  H   UNK N   1      33.888  17.861   4.049  0.00  0.00     0.210 HD
ENDBRANCH  22  26
ENDBRANCH  21  22
BRANCH  21  28
HETATM   28  O   UNK N   1      34.422  17.910   6.420  0.00  0.00    -0.391 OA
HETATM   29  H   UNK N   1      35.019  18.225   7.117  0.00  0.00     0.210 HD
ENDBRANCH  21  28
ENDBRANCH  13  21
ENDBRANCH  11  13
BRANCH  10  30
HETATM   30  O   UNK N   1      33.164  14.548   9.925  0.00  0.00    -0.348 OA
HETATM   31  H   UNK N   1      32.413  14.677   9.379  0.00  0.00     0.219 HD
ENDBRANCH  10  30
ENDBRANCH   1  10
BRANCH   1  32
HETATM   32  N   UNK N   1      35.049  14.142  11.976  0.00  0.00    -0.362 N 
HETATM   33  C   UNK N   1      35.695  13.988  13.090  0.00  0.00     0.117 C 
ATOM     34  HN  UNK N   1      34.261  13.515  11.814  1.00  0.00     0.162 HD
BRANCH  33  35
HETATM   35  C   UNK N   1      35.172  13.019  14.145  0.00  0.00     0.078 C 
BRANCH  35  36
HETATM   36  C   UNK N   1      36.261  12.730  15.187  0.00  0.00     0.052 C 
BRANCH  36  37
HETATM   37  C   UNK N   1      35.863  12.540  16.624  0.00  0.00    -0.057 A 
HETATM   38  C   UNK N   1      35.799  11.267  17.205  0.00  0.00     0.007 A 
HETATM   39  C   UNK N   1      35.390  11.128  18.537  0.00  0.00     0.001 A 
HETATM   40  C   UNK N   1      35.029  12.256  19.283  0.00  0.00     0.000 A 
HETATM   41  C   UNK N   1      35.082  13.524  18.700  0.00  0.00     0.001 A 
HETATM   42  C   UNK N   1      35.498  13.663  17.375  0.00  0.00     0.007 A 
ENDBRANCH  36  37
ENDBRANCH  35  36
BRANCH  35  43
HETATM   43  C   UNK N   1      34.580  11.749  13.510  0.00  0.00     0.154 C 
BRANCH  43  44
HETATM   44  S   UNK N   1      35.886  10.714  12.754  0.00  0.00     0.152 S 
HETATM   45  O   UNK N   1      35.363  10.186  11.405  0.00  0.00    -0.227 OA
HETATM   46  O   UNK N   1      36.970  11.660  12.215  0.00  0.00    -0.227 OA
BRANCH  44  47
HETATM   47  C   UNK N   1      36.693   9.326  13.629  0.00  0.00     0.053 C 
HETATM   48  C   UNK N   1      37.896   9.825  14.404  0.00  0.00     0.031 C 
HETATM   49  C   UNK N   1      35.726   8.654  14.583  0.00  0.00     0.031 C 
HETATM   50  C   UNK N   1      37.157   8.307  12.608  0.00  0.00     0.031 C 
ENDBRANCH  44  47
ENDBRANCH  43  44
ENDBRANCH  35  43
ENDBRANCH  33  35
BRANCH  33  51
HETATM   51  O   UNK N   1      36.798  14.720  13.348  0.00  0.00    -0.349 OA
HETATM   52  H   UNK N   1      37.194  15.488  13.711  0.00  0.00     0.219 HD
ENDBRANCH  33  51
ENDBRANCH   1  32
TORSDOF 20
ENDMDL
MODEL 8
REMARK VINA RESULT:      -6.9      3.382      6.596
REMARK  20 active torsions:
REMARK  status: ('A' for Active; 'I' for Inactive)
REMARK    1  A    between atoms: C_22  and  C_16 
REMARK    2  A    between atoms: C_25  and  C_16 
REMARK    3  A    between atoms: C_23  and  C_17 
REMARK    4  A    between atoms: C_27  and  C_17 
REMARK    5  A    between atoms: C_26  and  C_18 
REMARK    6  A    between atoms: C_28  and  C_18 
REMARK    7  A    between atoms: C_25  and  C_20 
REMARK    8  A    between atoms: S_47  and  C_20 
REMARK    9  A    between atoms: C_29  and  C_24 
REMARK   10  A    between atoms: C_25  and  C_31 
REMARK   11  A    between atoms: C_30  and  C_27 
REMARK   12  A    between atoms: C_27  and  N_37 
REMARK   13  A    between atoms: C_32  and  C_28 
REMARK   14  A    between atoms: C_28  and  N_39 
REMARK   15  A    between atoms: C_30  and  C_29 
REMARK   16  A    between atoms: C_29  and  O_41 
REMARK   17  A    between atoms: C_30  and  O_42 
REMARK   18  A    between atoms: C_31  and  O_43 
REMARK   19  A    between atoms: C_32  and  O_44 
REMARK   20  A    between atoms: S_47  and  C_33 
ROOT
HETATM    1  C   UNK N   1      24.957  14.985   6.904  0.00  0.00     0.163 C 
ENDROOT
BRANCH   1   2
HETATM    2  C   UNK N   1      25.293  13.508   7.172  0.00  0.00     0.092 C 
BRANCH   2   3
HETATM    3  C   UNK N   1      24.775  12.952   8.458  0.00  0.00     0.028 A 
HETATM    4  C   UNK N   1      25.143  13.342   9.722  0.00  0.00     0.114 A 
HETATM    5  N   UNK N   1      24.405  12.635  10.599  0.00  0.00    -0.360 N 
HETATM    6  C   UNK N   1      23.606  11.841   9.854  0.00  0.00     0.180 A 
ATOM      7  HN  UNK N   1      24.443  12.689  11.617  1.00  0.00     0.166 HD
HETATM    8  N   UNK N   1      23.812  12.021   8.535  0.00  0.00    -0.354 N 
HETATM    9  H   UNK N   1      23.356  11.567   7.790  0.00  0.00     0.166 HD
ENDBRANCH   2   3
ENDBRANCH   1   2
BRANCH   1  10
HETATM   10  C   UNK N   1      26.209  15.855   6.794  0.00  0.00     0.135 C 
HETATM   11  N   UNK N   1      26.725  16.223   5.656  0.00  0.00    -0.365 N 
ATOM     12  HN  UNK N   1      26.299  15.888   4.793  1.00  0.00     0.161 HD
BRANCH  11  13
HETATM   13  C   UNK N   1      27.898  17.103   5.572  0.00  0.00     0.115 C 
BRANCH  13  14
HETATM   14  C   UNK N   1      29.165  16.230   5.396  0.00  0.00     0.032 C 
BRANCH  14  15
HETATM   15  C   UNK N   1      30.154  16.388   6.553  0.00  0.00    -0.013 C 
HETATM   16  C   UNK N   1      29.766  17.540   7.480  0.00  0.00     0.005 C 
HETATM   17  C   UNK N   1      30.755  17.648   8.637  0.00  0.00     0.000 C 
HETATM   18  C   UNK N   1      32.167  17.861   8.100  0.00  0.00     0.000 C 
HETATM   19  C   UNK N   1      32.555  16.719   7.163  0.00  0.00     0.000 C 
HETATM   20  C   UNK N   1      31.560  16.621   6.009  0.00  0.00     0.005 C 
ENDBRANCH  14  15
ENDBRANCH  13  14
BRANCH  13  21
HETATM   21  C   UNK N   1      27.837  18.138   4.396  0.00  0.00     0.169 C 
BRANCH  21  22
HETATM   22  C   UNK N   1      26.926  19.399   4.569  0.00  0.00     0.153 C 
BRANCH  22  23
HETATM   23  C   UNK N   1      27.465  20.669   5.235  0.00  0.00     0.017 A 
HETATM   24  C   UNK N   1      26.435  21.318   6.110  0.00  0.00     0.007 A 
HETATM   25  C   UNK N   1      27.632  20.600   6.729  0.00  0.00     0.007 A 
ENDBRANCH  22  23
BRANCH  22  26
HETATM   26  O   UNK N   1      25.833  19.024   5.356  0.00  0.00    -0.393 OA
HETATM   27  H   UNK N   1      25.108  18.448   5.069  0.00  0.00     0.210 HD
ENDBRANCH  22  26
ENDBRANCH  21  22
BRANCH  21  28
HETATM   28  O   UNK N   1      29.129  18.639   4.204  0.00  0.00    -0.391 OA
HETATM   29  H   UNK N   1      29.880  18.033   4.105  0.00  0.00     0.210 HD
ENDBRANCH  21  28
ENDBRANCH  13  21
ENDBRANCH  11  13
BRANCH  10  30
HETATM   30  O   UNK N   1      26.775  16.263   7.951  0.00  0.00    -0.348 OA
HETATM   31  H   UNK N   1      26.684  15.787   8.753  0.00  0.00     0.219 HD
ENDBRANCH  10  30
ENDBRANCH   1  10
BRANCH   1  32
HETATM   32  N   UNK N   1      23.995  15.059   5.811  0.00  0.00    -0.362 N 
HETATM   33  C   UNK N   1      22.712  15.211   5.914  0.00  0.00     0.117 C 
ATOM     34  HN  UNK N   1      24.372  14.981   4.866  1.00  0.00     0.162 HD
BRANCH  33  35
HETATM   35  C   UNK N   1      21.868  15.421   4.661  0.00  0.00     0.078 C 
BRANCH  35  36
HETATM   36  C   UNK N   1      22.771  15.699   3.452  0.00  0.00     0.052 C 
BRANCH  36  37
HETATM   37  C   UNK N   1      22.706  14.778   2.266  0.00  0.00    -0.057 A 
HETATM   38  C   UNK N   1      21.512  14.152   1.888  0.00  0.00     0.007 A 
HETATM   39  C   UNK N   1      21.499  13.273   0.798  0.00  0.00     0.001 A 
HETATM   40  C   UNK N   1      22.680  13.006   0.097  0.00  0.00     0.000 A 
HETATM   41  C   UNK N   1      23.874  13.621   0.481  0.00  0.00     0.001 A 
HETATM   42  C   UNK N   1      23.884  14.505   1.562  0.00  0.00     0.007 A 
ENDBRANCH  36  37
ENDBRANCH  35  36
BRANCH  35  43
HETATM   43  C   UNK N   1      20.786  16.494   4.876  0.00  0.00     0.154 C 
BRANCH  43  44
HETATM   44  S   UNK N   1      21.503  18.178   4.840  0.00  0.00     0.152 S 
HETATM   45  O   UNK N   1      20.961  18.958   6.051  0.00  0.00    -0.227 OA
HETATM   46  O   UNK N   1      22.968  18.064   5.287  0.00  0.00    -0.227 OA
BRANCH  44  47
HETATM   47  C   UNK N   1      21.414  19.270   3.377  0.00  0.00     0.053 C 
HETATM   48  C   UNK N   1      20.943  18.488   2.168  0.00  0.00     0.031 C 
HETATM   49  C   UNK N   1      20.469  20.429   3.625  0.00  0.00     0.031 C 
HETATM   50  C   UNK N   1      22.797  19.823   3.094  0.00  0.00     0.031 C 
ENDBRANCH  44  47
ENDBRANCH  43  44
ENDBRANCH  35  43
ENDBRANCH  33  35
BRANCH  33  51
HETATM   51  O   UNK N   1      22.121  15.242   7.126  0.00  0.00    -0.349 OA
HETATM   52  H   UNK N   1      21.579  14.836   7.773  0.00  0.00     0.219 HD
ENDBRANCH  33  51
ENDBRANCH   1  32
TORSDOF 20
ENDMDL
MODEL 9
REMARK VINA RESULT:      -6.8      5.486      9.333
REMARK  20 active torsions:
REMARK  status: ('A' for Active; 'I' for Inactive)
REMARK    1  A    between atoms: C_22  and  C_16 
REMARK    2  A    between atoms: C_25  and  C_16 
REMARK    3  A    between atoms: C_23  and  C_17 
REMARK    4  A    between atoms: C_27  and  C_17 
REMARK    5  A    between atoms: C_26  and  C_18 
REMARK    6  A    between atoms: C_28  and  C_18 
REMARK    7  A    between atoms: C_25  and  C_20 
REMARK    8  A    between atoms: S_47  and  C_20 
REMARK    9  A    between atoms: C_29  and  C_24 
REMARK   10  A    between atoms: C_25  and  C_31 
REMARK   11  A    between atoms: C_30  and  C_27 
REMARK   12  A    between atoms: C_27  and  N_37 
REMARK   13  A    between atoms: C_32  and  C_28 
REMARK   14  A    between atoms: C_28  and  N_39 
REMARK   15  A    between atoms: C_30  and  C_29 
REMARK   16  A    between atoms: C_29  and  O_41 
REMARK   17  A    between atoms: C_30  and  O_42 
REMARK   18  A    between atoms: C_31  and  O_43 
REMARK   19  A    between atoms: C_32  and  O_44 
REMARK   20  A    between atoms: S_47  and  C_33 
ROOT
HETATM    1  C   UNK N   1      28.229  17.289   6.478  0.00  0.00     0.163 C 
ENDROOT
BRANCH   1   2
HETATM    2  C   UNK N   1      28.170  18.542   7.368  0.00  0.00     0.092 C 
BRANCH   2   3
HETATM    3  C   UNK N   1      27.546  19.748   6.745  0.00  0.00     0.028 A 
HETATM    4  C   UNK N   1      27.680  20.152   5.439  0.00  0.00     0.114 A 
HETATM    5  N   UNK N   1      26.917  21.248   5.270  0.00  0.00    -0.360 N 
HETATM    6  C   UNK N   1      26.335  21.482   6.467  0.00  0.00     0.180 A 
ATOM      7  HN  UNK N   1      26.802  21.791   4.414  1.00  0.00     0.166 HD
HETATM    8  N   UNK N   1      26.703  20.570   7.388  0.00  0.00    -0.354 N 
HETATM    9  H   UNK N   1      26.417  20.518   8.328  0.00  0.00     0.166 HD
ENDBRANCH   2   3
ENDBRANCH   1   2
BRANCH   1  10
HETATM   10  C   UNK N   1      29.604  16.622   6.503  0.00  0.00     0.135 C 
HETATM   11  N   UNK N   1      30.646  17.156   7.073  0.00  0.00    -0.365 N 
ATOM     12  HN  UNK N   1      30.556  18.080   7.494  1.00  0.00     0.161 HD
BRANCH  11  13
HETATM   13  C   UNK N   1      31.946  16.475   7.133  0.00  0.00     0.115 C 
BRANCH  13  14
HETATM   14  C   UNK N   1      33.005  17.359   6.431  0.00  0.00     0.032 C 
BRANCH  14  15
HETATM   15  C   UNK N   1      33.511  16.747   5.123  0.00  0.00    -0.013 C 
HETATM   16  C   UNK N   1      32.571  17.045   3.955  0.00  0.00     0.005 C 
HETATM   17  C   UNK N   1      33.123  16.448   2.663  0.00  0.00     0.000 C 
HETATM   18  C   UNK N   1      33.302  14.940   2.819  0.00  0.00     0.000 C 
HETATM   19  C   UNK N   1      34.229  14.636   3.994  0.00  0.00     0.000 C 
HETATM   20  C   UNK N   1      33.668  15.238   5.280  0.00  0.00     0.005 C 
ENDBRANCH  14  15
ENDBRANCH  13  14
BRANCH  13  21
HETATM   21  C   UNK N   1      32.439  16.165   8.589  0.00  0.00     0.169 C 
BRANCH  21  22
HETATM   22  C   UNK N   1      33.972  16.267   8.886  0.00  0.00     0.153 C 
BRANCH  22  23
HETATM   23  C   UNK N   1      34.765  15.038   9.342  0.00  0.00     0.017 A 
HETATM   24  C   UNK N   1      34.350  13.803   8.602  0.00  0.00     0.007 A 
HETATM   25  C   UNK N   1      35.702  14.453   8.322  0.00  0.00     0.007 A 
ENDBRANCH  22  23
BRANCH  22  26
HETATM   26  O   UNK N   1      34.141  17.198   9.915  0.00  0.00    -0.393 OA
HETATM   27  H   UNK N   1      34.026  17.014  10.861  0.00  0.00     0.210 HD
ENDBRANCH  22  26
ENDBRANCH  21  22
BRANCH  21  28
HETATM   28  O   UNK N   1      31.833  17.089   9.447  0.00  0.00    -0.391 OA
HETATM   29  H   UNK N   1      31.495  17.930   9.103  0.00  0.00     0.210 HD
ENDBRANCH  21  28
ENDBRANCH  13  21
ENDBRANCH  11  13
BRANCH  10  30
HETATM   30  O   UNK N   1      29.708  15.411   5.913  0.00  0.00    -0.348 OA
HETATM   31  H   UNK N   1      29.396  15.243   5.046  0.00  0.00     0.219 HD
ENDBRANCH  10  30
ENDBRANCH   1  10
BRANCH   1  32
HETATM   32  N   UNK N   1      27.074  16.448   6.770  0.00  0.00    -0.362 N 
HETATM   33  C   UNK N   1      26.002  16.323   6.052  0.00  0.00     0.117 C 
ATOM     34  HN  UNK N   1      27.114  15.903   7.631  1.00  0.00     0.162 HD
BRANCH  33  35
HETATM   35  C   UNK N   1      24.952  15.282   6.427  0.00  0.00     0.078 C 
BRANCH  35  36
HETATM   36  C   UNK N   1      25.631  13.998   6.924  0.00  0.00     0.052 C 
BRANCH  36  37
HETATM   37  C   UNK N   1      24.882  13.093   7.861  0.00  0.00    -0.057 A 
HETATM   38  C   UNK N   1      24.144  11.999   7.391  0.00  0.00     0.007 A 
HETATM   39  C   UNK N   1      23.431  11.199   8.293  0.00  0.00     0.001 A 
HETATM   40  C   UNK N   1      23.440  11.501   9.659  0.00  0.00     0.000 A 
HETATM   41  C   UNK N   1      24.167  12.598  10.127  0.00  0.00     0.001 A 
HETATM   42  C   UNK N   1      24.885  13.390   9.229  0.00  0.00     0.007 A 
ENDBRANCH  36  37
ENDBRANCH  35  36
BRANCH  35  43
HETATM   43  C   UNK N   1      23.953  15.042   5.283  0.00  0.00     0.154 C 
BRANCH  43  44
HETATM   44  S   UNK N   1      22.461  16.085   5.474  0.00  0.00     0.152 S 
HETATM   45  O   UNK N   1      22.913  17.543   5.666  0.00  0.00    -0.227 OA
HETATM   46  O   UNK N   1      21.821  16.233   4.085  0.00  0.00    -0.227 OA
BRANCH  44  47
HETATM   47  C   UNK N   1      21.146  15.734   6.696  0.00  0.00     0.053 C 
HETATM   48  C   UNK N   1      21.644  14.744   7.730  0.00  0.00     0.031 C 
HETATM   49  C   UNK N   1      20.702  17.005   7.391  0.00  0.00     0.031 C 
HETATM   50  C   UNK N   1      19.956  15.133   5.975  0.00  0.00     0.031 C 
ENDBRANCH  44  47
ENDBRANCH  43  44
ENDBRANCH  35  43
ENDBRANCH  33  35
BRANCH  33  51
HETATM   51  O   UNK N   1      25.832  17.068   4.941  0.00  0.00    -0.349 OA
HETATM   52  H   UNK N   1      26.139  17.355   4.103  0.00  0.00     0.219 HD
ENDBRANCH  33  51
ENDBRANCH   1  32
TORSDOF 20
ENDMDL
