MODEL 1
REMARK VINA RESULT:      -6.2      0.000      0.000
REMARK  4 active torsions:
REMARK  status: ('A' for Active; 'I' for Inactive)
REMARK    1  A    between atoms: N_3  and  C_6 
REMARK    2  A    between atoms: C_6  and  C_10 
REMARK    3  A    between atoms: C_6  and  C_18 
REMARK    4  A    between atoms: C_18  and  O_20 
ROOT
HETATM    1  C   UNK N   1      20.317  15.749   7.426  0.00  0.00     0.356 C 
ENDROOT
BRANCH   1   2
HETATM    2  N   UNK N   1      21.467  15.047   8.064  0.00  0.00     0.111 N 
HETATM    3  C   UNK N   1      22.282  14.291   7.094  0.00  0.00     0.279 C 
HETATM    4  C   UNK N   1      23.600  13.817   7.738  0.00  0.00     0.077 C 
HETATM    5  C   UNK N   1      23.299  13.214   9.071  0.00  0.00    -0.008 A 
HETATM    6  S   UNK N   1      24.272  12.314  10.052  0.00  0.00    -0.106 SA
HETATM    7  C   UNK N   1      22.075  13.319   9.700  0.00  0.00    -0.017 A 
HETATM    8  C   UNK N   1      23.204  12.002  11.296  0.00  0.00     0.051 A 
HETATM    9  C   UNK N   1      22.000  12.640  10.945  0.00  0.00     0.017 A 
HETATM   10  C   UNK N   1      20.960  14.091   9.075  0.00  0.00     0.313 C 
ENDBRANCH   1   2
BRANCH   1  11
HETATM   11  C   UNK N   1      20.690  16.579   6.182  0.00  0.00     0.006 A 
HETATM   12  C   UNK N   1      20.051  16.341   4.935  0.00  0.00     0.043 A 
HETATM   13 Cl   UNK N   1      18.808  15.109   4.740  0.00  0.00    -0.084 Cl
HETATM   14  C   UNK N   1      20.412  17.082   3.806  0.00  0.00     0.024 A 
HETATM   15  C   UNK N   1      21.403  18.059   3.888  0.00  0.00     0.002 A 
HETATM   16  C   UNK N   1      22.036  18.309   5.104  0.00  0.00     0.001 A 
HETATM   17  C   UNK N   1      21.680  17.578   6.241  0.00  0.00     0.011 A 
ENDBRANCH   1  11
BRANCH   1  18
HETATM   18  C   UNK N   1      19.624  16.630   8.466  0.00  0.00     0.297 C 
HETATM   19  O   UNK N   1      20.248  17.506   9.058  0.00  0.00    -0.262 OA
BRANCH  18  20
HETATM   20  O   UNK N   1      18.309  16.439   8.734  0.00  0.00    -0.325 OA
HETATM   21  C   UNK N   1      17.549  17.349   9.430  0.00  0.00     0.213 C 
ENDBRANCH  18  20
ENDBRANCH   1  18
TORSDOF 4
ENDMDL
MODEL 2
REMARK VINA RESULT:      -6.2     10.618     12.944
REMARK  4 active torsions:
REMARK  status: ('A' for Active; 'I' for Inactive)
REMARK    1  A    between atoms: N_3  and  C_6 
REMARK    2  A    between atoms: C_6  and  C_10 
REMARK    3  A    between atoms: C_6  and  C_18 
REMARK    4  A    between atoms: C_18  and  O_20 
ROOT
HETATM    1  C   UNK N   1      33.270  16.111   7.486  0.00  0.00     0.356 C 
ENDROOT
BRANCH   1   2
HETATM    2  N   UNK N   1      32.043  16.954   7.564  0.00  0.00     0.111 N 
HETATM    3  C   UNK N   1      31.241  16.681   8.772  0.00  0.00     0.279 C 
HETATM    4  C   UNK N   1      30.146  17.751   8.955  0.00  0.00     0.077 C 
HETATM    5  C   UNK N   1      29.454  17.965   7.649  0.00  0.00    -0.008 A 
HETATM    6  S   UNK N   1      28.052  18.772   7.331  0.00  0.00    -0.106 SA
HETATM    7  C   UNK N   1      29.917  17.468   6.447  0.00  0.00    -0.017 A 
HETATM    8  C   UNK N   1      27.952  18.522   5.684  0.00  0.00     0.051 A 
HETATM    9  C   UNK N   1      29.084  17.764   5.335  0.00  0.00     0.017 A 
HETATM   10  C   UNK N   1      31.190  16.690   6.383  0.00  0.00     0.313 C 
ENDBRANCH   1   2
BRANCH   1  11
HETATM   11  C   UNK N   1      33.964  15.872   8.841  0.00  0.00     0.006 A 
HETATM   12  C   UNK N   1      33.863  14.613   9.493  0.00  0.00     0.043 A 
HETATM   13 Cl   UNK N   1      32.960  13.269   8.799  0.00  0.00    -0.084 Cl
HETATM   14  C   UNK N   1      34.474  14.412  10.734  0.00  0.00     0.024 A 
HETATM   15  C   UNK N   1      35.187  15.441  11.347  0.00  0.00     0.002 A 
HETATM   16  C   UNK N   1      35.301  16.679  10.719  0.00  0.00     0.001 A 
HETATM   17  C   UNK N   1      34.698  16.891   9.476  0.00  0.00     0.011 A 
ENDBRANCH   1  11
BRANCH   1  18
HETATM   18  C   UNK N   1      34.248  16.737   6.490  0.00  0.00     0.297 C 
HETATM   19  O   UNK N   1      34.248  17.948   6.291  0.00  0.00    -0.262 OA
BRANCH  18  20
HETATM   20  O   UNK N   1      35.123  15.943   5.824  0.00  0.00    -0.325 OA
HETATM   21  C   UNK N   1      34.724  14.887   5.039  0.00  0.00     0.213 C 
ENDBRANCH  18  20
ENDBRANCH   1  18
TORSDOF 4
ENDMDL
MODEL 3
REMARK VINA RESULT:      -6.1     16.852     17.757
REMARK  4 active torsions:
REMARK  status: ('A' for Active; 'I' for Inactive)
REMARK    1  A    between atoms: N_3  and  C_6 
REMARK    2  A    between atoms: C_6  and  C_10 
REMARK    3  A    between atoms: C_6  and  C_18 
REMARK    4  A    between atoms: C_18  and  O_20 
ROOT
HETATM    1  C   UNK N   1      27.159  25.398  -5.814  0.00  0.00     0.356 C 
ENDROOT
BRANCH   1   2
HETATM    2  N   UNK N   1      28.077  24.527  -5.025  0.00  0.00     0.111 N 
HETATM    3  C   UNK N   1      29.218  25.270  -4.456  0.00  0.00     0.279 C 
HETATM    4  C   UNK N   1      29.979  24.404  -3.432  0.00  0.00     0.077 C 
HETATM    5  C   UNK N   1      30.205  23.048  -4.017  0.00  0.00    -0.008 A 
HETATM    6  S   UNK N   1      31.187  21.834  -3.488  0.00  0.00    -0.106 SA
HETATM    7  C   UNK N   1      29.593  22.600  -5.171  0.00  0.00    -0.017 A 
HETATM    8  C   UNK N   1      30.906  20.704  -4.684  0.00  0.00     0.051 A 
HETATM    9  C   UNK N   1      29.980  21.291  -5.564  0.00  0.00     0.017 A 
HETATM   10  C   UNK N   1      28.620  23.464  -5.902  0.00  0.00     0.313 C 
ENDBRANCH   1   2
BRANCH   1  11
HETATM   11  C   UNK N   1      26.818  26.740  -5.136  0.00  0.00     0.006 A 
HETATM   12  C   UNK N   1      27.173  27.971  -5.750  0.00  0.00     0.043 A 
HETATM   13 Cl   UNK N   1      28.003  28.039  -7.301  0.00  0.00    -0.084 Cl
HETATM   14  C   UNK N   1      26.882  29.183  -5.116  0.00  0.00     0.024 A 
HETATM   15  C   UNK N   1      26.243  29.199  -3.877  0.00  0.00     0.002 A 
HETATM   16  C   UNK N   1      25.884  28.000  -3.265  0.00  0.00     0.001 A 
HETATM   17  C   UNK N   1      26.165  26.782  -3.890  0.00  0.00     0.011 A 
ENDBRANCH   1  11
BRANCH   1  18
HETATM   18  C   UNK N   1      25.881  24.623  -6.135  0.00  0.00     0.297 C 
HETATM   19  O   UNK N   1      25.244  24.072  -5.242  0.00  0.00    -0.262 OA
BRANCH  18  20
HETATM   20  O   UNK N   1      25.450  24.547  -7.418  0.00  0.00    -0.325 OA
HETATM   21  C   UNK N   1      26.035  25.250  -8.445  0.00  0.00     0.213 C 
ENDBRANCH  18  20
ENDBRANCH   1  18
TORSDOF 4
ENDMDL
MODEL 4
REMARK VINA RESULT:      -5.8      3.147      5.952
REMARK  4 active torsions:
REMARK  status: ('A' for Active; 'I' for Inactive)
REMARK    1  A    between atoms: N_3  and  C_6 
REMARK    2  A    between atoms: C_6  and  C_10 
REMARK    3  A    between atoms: C_6  and  C_18 
REMARK    4  A    between atoms: C_18  and  O_20 
ROOT
HETATM    1  C   UNK N   1      21.364  14.315   8.180  0.00  0.00     0.356 C 
ENDROOT
BRANCH   1   2
HETATM    2  N   UNK N   1      20.674  13.549   7.103  0.00  0.00     0.111 N 
HETATM    3  C   UNK N   1      21.365  12.289   6.768  0.00  0.00     0.279 C 
HETATM    4  C   UNK N   1      20.485  11.405   5.863  0.00  0.00     0.077 C 
HETATM    5  C   UNK N   1      19.921  12.247   4.764  0.00  0.00    -0.008 A 
HETATM    6  S   UNK N   1      19.153  11.780   3.382  0.00  0.00    -0.106 SA
HETATM    7  C   UNK N   1      19.984  13.626   4.747  0.00  0.00    -0.017 A 
HETATM    8  C   UNK N   1      18.882  13.276   2.693  0.00  0.00     0.051 A 
HETATM    9  C   UNK N   1      19.414  14.220   3.590  0.00  0.00     0.017 A 
HETATM   10  C   UNK N   1      20.614  14.374   5.875  0.00  0.00     0.313 C 
ENDBRANCH   1   2
BRANCH   1  11
HETATM   11  C   UNK N   1      21.753  13.470   9.410  0.00  0.00     0.006 A 
HETATM   12  C   UNK N   1      23.106  13.096   9.631  0.00  0.00     0.043 A 
HETATM   13 Cl   UNK N   1      24.400  13.572   8.535  0.00  0.00    -0.084 Cl
HETATM   14  C   UNK N   1      23.448  12.309  10.735  0.00  0.00     0.024 A 
HETATM   15  C   UNK N   1      22.468  11.883  11.630  0.00  0.00     0.002 A 
HETATM   16  C   UNK N   1      21.138  12.246  11.431  0.00  0.00     0.001 A 
HETATM   17  C   UNK N   1      20.785  13.035  10.333  0.00  0.00     0.011 A 
ENDBRANCH   1  11
BRANCH   1  18
HETATM   18  C   UNK N   1      20.486  15.494   8.601  0.00  0.00     0.297 C 
HETATM   19  O   UNK N   1      20.964  16.618   8.719  0.00  0.00    -0.262 OA
BRANCH  18  20
HETATM   20  O   UNK N   1      19.167  15.293   8.842  0.00  0.00    -0.325 OA
HETATM   21  C   UNK N   1      18.316  16.301   9.232  0.00  0.00     0.213 C 
ENDBRANCH  18  20
ENDBRANCH   1  18
TORSDOF 4
ENDMDL
MODEL 5
REMARK VINA RESULT:      -5.7     15.765     17.822
REMARK  4 active torsions:
REMARK  status: ('A' for Active; 'I' for Inactive)
REMARK    1  A    between atoms: N_3  and  C_6 
REMARK    2  A    between atoms: C_6  and  C_10 
REMARK    3  A    between atoms: C_6  and  C_18 
REMARK    4  A    between atoms: C_18  and  O_20 
ROOT
HETATM    1  C   UNK N   1      36.797  13.162  14.269  0.00  0.00     0.356 C 
ENDROOT
BRANCH   1   2
HETATM    2  N   UNK N   1      37.063  11.745  13.888  0.00  0.00     0.111 N 
HETATM    3  C   UNK N   1      38.240  11.182  14.577  0.00  0.00     0.279 C 
HETATM    4  C   UNK N   1      38.314   9.655  14.373  0.00  0.00     0.077 C 
HETATM    5  C   UNK N   1      38.094   9.348  12.927  0.00  0.00    -0.008 A 
HETATM    6  S   UNK N   1      38.336   7.936  12.113  0.00  0.00    -0.106 SA
HETATM    7  C   UNK N   1      37.641  10.274  12.009  0.00  0.00    -0.017 A 
HETATM    8  C   UNK N   1      37.905   8.421  10.575  0.00  0.00     0.051 A 
HETATM    9  C   UNK N   1      37.536   9.774  10.683  0.00  0.00     0.017 A 
HETATM   10  C   UNK N   1      37.309  11.667  12.430  0.00  0.00     0.313 C 
ENDBRANCH   1   2
BRANCH   1  11
HETATM   11  C   UNK N   1      36.240  13.342  15.695  0.00  0.00     0.006 A 
HETATM   12  C   UNK N   1      36.509  14.527  16.432  0.00  0.00     0.043 A 
HETATM   13 Cl   UNK N   1      37.472  15.844  15.769  0.00  0.00    -0.084 Cl
HETATM   14  C   UNK N   1      36.021  14.673  17.734  0.00  0.00     0.024 A 
HETATM   15  C   UNK N   1      35.268  13.659  18.325  0.00  0.00     0.002 A 
HETATM   16  C   UNK N   1      34.991  12.493  17.614  0.00  0.00     0.001 A 
HETATM   17  C   UNK N   1      35.470  12.338  16.311  0.00  0.00     0.011 A 
ENDBRANCH   1  11
BRANCH   1  18
HETATM   18  C   UNK N   1      35.851  13.790  13.245  0.00  0.00     0.297 C 
HETATM   19  O   UNK N   1      34.667  13.468  13.208  0.00  0.00    -0.262 OA
BRANCH  18  20
HETATM   20  O   UNK N   1      36.328  14.712  12.372  0.00  0.00    -0.325 OA
HETATM   21  C   UNK N   1      35.528  15.657  11.773  0.00  0.00     0.213 C 
ENDBRANCH  18  20
ENDBRANCH   1  18
TORSDOF 4
ENDMDL
MODEL 6
REMARK VINA RESULT:      -5.7     15.885     17.896
REMARK  4 active torsions:
REMARK  status: ('A' for Active; 'I' for Inactive)
REMARK    1  A    between atoms: N_3  and  C_6 
REMARK    2  A    between atoms: C_6  and  C_10 
REMARK    3  A    between atoms: C_6  and  C_18 
REMARK    4  A    between atoms: C_18  and  O_20 
ROOT
HETATM    1  C   UNK N   1      26.772  24.879  -4.544  0.00  0.00     0.356 C 
ENDROOT
BRANCH   1   2
HETATM    2  N   UNK N   1      27.032  24.105  -5.792  0.00  0.00     0.111 N 
HETATM    3  C   UNK N   1      27.373  24.971  -6.938  0.00  0.00     0.279 C 
HETATM    4  C   UNK N   1      27.901  24.133  -8.119  0.00  0.00     0.077 C 
HETATM    5  C   UNK N   1      26.994  22.964  -8.327  0.00  0.00    -0.008 A 
HETATM    6  S   UNK N   1      26.921  21.914  -9.596  0.00  0.00    -0.106 SA
HETATM    7  C   UNK N   1      26.015  22.586  -7.431  0.00  0.00    -0.017 A 
HETATM    8  C   UNK N   1      25.653  20.953  -9.093  0.00  0.00     0.051 A 
HETATM    9  C   UNK N   1      25.247  21.465  -7.847  0.00  0.00     0.017 A 
HETATM   10  C   UNK N   1      25.823  23.331  -6.152  0.00  0.00     0.313 C 
ENDBRANCH   1   2
BRANCH   1  11
HETATM   11  C   UNK N   1      27.209  26.356  -4.609  0.00  0.00     0.006 A 
HETATM   12  C   UNK N   1      26.313  27.356  -5.076  0.00  0.00     0.043 A 
HETATM   13 Cl   UNK N   1      24.673  26.976  -5.591  0.00  0.00    -0.084 Cl
HETATM   14  C   UNK N   1      26.726  28.689  -5.155  0.00  0.00     0.024 A 
HETATM   15  C   UNK N   1      28.018  29.053  -4.780  0.00  0.00     0.002 A 
HETATM   16  C   UNK N   1      28.907  28.086  -4.315  0.00  0.00     0.001 A 
HETATM   17  C   UNK N   1      28.505  26.750  -4.228  0.00  0.00     0.011 A 
ENDBRANCH   1  11
BRANCH   1  18
HETATM   18  C   UNK N   1      27.445  24.175  -3.366  0.00  0.00     0.297 C 
HETATM   19  O   UNK N   1      26.916  24.165  -2.258  0.00  0.00    -0.262 OA
BRANCH  18  20
HETATM   20  O   UNK N   1      28.638  23.556  -3.550  0.00  0.00    -0.325 OA
HETATM   21  C   UNK N   1      29.405  23.088  -2.509  0.00  0.00     0.213 C 
ENDBRANCH  18  20
ENDBRANCH   1  18
TORSDOF 4
ENDMDL
MODEL 7
REMARK VINA RESULT:      -5.6     10.292     11.591
REMARK  4 active torsions:
REMARK  status: ('A' for Active; 'I' for Inactive)
REMARK    1  A    between atoms: N_3  and  C_6 
REMARK    2  A    between atoms: C_6  and  C_10 
REMARK    3  A    between atoms: C_6  and  C_18 
REMARK    4  A    between atoms: C_18  and  O_20 
ROOT
HETATM    1  C   UNK N   1      31.300  16.084   7.139  0.00  0.00     0.356 C 
ENDROOT
BRANCH   1   2
HETATM    2  N   UNK N   1      32.350  16.369   8.159  0.00  0.00     0.111 N 
HETATM    3  C   UNK N   1      33.557  16.985   7.576  0.00  0.00     0.279 C 
HETATM    4  C   UNK N   1      34.491  17.513   8.684  0.00  0.00     0.077 C 
HETATM    5  C   UNK N   1      34.638  16.462   9.735  0.00  0.00    -0.008 A 
HETATM    6  S   UNK N   1      35.714  16.377  10.981  0.00  0.00    -0.106 SA
HETATM    7  C   UNK N   1      33.851  15.330   9.801  0.00  0.00    -0.017 A 
HETATM    8  C   UNK N   1      35.257  14.917  11.648  0.00  0.00     0.051 A 
HETATM    9  C   UNK N   1      34.188  14.448  10.863  0.00  0.00     0.017 A 
HETATM   10  C   UNK N   1      32.756  15.104   8.812  0.00  0.00     0.313 C 
ENDBRANCH   1   2
BRANCH   1  11
HETATM   11  C   UNK N   1      31.785  16.197   5.680  0.00  0.00     0.006 A 
HETATM   12  C   UNK N   1      32.209  15.042   4.968  0.00  0.00     0.043 A 
HETATM   13 Cl   UNK N   1      32.198  13.438   5.694  0.00  0.00    -0.084 Cl
HETATM   14  C   UNK N   1      32.671  15.156   3.653  0.00  0.00     0.024 A 
HETATM   15  C   UNK N   1      32.722  16.401   3.027  0.00  0.00     0.002 A 
HETATM   16  C   UNK N   1      32.305  17.542   3.709  0.00  0.00     0.001 A 
HETATM   17  C   UNK N   1      31.838  17.440   5.022  0.00  0.00     0.011 A 
ENDBRANCH   1  11
BRANCH   1  18
HETATM   18  C   UNK N   1      30.104  17.008   7.376  0.00  0.00     0.297 C 
HETATM   19  O   UNK N   1      29.022  16.778   6.843  0.00  0.00    -0.262 OA
BRANCH  18  20
HETATM   20  O   UNK N   1      30.244  18.088   8.183  0.00  0.00    -0.325 OA
HETATM   21  C   UNK N   1      29.458  18.298   9.292  0.00  0.00     0.213 C 
ENDBRANCH  18  20
ENDBRANCH   1  18
TORSDOF 4
ENDMDL
MODEL 8
REMARK VINA RESULT:      -5.6     14.871     17.406
REMARK  4 active torsions:
REMARK  status: ('A' for Active; 'I' for Inactive)
REMARK    1  A    between atoms: N_3  and  C_6 
REMARK    2  A    between atoms: C_6  and  C_10 
REMARK    3  A    between atoms: C_6  and  C_18 
REMARK    4  A    between atoms: C_18  and  O_20 
ROOT
HETATM    1  C   UNK N   1      36.667  12.732  14.614  0.00  0.00     0.356 C 
ENDROOT
BRANCH   1   2
HETATM    2  N   UNK N   1      35.845  13.119  13.432  0.00  0.00     0.111 N 
HETATM    3  C   UNK N   1      35.950  12.151  12.324  0.00  0.00     0.279 C 
HETATM    4  C   UNK N   1      34.886  12.436  11.245  0.00  0.00     0.077 C 
HETATM    5  C   UNK N   1      34.881  13.899  10.943  0.00  0.00    -0.008 A 
HETATM    6  S   UNK N   1      34.157  14.705   9.701  0.00  0.00    -0.106 SA
HETATM    7  C   UNK N   1      35.543  14.840  11.706  0.00  0.00    -0.017 A 
HETATM    8  C   UNK N   1      34.651  16.261  10.050  0.00  0.00     0.051 A 
HETATM    9  C   UNK N   1      35.432  16.169  11.216  0.00  0.00     0.017 A 
HETATM   10  C   UNK N   1      36.298  14.436  12.929  0.00  0.00     0.313 C 
ENDBRANCH   1   2
BRANCH   1  11
HETATM   11  C   UNK N   1      36.280  11.378  15.241  0.00  0.00     0.006 A 
HETATM   12  C   UNK N   1      37.204  10.298  15.258  0.00  0.00     0.043 A 
HETATM   13 Cl   UNK N   1      38.824  10.441  14.583  0.00  0.00    -0.084 Cl
HETATM   14  C   UNK N   1      36.837   9.065  15.806  0.00  0.00     0.024 A 
HETATM   15  C   UNK N   1      35.562   8.880  16.340  0.00  0.00     0.002 A 
HETATM   16  C   UNK N   1      34.646   9.930  16.336  0.00  0.00     0.001 A 
HETATM   17  C   UNK N   1      35.004  11.168  15.795  0.00  0.00     0.011 A 
ENDBRANCH   1  11
BRANCH   1  18
HETATM   18  C   UNK N   1      36.598  13.843  15.662  0.00  0.00     0.297 C 
HETATM   19  O   UNK N   1      35.618  13.952  16.394  0.00  0.00    -0.262 OA
BRANCH  18  20
HETATM   20  O   UNK N   1      37.630  14.714  15.782  0.00  0.00    -0.325 OA
HETATM   21  C   UNK N   1      37.461  16.027  16.155  0.00  0.00     0.213 C 
ENDBRANCH  18  20
ENDBRANCH   1  18
TORSDOF 4
ENDMDL
MODEL 9
REMARK VINA RESULT:      -5.6     15.354     17.238
REMARK  4 active torsions:
REMARK  status: ('A' for Active; 'I' for Inactive)
REMARK    1  A    between atoms: N_3  and  C_6 
REMARK    2  A    between atoms: C_6  and  C_10 
REMARK    3  A    between atoms: C_6  and  C_18 
REMARK    4  A    between atoms: C_18  and  O_20 
ROOT
HETATM    1  C   UNK N   1      36.501  13.648  12.909  0.00  0.00     0.356 C 
ENDROOT
BRANCH   1   2
HETATM    2  N   UNK N   1      36.878  12.537  11.989  0.00  0.00     0.111 N 
HETATM    3  C   UNK N   1      37.645  11.473  12.666  0.00  0.00     0.279 C 
HETATM    4  C   UNK N   1      37.772  10.230  11.762  0.00  0.00     0.077 C 
HETATM    5  C   UNK N   1      38.176  10.668  10.391  0.00  0.00    -0.008 A 
HETATM    6  S   UNK N   1      38.715   9.761   9.124  0.00  0.00    -0.106 SA
HETATM    7  C   UNK N   1      38.170  11.984   9.975  0.00  0.00    -0.017 A 
HETATM    8  C   UNK N   1      38.981  10.972   8.006  0.00  0.00     0.051 A 
HETATM    9  C   UNK N   1      38.625  12.174   8.643  0.00  0.00     0.017 A 
HETATM   10  C   UNK N   1      37.716  13.071  10.891  0.00  0.00     0.313 C 
ENDBRANCH   1   2
BRANCH   1  11
HETATM   11  C   UNK N   1      35.873  13.186  14.239  0.00  0.00     0.006 A 
HETATM   12  C   UNK N   1      36.210  13.829  15.460  0.00  0.00     0.043 A 
HETATM   13 Cl   UNK N   1      37.341  15.177  15.527  0.00  0.00    -0.084 Cl
HETATM   14  C   UNK N   1      35.654  13.388  16.665  0.00  0.00     0.024 A 
HETATM   15  C   UNK N   1      34.766  12.314  16.684  0.00  0.00     0.002 A 
HETATM   16  C   UNK N   1      34.422  11.675  15.494  0.00  0.00     0.001 A 
HETATM   17  C   UNK N   1      34.967  12.110  14.283  0.00  0.00     0.011 A 
ENDBRANCH   1  11
BRANCH   1  18
HETATM   18  C   UNK N   1      35.560  14.608  12.180  0.00  0.00     0.297 C 
HETATM   19  O   UNK N   1      34.419  14.262  11.888  0.00  0.00    -0.262 OA
BRANCH  18  20
HETATM   20  O   UNK N   1      35.993  15.852  11.857  0.00  0.00    -0.325 OA
HETATM   21  C   UNK N   1      35.450  16.588  10.831  0.00  0.00     0.213 C 
ENDBRANCH  18  20
ENDBRANCH   1  18
TORSDOF 4
ENDMDL
