MODEL 1
REMARK VINA RESULT:      -7.7      0.000      0.000
REMARK  9 active torsions:
REMARK  status: ('A' for Active; 'I' for Inactive)
REMARK    1  A    between atoms: C_12  and  O_21 
REMARK    2  A    between atoms: C_15  and  C_22 
REMARK    3  A    between atoms: C_22  and  C_24 
REMARK    4  A    between atoms: C_24  and  O_25 
REMARK    5  A    between atoms: O_25  and  C_26 
REMARK    6  A    between atoms: C_26  and  C_28 
REMARK    7  A    between atoms: C_28  and  N_29 
REMARK    8  A    between atoms: N_29  and  C_30 
REMARK    9  A    between atoms: N_29  and  C_32 
ROOT
HETATM    1  C   UNK N   1      36.212  11.856  16.559  0.00  0.00     0.022 C 
HETATM    2  C   UNK N   1      35.294  11.405  17.705  0.00  0.00     0.084 C 
HETATM    3  C   UNK N   1      34.822   9.987  17.520  0.00  0.00     0.149 C 
HETATM    4  C   UNK N   1      35.108   9.249  16.268  0.00  0.00     0.053 C 
HETATM    5  C   UNK N   1      35.572   9.885  15.181  0.00  0.00    -0.068 C 
HETATM    6  C   UNK N   1      35.673  11.415  15.189  0.00  0.00    -0.014 C 
HETATM    7  C   UNK N   1      36.602  11.888  14.051  0.00  0.00     0.031 C 
HETATM    8  C   UNK N   1      35.934   9.040  13.963  0.00  0.00     0.035 C 
HETATM    9  C   UNK N   1      36.551   9.778  12.755  0.00  0.00     0.010 C 
HETATM   10  C   UNK N   1      36.117  11.236  12.715  0.00  0.00    -0.002 C 
HETATM   11  C   UNK N   1      36.032  14.190  12.922  0.00  0.00     0.045 C 
HETATM   12  C   UNK N   1      36.870  13.421  13.923  0.00  0.00     0.124 C 
HETATM   13  C   UNK N   1      36.655  12.076  11.552  0.00  0.00     0.002 C 
HETATM   14  C   UNK N   1      35.950  13.457  11.574  0.00  0.00     0.001 C 
HETATM   15  C   UNK N   1      36.647  14.123  10.386  0.00  0.00     0.128 C 
HETATM   16  C   UNK N   1      36.477  11.658  10.098  0.00  0.00     0.009 C 
HETATM   17  C   UNK N   1      36.553  13.001   9.321  0.00  0.00     0.047 C 
HETATM   18  O   UNK N   1      34.222   9.432  18.425  0.00  0.00    -0.293 OA
HETATM   19  C   UNK N   1      34.274  12.014  15.003  0.00  0.00     0.020 C 
HETATM   20  C   UNK N   1      34.438  13.329  11.288  0.00  0.00     0.019 C 
HETATM   21  O   UNK N   1      38.004  14.331  10.670  0.00  0.00    -0.381 OA
HETATM   22  H   UNK N   1      38.920  14.484  10.950  0.00  0.00     0.211 HD
ENDROOT
BRANCH  15  23
HETATM   23  C   UNK N   1      36.052  15.478  10.038  0.00  0.00     0.185 C 
HETATM   24  O   UNK N   1      36.404  16.458  10.675  0.00  0.00    -0.292 OA
BRANCH  23  25
HETATM   25  C   UNK N   1      35.051  15.677   8.938  0.00  0.00     0.260 C 
BRANCH  25  26
HETATM   26  O   UNK N   1      34.239  16.769   9.151  0.00  0.00    -0.312 OA
BRANCH  26  27
HETATM   27  C   UNK N   1      33.893  17.697   8.225  0.00  0.00     0.287 C 
HETATM   28  O   UNK N   1      34.745  18.265   7.549  0.00  0.00    -0.263 OA
BRANCH  27  29
HETATM   29  C   UNK N   1      32.445  18.016   8.018  0.00  0.00     0.382 C 
BRANCH  29  30
HETATM   30  N   UNK N   1      31.634  16.840   8.351  0.00  0.00     0.097 N 
BRANCH  30  31
HETATM   31  C   UNK N   1      30.401  17.193   9.068  0.00  0.00     0.268 C 
HETATM   32  C   UNK N   1      30.163  18.695   9.163  0.00  0.00     0.037 C 
ENDBRANCH  30  31
BRANCH  30  33
HETATM   33  C   UNK N   1      31.297  16.110   7.125  0.00  0.00     0.268 C 
HETATM   34  C   UNK N   1      31.147  17.024   5.909  0.00  0.00     0.037 C 
ENDBRANCH  30  33
ENDBRANCH  29  30
ENDBRANCH  27  29
ENDBRANCH  26  27
ENDBRANCH  25  26
ENDBRANCH  23  25
ENDBRANCH  15  23
BRANCH  12  35
HETATM   35  O   UNK N   1      37.012  14.098  15.133  0.00  0.00    -0.395 OA
HETATM   36  H   UNK N   1      37.839  14.209  15.628  0.00  0.00     0.210 HD
ENDBRANCH  12  35
TORSDOF 9
ENDMDL
MODEL 2
REMARK VINA RESULT:      -7.4      1.452      2.056
REMARK  9 active torsions:
REMARK  status: ('A' for Active; 'I' for Inactive)
REMARK    1  A    between atoms: C_12  and  O_21 
REMARK    2  A    between atoms: C_15  and  C_22 
REMARK    3  A    between atoms: C_22  and  C_24 
REMARK    4  A    between atoms: C_24  and  O_25 
REMARK    5  A    between atoms: O_25  and  C_26 
REMARK    6  A    between atoms: C_26  and  C_28 
REMARK    7  A    between atoms: C_28  and  N_29 
REMARK    8  A    between atoms: N_29  and  C_30 
REMARK    9  A    between atoms: N_29  and  C_32 
ROOT
HETATM    1  C   UNK N   1      36.109  13.346  16.834  0.00  0.00     0.022 C 
HETATM    2  C   UNK N   1      35.204  12.998  18.025  0.00  0.00     0.084 C 
HETATM    3  C   UNK N   1      35.285  11.537  18.382  0.00  0.00     0.149 C 
HETATM    4  C   UNK N   1      36.032  10.586  17.525  0.00  0.00     0.053 C 
HETATM    5  C   UNK N   1      36.444  10.939  16.297  0.00  0.00    -0.068 C 
HETATM    6  C   UNK N   1      36.015  12.293  15.718  0.00  0.00    -0.014 C 
HETATM    7  C   UNK N   1      36.922  12.667  14.527  0.00  0.00     0.031 C 
HETATM    8  C   UNK N   1      37.291   9.938  15.517  0.00  0.00     0.035 C 
HETATM    9  C   UNK N   1      37.832  10.396  14.145  0.00  0.00     0.010 C 
HETATM   10  C   UNK N   1      36.943  11.466  13.527  0.00  0.00    -0.002 C 
HETATM   11  C   UNK N   1      35.822  14.036  12.574  0.00  0.00     0.045 C 
HETATM   12  C   UNK N   1      36.672  14.041  13.828  0.00  0.00     0.124 C 
HETATM   13  C   UNK N   1      37.369  11.996  12.153  0.00  0.00     0.002 C 
HETATM   14  C   UNK N   1      36.246  12.916  11.611  0.00  0.00     0.001 C 
HETATM   15  C   UNK N   1      36.881  13.350  10.289  0.00  0.00     0.128 C 
HETATM   16  C   UNK N   1      37.616  11.072  10.968  0.00  0.00     0.009 C 
HETATM   17  C   UNK N   1      37.373  11.988   9.737  0.00  0.00     0.047 C 
HETATM   18  O   UNK N   1      34.753  11.139  19.405  0.00  0.00    -0.293 OA
HETATM   19  C   UNK N   1      34.556  12.204  15.257  0.00  0.00     0.020 C 
HETATM   20  C   UNK N   1      34.948  12.126  11.332  0.00  0.00     0.019 C 
HETATM   21  O   UNK N   1      38.009  14.147  10.528  0.00  0.00    -0.381 OA
HETATM   22  H   UNK N   1      38.750  14.726  10.766  0.00  0.00     0.211 HD
ENDROOT
BRANCH  15  23
HETATM   23  C   UNK N   1      35.936  14.163   9.420  0.00  0.00     0.185 C 
HETATM   24  O   UNK N   1      35.767  15.345   9.679  0.00  0.00    -0.292 OA
BRANCH  23  25
HETATM   25  C   UNK N   1      35.201  13.589   8.246  0.00  0.00     0.260 C 
BRANCH  25  26
HETATM   26  O   UNK N   1      34.253  14.451   7.740  0.00  0.00    -0.312 OA
BRANCH  26  27
HETATM   27  C   UNK N   1      32.922  14.411   7.995  0.00  0.00     0.287 C 
HETATM   28  O   UNK N   1      32.438  13.527   8.695  0.00  0.00    -0.263 OA
BRANCH  27  29
HETATM   29  C   UNK N   1      32.037  15.475   7.424  0.00  0.00     0.382 C 
BRANCH  29  30
HETATM   30  N   UNK N   1      32.243  16.727   8.160  0.00  0.00     0.097 N 
BRANCH  30  31
HETATM   31  C   UNK N   1      32.987  17.723   7.376  0.00  0.00     0.268 C 
HETATM   32  C   UNK N   1      34.284  18.171   8.038  0.00  0.00     0.037 C 
ENDBRANCH  30  31
BRANCH  30  33
HETATM   33  C   UNK N   1      30.948  17.284   8.560  0.00  0.00     0.268 C 
HETATM   34  C   UNK N   1      29.918  17.269   7.430  0.00  0.00     0.037 C 
ENDBRANCH  30  33
ENDBRANCH  29  30
ENDBRANCH  27  29
ENDBRANCH  26  27
ENDBRANCH  25  26
ENDBRANCH  23  25
ENDBRANCH  15  23
BRANCH  12  35
HETATM   35  O   UNK N   1      36.348  15.090  14.688  0.00  0.00    -0.395 OA
HETATM   36  H   UNK N   1      35.877  15.006  15.533  0.00  0.00     0.210 HD
ENDBRANCH  12  35
TORSDOF 9
ENDMDL
MODEL 3
REMARK VINA RESULT:      -7.3     12.012     14.633
REMARK  9 active torsions:
REMARK  status: ('A' for Active; 'I' for Inactive)
REMARK    1  A    between atoms: C_12  and  O_21 
REMARK    2  A    between atoms: C_15  and  C_22 
REMARK    3  A    between atoms: C_22  and  C_24 
REMARK    4  A    between atoms: C_24  and  O_25 
REMARK    5  A    between atoms: O_25  and  C_26 
REMARK    6  A    between atoms: C_26  and  C_28 
REMARK    7  A    between atoms: C_28  and  N_29 
REMARK    8  A    between atoms: N_29  and  C_30 
REMARK    9  A    between atoms: N_29  and  C_32 
ROOT
HETATM    1  C   UNK N   1      21.117  14.332   9.084  0.00  0.00     0.022 C 
HETATM    2  C   UNK N   1      20.414  13.455  10.130  0.00  0.00     0.084 C 
HETATM    3  C   UNK N   1      21.392  12.607  10.899  0.00  0.00     0.149 C 
HETATM    4  C   UNK N   1      22.820  12.552  10.509  0.00  0.00     0.053 C 
HETATM    5  C   UNK N   1      23.235  13.050   9.333  0.00  0.00    -0.068 C 
HETATM    6  C   UNK N   1      22.199  13.553   8.320  0.00  0.00    -0.014 C 
HETATM    7  C   UNK N   1      22.885  14.448   7.266  0.00  0.00     0.031 C 
HETATM    8  C   UNK N   1      24.733  13.044   9.047  0.00  0.00     0.035 C 
HETATM    9  C   UNK N   1      25.200  13.702   7.731  0.00  0.00     0.010 C 
HETATM   10  C   UNK N   1      24.104  13.668   6.675  0.00  0.00    -0.002 C 
HETATM   11  C   UNK N   1      21.902  14.392   4.831  0.00  0.00     0.045 C 
HETATM   12  C   UNK N   1      21.983  15.098   6.169  0.00  0.00     0.124 C 
HETATM   13  C   UNK N   1      24.449  14.284   5.314  0.00  0.00     0.002 C 
HETATM   14  C   UNK N   1      23.293  13.977   4.328  0.00  0.00     0.001 C 
HETATM   15  C   UNK N   1      23.816  14.695   3.083  0.00  0.00     0.128 C 
HETATM   16  C   UNK N   1      25.668  13.847   4.512  0.00  0.00     0.009 C 
HETATM   17  C   UNK N   1      25.283  14.193   3.048  0.00  0.00     0.047 C 
HETATM   18  O   UNK N   1      21.008  11.980  11.873  0.00  0.00    -0.293 OA
HETATM   19  C   UNK N   1      21.538  12.351   7.635  0.00  0.00     0.020 C 
HETATM   20  C   UNK N   1      23.172  12.462   4.046  0.00  0.00     0.019 C 
HETATM   21  O   UNK N   1      23.843  16.080   3.294  0.00  0.00    -0.381 OA
HETATM   22  H   UNK N   1      23.792  17.028   3.491  0.00  0.00     0.211 HD
ENDROOT
BRANCH  15  23
HETATM   23  C   UNK N   1      22.957  14.446   1.854  0.00  0.00     0.185 C 
HETATM   24  O   UNK N   1      23.468  13.928   0.873  0.00  0.00    -0.292 OA
BRANCH  23  25
HETATM   25  C   UNK N   1      21.501  14.800   1.784  0.00  0.00     0.260 C 
BRANCH  25  26
HETATM   26  O   UNK N   1      21.189  15.549   0.671  0.00  0.00    -0.312 OA
BRANCH  26  27
HETATM   27  C   UNK N   1      20.469  16.697   0.659  0.00  0.00     0.287 C 
HETATM   28  O   UNK N   1      20.294  17.323  -0.381  0.00  0.00    -0.263 OA
BRANCH  27  29
HETATM   29  C   UNK N   1      19.865  17.194   1.936  0.00  0.00     0.382 C 
BRANCH  29  30
HETATM   30  N   UNK N   1      20.745  18.208   2.529  0.00  0.00     0.097 N 
BRANCH  30  31
HETATM   31  C   UNK N   1      20.159  19.555   2.481  0.00  0.00     0.268 C 
HETATM   32  C   UNK N   1      20.792  20.455   1.428  0.00  0.00     0.037 C 
ENDBRANCH  30  31
BRANCH  30  33
HETATM   33  C   UNK N   1      21.044  17.851   3.918  0.00  0.00     0.268 C 
HETATM   34  C   UNK N   1      21.243  19.071   4.818  0.00  0.00     0.037 C 
ENDBRANCH  30  33
ENDBRANCH  29  30
ENDBRANCH  27  29
ENDBRANCH  26  27
ENDBRANCH  25  26
ENDBRANCH  23  25
ENDBRANCH  15  23
BRANCH  12  35
HETATM   35  O   UNK N   1      20.739  15.542   6.615  0.00  0.00    -0.395 OA
HETATM   36  H   UNK N   1      20.451  15.587   7.541  0.00  0.00     0.210 HD
ENDBRANCH  12  35
TORSDOF 9
ENDMDL
MODEL 4
REMARK VINA RESULT:      -7.3      3.434     10.572
REMARK  9 active torsions:
REMARK  status: ('A' for Active; 'I' for Inactive)
REMARK    1  A    between atoms: C_12  and  O_21 
REMARK    2  A    between atoms: C_15  and  C_22 
REMARK    3  A    between atoms: C_22  and  C_24 
REMARK    4  A    between atoms: C_24  and  O_25 
REMARK    5  A    between atoms: O_25  and  C_26 
REMARK    6  A    between atoms: C_26  and  C_28 
REMARK    7  A    between atoms: C_28  and  N_29 
REMARK    8  A    between atoms: N_29  and  C_30 
REMARK    9  A    between atoms: N_29  and  C_32 
ROOT
HETATM    1  C   UNK N   1      28.999  16.011   2.682  0.00  0.00     0.022 C 
HETATM    2  C   UNK N   1      27.851  15.143   2.146  0.00  0.00     0.084 C 
HETATM    3  C   UNK N   1      26.579  15.354   2.923  0.00  0.00     0.149 C 
HETATM    4  C   UNK N   1      26.569  16.178   4.154  0.00  0.00     0.053 C 
HETATM    5  C   UNK N   1      27.716  16.556   4.743  0.00  0.00    -0.068 C 
HETATM    6  C   UNK N   1      29.048  16.007   4.218  0.00  0.00    -0.014 C 
HETATM    7  C   UNK N   1      30.215  16.875   4.737  0.00  0.00     0.031 C 
HETATM    8  C   UNK N   1      27.623  17.485   5.949  0.00  0.00     0.035 C 
HETATM    9  C   UNK N   1      28.952  17.980   6.558  0.00  0.00     0.010 C 
HETATM   10  C   UNK N   1      30.085  16.999   6.290  0.00  0.00    -0.002 C 
HETATM   11  C   UNK N   1      32.492  15.654   5.209  0.00  0.00     0.045 C 
HETATM   12  C   UNK N   1      31.658  16.503   4.271  0.00  0.00     0.124 C 
HETATM   13  C   UNK N   1      31.459  17.374   6.855  0.00  0.00     0.002 C 
HETATM   14  C   UNK N   1      32.418  16.172   6.653  0.00  0.00     0.001 C 
HETATM   15  C   UNK N   1      33.702  16.763   7.238  0.00  0.00     0.128 C 
HETATM   16  C   UNK N   1      31.670  17.698   8.328  0.00  0.00     0.009 C 
HETATM   17  C   UNK N   1      33.170  17.372   8.561  0.00  0.00     0.047 C 
HETATM   18  O   UNK N   1      25.539  14.861   2.518  0.00  0.00    -0.293 OA
HETATM   19  C   UNK N   1      29.221  14.561   4.694  0.00  0.00     0.020 C 
HETATM   20  C   UNK N   1      31.980  14.948   7.487  0.00  0.00     0.019 C 
HETATM   21  O   UNK N   1      34.162  17.817   6.436  0.00  0.00    -0.381 OA
HETATM   22  H   UNK N   1      34.447  18.505   5.814  0.00  0.00     0.211 HD
ENDROOT
BRANCH  15  23
HETATM   23  C   UNK N   1      34.829  15.748   7.331  0.00  0.00     0.185 C 
HETATM   24  O   UNK N   1      35.604  15.640   6.393  0.00  0.00    -0.292 OA
BRANCH  23  25
HETATM   25  C   UNK N   1      35.047  14.870   8.527  0.00  0.00     0.260 C 
BRANCH  25  26
HETATM   26  O   UNK N   1      35.857  15.455   9.475  0.00  0.00    -0.312 OA
BRANCH  26  27
HETATM   27  C   UNK N   1      35.499  15.775  10.743  0.00  0.00     0.287 C 
HETATM   28  O   UNK N   1      35.445  16.944  11.109  0.00  0.00    -0.263 OA
BRANCH  27  29
HETATM   29  C   UNK N   1      35.148  14.678  11.700  0.00  0.00     0.382 C 
BRANCH  29  30
HETATM   30  N   UNK N   1      36.365  14.213  12.375  0.00  0.00     0.097 N 
BRANCH  30  31
HETATM   31  C   UNK N   1      36.363  14.520  13.812  0.00  0.00     0.268 C 
HETATM   32  C   UNK N   1      35.796  13.397  14.671  0.00  0.00     0.037 C 
ENDBRANCH  30  31
BRANCH  30  33
HETATM   33  C   UNK N   1      36.514  12.767  12.182  0.00  0.00     0.268 C 
HETATM   34  C   UNK N   1      35.455  12.178  11.250  0.00  0.00     0.037 C 
ENDBRANCH  30  33
ENDBRANCH  29  30
ENDBRANCH  27  29
ENDBRANCH  26  27
ENDBRANCH  25  26
ENDBRANCH  23  25
ENDBRANCH  15  23
BRANCH  12  35
HETATM   35  O   UNK N   1      31.761  16.090   2.943  0.00  0.00    -0.395 OA
HETATM   36  H   UNK N   1      32.559  16.146   2.392  0.00  0.00     0.210 HD
ENDBRANCH  12  35
TORSDOF 9
ENDMDL
MODEL 5
REMARK VINA RESULT:      -7.2      1.611      2.128
REMARK  9 active torsions:
REMARK  status: ('A' for Active; 'I' for Inactive)
REMARK    1  A    between atoms: C_12  and  O_21 
REMARK    2  A    between atoms: C_15  and  C_22 
REMARK    3  A    between atoms: C_22  and  C_24 
REMARK    4  A    between atoms: C_24  and  O_25 
REMARK    5  A    between atoms: O_25  and  C_26 
REMARK    6  A    between atoms: C_26  and  C_28 
REMARK    7  A    between atoms: C_28  and  N_29 
REMARK    8  A    between atoms: N_29  and  C_30 
REMARK    9  A    between atoms: N_29  and  C_32 
ROOT
HETATM    1  C   UNK N   1      35.527  11.140  17.584  0.00  0.00     0.022 C 
HETATM    2  C   UNK N   1      34.898  10.039  18.450  0.00  0.00     0.084 C 
HETATM    3  C   UNK N   1      35.646   8.737  18.331  0.00  0.00     0.149 C 
HETATM    4  C   UNK N   1      36.735   8.574  17.340  0.00  0.00     0.053 C 
HETATM    5  C   UNK N   1      36.924   9.479  16.366  0.00  0.00    -0.068 C 
HETATM    6  C   UNK N   1      35.913  10.619  16.191  0.00  0.00    -0.014 C 
HETATM    7  C   UNK N   1      36.532  11.743  15.332  0.00  0.00     0.031 C 
HETATM    8  C   UNK N   1      38.126   9.292  15.445  0.00  0.00     0.035 C 
HETATM    9  C   UNK N   1      38.379  10.390  14.390  0.00  0.00     0.010 C 
HETATM   10  C   UNK N   1      37.090  11.109  14.017  0.00  0.00    -0.002 C 
HETATM   11  C   UNK N   1      34.901  13.090  13.774  0.00  0.00     0.045 C 
HETATM   12  C   UNK N   1      35.670  13.020  15.079  0.00  0.00     0.124 C 
HETATM   13  C   UNK N   1      37.208  12.217  12.966  0.00  0.00     0.002 C 
HETATM   14  C   UNK N   1      35.780  12.684  12.581  0.00  0.00     0.001 C 
HETATM   15  C   UNK N   1      36.129  13.786  11.578  0.00  0.00     0.128 C 
HETATM   16  C   UNK N   1      37.837  11.976  11.599  0.00  0.00     0.009 C 
HETATM   17  C   UNK N   1      37.185  13.064  10.702  0.00  0.00     0.047 C 
HETATM   18  O   UNK N   1      35.369   7.815  19.081  0.00  0.00    -0.293 OA
HETATM   19  C   UNK N   1      34.652  10.075  15.509  0.00  0.00     0.020 C 
HETATM   20  C   UNK N   1      34.987  11.564  11.872  0.00  0.00     0.019 C 
HETATM   21  O   UNK N   1      36.767  14.851  12.227  0.00  0.00    -0.381 OA
HETATM   22  H   UNK N   1      37.162  15.570  12.746  0.00  0.00     0.211 HD
ENDROOT
BRANCH  15  23
HETATM   23  C   UNK N   1      34.905  14.356  10.881  0.00  0.00     0.185 C 
HETATM   24  O   UNK N   1      34.032  14.880  11.556  0.00  0.00    -0.292 OA
BRANCH  23  25
HETATM   25  C   UNK N   1      34.714  14.317   9.394  0.00  0.00     0.260 C 
BRANCH  25  26
HETATM   26  O   UNK N   1      35.126  15.477   8.775  0.00  0.00    -0.312 OA
BRANCH  26  27
HETATM   27  C   UNK N   1      34.343  16.317   8.054  0.00  0.00     0.287 C 
HETATM   28  O   UNK N   1      34.768  16.866   7.043  0.00  0.00    -0.263 OA
BRANCH  27  29
HETATM   29  C   UNK N   1      32.934  16.561   8.497  0.00  0.00     0.382 C 
BRANCH  29  30
HETATM   30  N   UNK N   1      32.030  16.411   7.351  0.00  0.00     0.097 N 
BRANCH  30  31
HETATM   31  C   UNK N   1      31.727  15.004   7.055  0.00  0.00     0.268 C 
HETATM   32  C   UNK N   1      31.770  14.673   5.569  0.00  0.00     0.037 C 
ENDBRANCH  30  31
BRANCH  30  33
HETATM   33  C   UNK N   1      30.784  17.138   7.606  0.00  0.00     0.268 C 
HETATM   34  C   UNK N   1      30.905  18.147   8.749  0.00  0.00     0.037 C 
ENDBRANCH  30  33
ENDBRANCH  29  30
ENDBRANCH  27  29
ENDBRANCH  26  27
ENDBRANCH  25  26
ENDBRANCH  23  25
ENDBRANCH  15  23
BRANCH  12  35
HETATM   35  O   UNK N   1      34.910  13.446  16.168  0.00  0.00    -0.395 OA
HETATM   36  H   UNK N   1      33.982  13.727  16.137  0.00  0.00     0.210 HD
ENDBRANCH  12  35
TORSDOF 9
ENDMDL
MODEL 6
REMARK VINA RESULT:      -7.0     18.344     21.408
REMARK  9 active torsions:
REMARK  status: ('A' for Active; 'I' for Inactive)
REMARK    1  A    between atoms: C_12  and  O_21 
REMARK    2  A    between atoms: C_15  and  C_22 
REMARK    3  A    between atoms: C_22  and  C_24 
REMARK    4  A    between atoms: C_24  and  O_25 
REMARK    5  A    between atoms: O_25  and  C_26 
REMARK    6  A    between atoms: C_26  and  C_28 
REMARK    7  A    between atoms: C_28  and  N_29 
REMARK    8  A    between atoms: N_29  and  C_30 
REMARK    9  A    between atoms: N_29  and  C_32 
ROOT
HETATM    1  C   UNK N   1      32.278  22.623  -4.657  0.00  0.00     0.022 C 
HETATM    2  C   UNK N   1      33.054  21.475  -3.996  0.00  0.00     0.084 C 
HETATM    3  C   UNK N   1      32.637  20.133  -4.536  0.00  0.00     0.149 C 
HETATM    4  C   UNK N   1      31.485  20.010  -5.460  0.00  0.00     0.053 C 
HETATM    5  C   UNK N   1      30.639  21.035  -5.649  0.00  0.00    -0.068 C 
HETATM    6  C   UNK N   1      30.782  22.298  -4.791  0.00  0.00    -0.014 C 
HETATM    7  C   UNK N   1      30.018  23.468  -5.446  0.00  0.00     0.031 C 
HETATM    8  C   UNK N   1      29.535  20.864  -6.689  0.00  0.00     0.035 C 
HETATM    9  C   UNK N   1      28.628  22.083  -6.957  0.00  0.00     0.010 C 
HETATM   10  C   UNK N   1      28.557  23.000  -5.743  0.00  0.00    -0.002 C 
HETATM   11  C   UNK N   1      28.929  25.235  -3.836  0.00  0.00     0.045 C 
HETATM   12  C   UNK N   1      30.084  24.862  -4.744  0.00  0.00     0.124 C 
HETATM   13  C   UNK N   1      27.675  24.245  -5.881  0.00  0.00     0.002 C 
HETATM   14  C   UNK N   1      27.575  24.932  -4.494  0.00  0.00     0.001 C 
HETATM   15  C   UNK N   1      26.706  26.136  -4.863  0.00  0.00     0.128 C 
HETATM   16  C   UNK N   1      26.211  24.161  -6.294  0.00  0.00     0.009 C 
HETATM   17  C   UNK N   1      25.589  25.451  -5.692  0.00  0.00     0.047 C 
HETATM   18  O   UNK N   1      33.274  19.138  -4.231  0.00  0.00    -0.293 OA
HETATM   19  C   UNK N   1      30.218  22.025  -3.392  0.00  0.00     0.020 C 
HETATM   20  C   UNK N   1      26.830  24.045  -3.472  0.00  0.00     0.019 C 
HETATM   21  O   UNK N   1      27.405  26.998  -5.719  0.00  0.00    -0.381 OA
HETATM   22  H   UNK N   1      27.961  27.570  -6.270  0.00  0.00     0.211 HD
ENDROOT
BRANCH  15  23
HETATM   23  C   UNK N   1      26.285  26.953  -3.653  0.00  0.00     0.185 C 
HETATM   24  O   UNK N   1      26.192  26.395  -2.569  0.00  0.00    -0.292 OA
BRANCH  23  25
HETATM   25  C   UNK N   1      25.983  28.420  -3.716  0.00  0.00     0.260 C 
BRANCH  25  26
HETATM   26  O   UNK N   1      27.119  29.194  -3.788  0.00  0.00    -0.312 OA
BRANCH  26  27
HETATM   27  C   UNK N   1      27.975  29.451  -2.768  0.00  0.00     0.287 C 
HETATM   28  O   UNK N   1      27.596  29.417  -1.601  0.00  0.00    -0.263 OA
BRANCH  27  29
HETATM   29  C   UNK N   1      29.406  29.764  -3.076  0.00  0.00     0.382 C 
BRANCH  29  30
HETATM   30  N   UNK N   1      30.072  28.556  -3.578  0.00  0.00     0.097 N 
BRANCH  30  31
HETATM   31  C   UNK N   1      30.631  28.741  -4.924  0.00  0.00     0.268 C 
HETATM   32  C   UNK N   1      30.473  30.160  -5.456  0.00  0.00     0.037 C 
ENDBRANCH  30  31
BRANCH  30  33
HETATM   33  C   UNK N   1      31.137  28.160  -2.653  0.00  0.00     0.268 C 
HETATM   34  C   UNK N   1      31.486  29.252  -1.642  0.00  0.00     0.037 C 
ENDBRANCH  30  33
ENDBRANCH  29  30
ENDBRANCH  27  29
ENDBRANCH  26  27
ENDBRANCH  25  26
ENDBRANCH  23  25
ENDBRANCH  15  23
BRANCH  12  35
HETATM   35  O   UNK N   1      31.323  25.187  -4.193  0.00  0.00    -0.395 OA
HETATM   36  H   UNK N   1      31.744  24.741  -3.441  0.00  0.00     0.210 HD
ENDBRANCH  12  35
TORSDOF 9
ENDMDL
MODEL 7
REMARK VINA RESULT:      -7.0      3.674     10.982
REMARK  9 active torsions:
REMARK  status: ('A' for Active; 'I' for Inactive)
REMARK    1  A    between atoms: C_12  and  O_21 
REMARK    2  A    between atoms: C_15  and  C_22 
REMARK    3  A    between atoms: C_22  and  C_24 
REMARK    4  A    between atoms: C_24  and  O_25 
REMARK    5  A    between atoms: O_25  and  C_26 
REMARK    6  A    between atoms: C_26  and  C_28 
REMARK    7  A    between atoms: C_28  and  N_29 
REMARK    8  A    between atoms: N_29  and  C_30 
REMARK    9  A    between atoms: N_29  and  C_32 
ROOT
HETATM    1  C   UNK N   1      27.104  18.914   6.275  0.00  0.00     0.022 C 
HETATM    2  C   UNK N   1      26.309  20.081   5.672  0.00  0.00     0.084 C 
HETATM    3  C   UNK N   1      25.676  19.707   4.357  0.00  0.00     0.149 C 
HETATM    4  C   UNK N   1      25.982  18.411   3.709  0.00  0.00     0.053 C 
HETATM    5  C   UNK N   1      27.001  17.647   4.137  0.00  0.00    -0.068 C 
HETATM    6  C   UNK N   1      27.947  18.189   5.215  0.00  0.00    -0.014 C 
HETATM    7  C   UNK N   1      28.748  17.028   5.844  0.00  0.00     0.031 C 
HETATM    8  C   UNK N   1      27.191  16.282   3.481  0.00  0.00     0.035 C 
HETATM    9  C   UNK N   1      28.310  15.382   4.047  0.00  0.00     0.010 C 
HETATM   10  C   UNK N   1      29.414  16.207   4.692  0.00  0.00    -0.002 C 
HETATM   11  C   UNK N   1      31.195  17.558   6.635  0.00  0.00     0.045 C 
HETATM   12  C   UNK N   1      29.736  17.373   7.002  0.00  0.00     0.124 C 
HETATM   13  C   UNK N   1      30.592  15.426   5.283  0.00  0.00     0.002 C 
HETATM   14  C   UNK N   1      31.689  16.437   5.707  0.00  0.00     0.001 C 
HETATM   15  C   UNK N   1      32.723  15.470   6.287  0.00  0.00     0.128 C 
HETATM   16  C   UNK N   1      31.392  14.422   4.464  0.00  0.00     0.009 C 
HETATM   17  C   UNK N   1      32.772  14.390   5.176  0.00  0.00     0.047 C 
HETATM   18  O   UNK N   1      24.880  20.469   3.835  0.00  0.00    -0.293 OA
HETATM   19  C   UNK N   1      28.907  19.202   4.582  0.00  0.00     0.020 C 
HETATM   20  C   UNK N   1      32.288  17.172   4.488  0.00  0.00     0.019 C 
HETATM   21  O   UNK N   1      32.226  14.865   7.450  0.00  0.00    -0.381 OA
HETATM   22  H   UNK N   1      31.838  14.519   8.269  0.00  0.00     0.211 HD
ENDROOT
BRANCH  15  23
HETATM   23  C   UNK N   1      34.026  16.156   6.663  0.00  0.00     0.185 C 
HETATM   24  O   UNK N   1      34.927  16.200   5.840  0.00  0.00    -0.292 OA
BRANCH  23  25
HETATM   25  C   UNK N   1      34.263  16.794   8.000  0.00  0.00     0.260 C 
BRANCH  25  26
HETATM   26  O   UNK N   1      34.770  15.911   8.927  0.00  0.00    -0.312 OA
BRANCH  26  27
HETATM   27  C   UNK N   1      35.140  16.213  10.196  0.00  0.00     0.287 C 
HETATM   28  O   UNK N   1      35.706  17.270  10.455  0.00  0.00    -0.263 OA
BRANCH  27  29
HETATM   29  C   UNK N   1      34.835  15.243  11.295  0.00  0.00     0.382 C 
BRANCH  29  30
HETATM   30  N   UNK N   1      36.081  14.620  11.756  0.00  0.00     0.097 N 
BRANCH  30  31
HETATM   31  C   UNK N   1      35.893  13.828  12.979  0.00  0.00     0.268 C 
HETATM   32  C   UNK N   1      36.489  14.480  14.221  0.00  0.00     0.037 C 
ENDBRANCH  30  31
BRANCH  30  33
HETATM   33  C   UNK N   1      36.627  13.767  10.697  0.00  0.00     0.268 C 
HETATM   34  C   UNK N   1      37.826  12.938  11.158  0.00  0.00     0.037 C 
ENDBRANCH  30  33
ENDBRANCH  29  30
ENDBRANCH  27  29
ENDBRANCH  26  27
ENDBRANCH  25  26
ENDBRANCH  23  25
ENDBRANCH  15  23
BRANCH  12  35
HETATM   35  O   UNK N   1      29.284  18.344   7.895  0.00  0.00    -0.395 OA
HETATM   36  H   UNK N   1      28.830  18.173   8.736  0.00  0.00     0.210 HD
ENDBRANCH  12  35
TORSDOF 9
ENDMDL
MODEL 8
REMARK VINA RESULT:      -6.9     18.050     23.321
REMARK  9 active torsions:
REMARK  status: ('A' for Active; 'I' for Inactive)
REMARK    1  A    between atoms: C_12  and  O_21 
REMARK    2  A    between atoms: C_15  and  C_22 
REMARK    3  A    between atoms: C_22  and  C_24 
REMARK    4  A    between atoms: C_24  and  O_25 
REMARK    5  A    between atoms: O_25  and  C_26 
REMARK    6  A    between atoms: C_26  and  C_28 
REMARK    7  A    between atoms: C_28  and  N_29 
REMARK    8  A    between atoms: N_29  and  C_30 
REMARK    9  A    between atoms: N_29  and  C_32 
ROOT
HETATM    1  C   UNK N   1      25.478  27.233  -4.936  0.00  0.00     0.022 C 
HETATM    2  C   UNK N   1      25.559  28.061  -3.645  0.00  0.00     0.084 C 
HETATM    3  C   UNK N   1      26.462  29.256  -3.801  0.00  0.00     0.149 C 
HETATM    4  C   UNK N   1      27.275  29.438  -5.026  0.00  0.00     0.053 C 
HETATM    5  C   UNK N   1      27.421  28.441  -5.914  0.00  0.00    -0.068 C 
HETATM    6  C   UNK N   1      26.859  27.053  -5.586  0.00  0.00    -0.014 C 
HETATM    7  C   UNK N   1      26.757  26.209  -6.874  0.00  0.00     0.031 C 
HETATM    8  C   UNK N   1      28.193  28.738  -7.196  0.00  0.00     0.035 C 
HETATM    9  C   UNK N   1      28.273  27.608  -8.244  0.00  0.00     0.010 C 
HETATM   10  C   UNK N   1      28.145  26.237  -7.594  0.00  0.00    -0.002 C 
HETATM   11  C   UNK N   1      27.138  23.621  -6.639  0.00  0.00     0.045 C 
HETATM   12  C   UNK N   1      26.159  24.772  -6.755  0.00  0.00     0.124 C 
HETATM   13  C   UNK N   1      28.221  25.028  -8.531  0.00  0.00     0.002 C 
HETATM   14  C   UNK N   1      28.271  23.740  -7.669  0.00  0.00     0.001 C 
HETATM   15  C   UNK N   1      28.305  22.687  -8.778  0.00  0.00     0.128 C 
HETATM   16  C   UNK N   1      29.390  24.812  -9.484  0.00  0.00     0.009 C 
HETATM   17  C   UNK N   1      29.394  23.276  -9.711  0.00  0.00     0.047 C 
HETATM   18  O   UNK N   1      26.501  30.099  -2.920  0.00  0.00    -0.293 OA
HETATM   19  C   UNK N   1      27.782  26.359  -4.578  0.00  0.00     0.020 C 
HETATM   20  C   UNK N   1      29.570  23.663  -6.836  0.00  0.00     0.019 C 
HETATM   21  O   UNK N   1      27.094  22.683  -9.484  0.00  0.00    -0.381 OA
HETATM   22  H   UNK N   1      26.218  22.703  -9.899  0.00  0.00     0.211 HD
ENDROOT
BRANCH  15  23
HETATM   23  C   UNK N   1      28.517  21.278  -8.248  0.00  0.00     0.185 C 
HETATM   24  O   UNK N   1      27.553  20.654  -7.832  0.00  0.00    -0.292 OA
BRANCH  23  25
HETATM   25  C   UNK N   1      29.857  20.606  -8.214  0.00  0.00     0.260 C 
BRANCH  25  26
HETATM   26  O   UNK N   1      30.190  20.148  -6.959  0.00  0.00    -0.312 OA
BRANCH  26  27
HETATM   27  C   UNK N   1      31.444  20.059  -6.449  0.00  0.00     0.287 C 
HETATM   28  O   UNK N   1      32.423  19.992  -7.185  0.00  0.00    -0.263 OA
BRANCH  27  29
HETATM   29  C   UNK N   1      31.629  20.061  -4.963  0.00  0.00     0.382 C 
BRANCH  29  30
HETATM   30  N   UNK N   1      31.434  21.421  -4.449  0.00  0.00     0.097 N 
BRANCH  30  31
HETATM   31  C   UNK N   1      30.406  21.484  -3.401  0.00  0.00     0.268 C 
HETATM   32  C   UNK N   1      30.163  22.892  -2.873  0.00  0.00     0.037 C 
ENDBRANCH  30  31
BRANCH  30  33
HETATM   33  C   UNK N   1      32.702  21.936  -3.925  0.00  0.00     0.268 C 
HETATM   34  C   UNK N   1      33.418  20.941  -3.011  0.00  0.00     0.037 C 
ENDBRANCH  30  33
ENDBRANCH  29  30
ENDBRANCH  27  29
ENDBRANCH  26  27
ENDBRANCH  25  26
ENDBRANCH  23  25
ENDBRANCH  15  23
BRANCH  12  35
HETATM   35  O   UNK N   1      25.086  24.650  -5.872  0.00  0.00    -0.395 OA
HETATM   36  H   UNK N   1      24.549  23.853  -5.738  0.00  0.00     0.210 HD
ENDBRANCH  12  35
TORSDOF 9
ENDMDL
MODEL 9
REMARK VINA RESULT:      -6.9      4.054      6.210
REMARK  9 active torsions:
REMARK  status: ('A' for Active; 'I' for Inactive)
REMARK    1  A    between atoms: C_12  and  O_21 
REMARK    2  A    between atoms: C_15  and  C_22 
REMARK    3  A    between atoms: C_22  and  C_24 
REMARK    4  A    between atoms: C_24  and  O_25 
REMARK    5  A    between atoms: O_25  and  C_26 
REMARK    6  A    between atoms: C_26  and  C_28 
REMARK    7  A    between atoms: C_28  and  N_29 
REMARK    8  A    between atoms: N_29  and  C_30 
REMARK    9  A    between atoms: N_29  and  C_32 
ROOT
HETATM    1  C   UNK N   1      34.605  11.422  10.267  0.00  0.00     0.022 C 
HETATM    2  C   UNK N   1      35.516  10.192  10.142  0.00  0.00     0.084 C 
HETATM    3  C   UNK N   1      36.948  10.521  10.473  0.00  0.00     0.149 C 
HETATM    4  C   UNK N   1      37.372  11.921  10.705  0.00  0.00     0.053 C 
HETATM    5  C   UNK N   1      36.566  12.948  10.392  0.00  0.00    -0.068 C 
HETATM    6  C   UNK N   1      35.249  12.675   9.654  0.00  0.00    -0.014 C 
HETATM    7  C   UNK N   1      34.313  13.896   9.779  0.00  0.00     0.031 C 
HETATM    8  C   UNK N   1      37.034  14.355  10.751  0.00  0.00     0.035 C 
HETATM    9  C   UNK N   1      36.056  15.515  10.467  0.00  0.00     0.010 C 
HETATM   10  C   UNK N   1      35.101  15.170   9.332  0.00  0.00    -0.002 C 
HETATM   11  C   UNK N   1      32.722  14.392   7.749  0.00  0.00     0.045 C 
HETATM   12  C   UNK N   1      32.897  13.793   9.130  0.00  0.00     0.124 C 
HETATM   13  C   UNK N   1      34.084  16.249   8.946  0.00  0.00     0.002 C 
HETATM   14  C   UNK N   1      33.348  15.793   7.660  0.00  0.00     0.001 C 
HETATM   15  C   UNK N   1      32.384  16.967   7.482  0.00  0.00     0.128 C 
HETATM   16  C   UNK N   1      34.505  17.666   8.579  0.00  0.00     0.009 C 
HETATM   17  C   UNK N   1      33.343  18.169   7.679  0.00  0.00     0.047 C 
HETATM   18  O   UNK N   1      37.762   9.618  10.579  0.00  0.00    -0.293 OA
HETATM   19  C   UNK N   1      35.547  12.394   8.177  0.00  0.00     0.020 C 
HETATM   20  C   UNK N   1      34.308  15.718   6.451  0.00  0.00     0.019 C 
HETATM   21  O   UNK N   1      31.448  16.991   8.525  0.00  0.00    -0.381 OA
HETATM   22  H   UNK N   1      30.807  16.921   9.250  0.00  0.00     0.211 HD
ENDROOT
BRANCH  15  23
HETATM   23  C   UNK N   1      31.601  16.895   6.182  0.00  0.00     0.185 C 
HETATM   24  O   UNK N   1      32.012  17.513   5.211  0.00  0.00    -0.292 OA
BRANCH  23  25
HETATM   25  C   UNK N   1      30.343  16.094   6.023  0.00  0.00     0.260 C 
BRANCH  25  26
HETATM   26  O   UNK N   1      29.292  16.606   6.749  0.00  0.00    -0.312 OA
BRANCH  26  27
HETATM   27  C   UNK N   1      28.843  17.885   6.710  0.00  0.00     0.287 C 
HETATM   28  O   UNK N   1      28.867  18.595   7.710  0.00  0.00    -0.263 OA
BRANCH  27  29
HETATM   29  C   UNK N   1      28.327  18.438   5.417  0.00  0.00     0.382 C 
BRANCH  29  30
HETATM   30  N   UNK N   1      27.043  19.107   5.651  0.00  0.00     0.097 N 
BRANCH  30  31
HETATM   31  C   UNK N   1      27.044  20.502   5.189  0.00  0.00     0.268 C 
HETATM   32  C   UNK N   1      27.316  21.508   6.300  0.00  0.00     0.037 C 
ENDBRANCH  30  31
BRANCH  30  33
HETATM   33  C   UNK N   1      25.971  18.367   4.978  0.00  0.00     0.268 C 
HETATM   34  C   UNK N   1      26.398  17.799   3.625  0.00  0.00     0.037 C 
ENDBRANCH  30  33
ENDBRANCH  29  30
ENDBRANCH  27  29
ENDBRANCH  26  27
ENDBRANCH  25  26
ENDBRANCH  23  25
ENDBRANCH  15  23
BRANCH  12  35
HETATM   35  O   UNK N   1      32.280  12.549   9.253  0.00  0.00    -0.395 OA
HETATM   36  H   UNK N   1      31.794  12.085   8.552  0.00  0.00     0.210 HD
ENDBRANCH  12  35
TORSDOF 9
ENDMDL
