REMARK  28 active torsions:
REMARK  status: ('A' for Active; 'I' for Inactive)
REMARK    1  A    between atoms: S_1  and  C_76 
REMARK    2  A    between atoms: S_2  and  C_77 
REMARK    3  A    between atoms: O_3  and  C_37 
REMARK    4  A    between atoms: O_4  and  C_38 
REMARK    5  A    between atoms: O_5  and  C_41 
REMARK    6  A    between atoms: O_6  and  C_42 
REMARK    7  A    between atoms: O_7  and  C_55 
REMARK    8  A    between atoms: O_8  and  C_56 
REMARK    9  A    between atoms: O_9  and  C_57 
REMARK   10  A    between atoms: O_10  and  C_58 
REMARK   11  A    between atoms: O_11  and  C_59 
REMARK   12  A    between atoms: O_11  and  C_67 
REMARK   13  A    between atoms: O_12  and  C_60 
REMARK   14  A    between atoms: O_12  and  C_68 
REMARK   15  A    between atoms: N_21  and  C_43 
REMARK   16  A    between atoms: N_22  and  C_44 
REMARK   17  A    between atoms: C_23  and  C_35 
REMARK   18  A    between atoms: C_24  and  C_36 
REMARK   19  A    between atoms: C_35  and  C_45 
REMARK   20  A    between atoms: C_36  and  C_46 
REMARK   21  A    between atoms: C_43  and  C_49 
REMARK   22  A    between atoms: C_44  and  C_50 
REMARK   23  A    between atoms: C_49  and  C_59 
REMARK   24  A    between atoms: C_50  and  C_60 
REMARK   25  A    between atoms: C_67  and  C_73 
REMARK   26  A    between atoms: C_68  and  C_74 
REMARK   27  A    between atoms: C_73  and  C_75 
REMARK   28  A    between atoms: C_74  and  C_75 
ROOT
HETATM    1  C   UNK N   1      -8.331  -3.067  -0.048  0.00  0.00     0.080 A 
HETATM    2  C   UNK N   1      -7.096  -3.626   0.294  0.00  0.00     0.026 A 
HETATM    3  C   UNK N   1      -9.357  -3.880  -0.539  0.00  0.00     0.026 A 
HETATM    4  C   UNK N   1      -6.889  -5.000   0.151  0.00  0.00     0.002 A 
HETATM    5  C   UNK N   1      -9.150  -5.254  -0.682  0.00  0.00     0.002 A 
HETATM    6  C   UNK N   1      -7.916  -5.814  -0.339  0.00  0.00     0.000 A 
ENDROOT
BRANCH   1   7
HETATM    7  S   UNK N   1      -8.574  -1.310   0.099  0.00  0.00     0.137 S 
HETATM    8  O   UNK N   1      -8.364  -0.543   1.621  0.00  0.00    -0.591 OA
HETATM    9  O   UNK N   1      -9.961  -0.874  -0.395  0.00  0.00    -0.591 OA
HETATM   10  O   UNK N   1      -7.657  -0.567  -0.882  0.00  0.00    -0.591 OA
ENDBRANCH   1   7
TORSDOF 28
