MODEL 1
REMARK VINA RESULT:      -6.3      0.000      0.000
REMARK  8 active torsions:
REMARK  status: ('A' for Active; 'I' for Inactive)
REMARK    1  A    between atoms: C_2  and  C_7 
REMARK    2  A    between atoms: C_6  and  N_14 
REMARK    3  A    between atoms: C_7  and  C_8 
REMARK    4  A    between atoms: C_7  and  O_9 
REMARK    5  A    between atoms: C_8  and  N_10 
REMARK    6  A    between atoms: C_8  and  C_11 
REMARK       I    between atoms: N_10  and  C_12 
REMARK    7  A    between atoms: C_11  and  O_13 
REMARK    8  A    between atoms: C_12  and  C_15 
ROOT
HETATM    1  C   UNK N   1      30.325  16.792   5.294  0.00  0.00     0.176 C 
ENDROOT
BRANCH   1   2
HETATM    2  C   UNK N   1      31.522  17.141   6.156  0.00  0.00    -0.028 A 
HETATM    3  C   UNK N   1      32.817  17.260   5.629  0.00  0.00     0.012 A 
HETATM    4  C   UNK N   1      33.886  17.633   6.445  0.00  0.00     0.037 A 
HETATM    5  C   UNK N   1      33.683  17.878   7.811  0.00  0.00     0.102 A 
HETATM    6  C   UNK N   1      32.394  17.741   8.345  0.00  0.00     0.037 A 
HETATM    7  C   UNK N   1      31.321  17.388   7.521  0.00  0.00     0.012 A 
BRANCH   5   8
HETATM    8  N   UNK N   1      34.768  18.266   8.644  0.00  0.00    -0.116 N 
HETATM    9  O   UNK N   1      35.147  17.496   9.641  0.00  0.00    -0.532 OA
HETATM   10  O   UNK N   1      35.334  19.301   8.454  0.00  0.00    -0.532 OA
ENDBRANCH   5   8
ENDBRANCH   1   2
BRANCH   1  11
HETATM   11  C   UNK N   1      28.933  16.793   5.957  0.00  0.00     0.141 C 
BRANCH  11  12
HETATM   12  N   UNK N   1      28.189  17.931   5.458  0.00  0.00    -0.349 N 
HETATM   13  C   UNK N   1      27.811  18.976   6.237  0.00  0.00     0.251 C 
HETATM   14  O   UNK N   1      28.118  19.011   7.420  0.00  0.00    -0.271 OA
HETATM   15  H   UNK N   1      27.947  17.948   4.504  0.00  0.00     0.163 HD
BRANCH  13  16
HETATM   16  C   UNK N   1      27.000  20.086   5.627  0.00  0.00     0.269 C 
HETATM   17 Cl   UNK N   1      27.256  20.147   3.865  0.00  0.00    -0.098 Cl
HETATM   18 Cl   UNK N   1      27.376  21.686   6.328  0.00  0.00    -0.098 Cl
ENDBRANCH  13  16
ENDBRANCH  11  12
BRANCH  11  19
HETATM   19  C   UNK N   1      28.140  15.521   5.680  0.00  0.00     0.192 C 
BRANCH  19  20
HETATM   20  O   UNK N   1      28.194  15.234   4.315  0.00  0.00    -0.399 OA
HETATM   21  H   UNK N   1      27.857  15.681   3.523  0.00  0.00     0.209 HD
ENDBRANCH  19  20
ENDBRANCH  11  19
ENDBRANCH   1  11
BRANCH   1  22
HETATM   22  O   UNK N   1      30.291  17.643   4.186  0.00  0.00    -0.389 OA
HETATM   23  H   UNK N   1      30.985  18.005   3.613  0.00  0.00     0.210 HD
ENDBRANCH   1  22
TORSDOF 8
ENDMDL
MODEL 2
REMARK VINA RESULT:      -6.0      7.238      9.905
REMARK  8 active torsions:
REMARK  status: ('A' for Active; 'I' for Inactive)
REMARK    1  A    between atoms: C_2  and  C_7 
REMARK    2  A    between atoms: C_6  and  N_14 
REMARK    3  A    between atoms: C_7  and  C_8 
REMARK    4  A    between atoms: C_7  and  O_9 
REMARK    5  A    between atoms: C_8  and  N_10 
REMARK    6  A    between atoms: C_8  and  C_11 
REMARK       I    between atoms: N_10  and  C_12 
REMARK    7  A    between atoms: C_11  and  O_13 
REMARK    8  A    between atoms: C_12  and  C_15 
ROOT
HETATM    1  C   UNK N   1      35.291  13.524  11.472  0.00  0.00     0.176 C 
ENDROOT
BRANCH   1   2
HETATM    2  C   UNK N   1      35.180  14.713  10.540  0.00  0.00    -0.028 A 
HETATM    3  C   UNK N   1      34.891  14.571   9.174  0.00  0.00     0.012 A 
HETATM    4  C   UNK N   1      34.747  15.693   8.356  0.00  0.00     0.037 A 
HETATM    5  C   UNK N   1      34.906  16.982   8.888  0.00  0.00     0.102 A 
HETATM    6  C   UNK N   1      35.213  17.127  10.247  0.00  0.00     0.037 A 
HETATM    7  C   UNK N   1      35.337  16.002  11.068  0.00  0.00     0.012 A 
BRANCH   5   8
HETATM    8  N   UNK N   1      34.751  18.128   8.060  0.00  0.00    -0.116 N 
HETATM    9  O   UNK N   1      34.307  18.001   6.828  0.00  0.00    -0.532 OA
HETATM   10  O   UNK N   1      35.037  19.213   8.472  0.00  0.00    -0.532 OA
ENDBRANCH   5   8
ENDBRANCH   1   2
BRANCH   1  11
HETATM   11  C   UNK N   1      36.587  13.369  12.293  0.00  0.00     0.141 C 
BRANCH  11  12
HETATM   12  N   UNK N   1      36.260  12.723  13.548  0.00  0.00    -0.349 N 
HETATM   13  C   UNK N   1      36.415  13.319  14.757  0.00  0.00     0.251 C 
HETATM   14  O   UNK N   1      36.822  14.469  14.835  0.00  0.00    -0.271 OA
HETATM   15  H   UNK N   1      35.906  11.805  13.521  0.00  0.00     0.163 HD
BRANCH  13  16
HETATM   16  C   UNK N   1      36.089  12.541  16.002  0.00  0.00     0.269 C 
HETATM   17 Cl   UNK N   1      35.063  11.138  15.606  0.00  0.00    -0.098 Cl
HETATM   18 Cl   UNK N   1      35.271  13.531  17.245  0.00  0.00    -0.098 Cl
ENDBRANCH  13  16
ENDBRANCH  11  12
BRANCH  11  19
HETATM   19  C   UNK N   1      37.653  12.548  11.575  0.00  0.00     0.192 C 
BRANCH  19  20
HETATM   20  O   UNK N   1      38.589  13.411  11.004  0.00  0.00    -0.399 OA
HETATM   21  H   UNK N   1      39.088  14.173  11.338  0.00  0.00     0.209 HD
ENDBRANCH  19  20
ENDBRANCH  11  19
ENDBRANCH   1  11
BRANCH   1  22
HETATM   22  O   UNK N   1      34.205  13.525  12.352  0.00  0.00    -0.389 OA
HETATM   23  H   UNK N   1      33.861  12.864  12.974  0.00  0.00     0.210 HD
ENDBRANCH   1  22
TORSDOF 8
ENDMDL
MODEL 3
REMARK VINA RESULT:      -6.0     12.227     13.766
REMARK  8 active torsions:
REMARK  status: ('A' for Active; 'I' for Inactive)
REMARK    1  A    between atoms: C_2  and  C_7 
REMARK    2  A    between atoms: C_6  and  N_14 
REMARK    3  A    between atoms: C_7  and  C_8 
REMARK    4  A    between atoms: C_7  and  O_9 
REMARK    5  A    between atoms: C_8  and  N_10 
REMARK    6  A    between atoms: C_8  and  C_11 
REMARK       I    between atoms: N_10  and  C_12 
REMARK    7  A    between atoms: C_11  and  O_13 
REMARK    8  A    between atoms: C_12  and  C_15 
ROOT
HETATM    1  C   UNK N   1      27.972  22.461  -7.392  0.00  0.00     0.176 C 
ENDROOT
BRANCH   1   2
HETATM    2  C   UNK N   1      28.753  22.507  -6.095  0.00  0.00    -0.028 A 
HETATM    3  C   UNK N   1      28.537  23.496  -5.123  0.00  0.00     0.012 A 
HETATM    4  C   UNK N   1      29.241  23.476  -3.918  0.00  0.00     0.037 A 
HETATM    5  C   UNK N   1      30.190  22.474  -3.669  0.00  0.00     0.102 A 
HETATM    6  C   UNK N   1      30.423  21.496  -4.645  0.00  0.00     0.037 A 
HETATM    7  C   UNK N   1      29.702  21.506  -5.843  0.00  0.00     0.012 A 
BRANCH   5   8
HETATM    8  N   UNK N   1      30.903  22.445  -2.439  0.00  0.00    -0.116 N 
HETATM    9  O   UNK N   1      32.027  21.768  -2.340  0.00  0.00    -0.532 OA
HETATM   10  O   UNK N   1      30.481  23.024  -1.482  0.00  0.00    -0.532 OA
ENDBRANCH   5   8
ENDBRANCH   1   2
BRANCH   1  11
HETATM   11  C   UNK N   1      26.470  22.807  -7.344  0.00  0.00     0.141 C 
BRANCH  11  12
HETATM   12  N   UNK N   1      26.325  24.240  -7.498  0.00  0.00    -0.349 N 
HETATM   13  C   UNK N   1      25.677  25.026  -6.602  0.00  0.00     0.251 C 
HETATM   14  O   UNK N   1      25.199  24.544  -5.584  0.00  0.00    -0.271 OA
HETATM   15  H   UNK N   1      26.720  24.666  -8.293  0.00  0.00     0.163 HD
BRANCH  13  16
HETATM   16  C   UNK N   1      25.543  26.498  -6.882  0.00  0.00     0.269 C 
HETATM   17 Cl   UNK N   1      27.150  27.266  -6.944  0.00  0.00    -0.098 Cl
HETATM   18 Cl   UNK N   1      24.536  27.346  -5.675  0.00  0.00    -0.098 Cl
ENDBRANCH  13  16
ENDBRANCH  11  12
BRANCH  11  19
HETATM   19  C   UNK N   1      25.661  22.107  -8.430  0.00  0.00     0.192 C 
BRANCH  19  20
HETATM   20  O   UNK N   1      24.301  22.262  -8.162  0.00  0.00    -0.399 OA
HETATM   21  H   UNK N   1      23.536  22.514  -8.703  0.00  0.00     0.209 HD
ENDBRANCH  19  20
ENDBRANCH  11  19
ENDBRANCH   1  11
BRANCH   1  22
HETATM   22  O   UNK N   1      28.589  23.290  -8.332  0.00  0.00    -0.389 OA
HETATM   23  H   UNK N   1      28.590  24.252  -8.462  0.00  0.00     0.210 HD
ENDBRANCH   1  22
TORSDOF 8
ENDMDL
MODEL 4
REMARK VINA RESULT:      -5.9     10.262     11.480
REMARK  8 active torsions:
REMARK  status: ('A' for Active; 'I' for Inactive)
REMARK    1  A    between atoms: C_2  and  C_7 
REMARK    2  A    between atoms: C_6  and  N_14 
REMARK    3  A    between atoms: C_7  and  C_8 
REMARK    4  A    between atoms: C_7  and  O_9 
REMARK    5  A    between atoms: C_8  and  N_10 
REMARK    6  A    between atoms: C_8  and  C_11 
REMARK       I    between atoms: N_10  and  C_12 
REMARK    7  A    between atoms: C_11  and  O_13 
REMARK    8  A    between atoms: C_12  and  C_15 
ROOT
HETATM    1  C   UNK N   1      19.694  16.012   4.729  0.00  0.00     0.176 C 
ENDROOT
BRANCH   1   2
HETATM    2  C   UNK N   1      20.183  17.281   4.062  0.00  0.00    -0.028 A 
HETATM    3  C   UNK N   1      19.421  17.966   3.103  0.00  0.00     0.012 A 
HETATM    4  C   UNK N   1      19.883  19.161   2.547  0.00  0.00     0.037 A 
HETATM    5  C   UNK N   1      21.128  19.684   2.929  0.00  0.00     0.102 A 
HETATM    6  C   UNK N   1      21.900  18.992   3.871  0.00  0.00     0.037 A 
HETATM    7  C   UNK N   1      21.426  17.807   4.441  0.00  0.00     0.012 A 
BRANCH   5   8
HETATM    8  N   UNK N   1      21.599  20.905   2.371  0.00  0.00    -0.116 N 
HETATM    9  O   UNK N   1      20.927  21.496   1.406  0.00  0.00    -0.532 OA
HETATM   10  O   UNK N   1      22.615  21.395   2.765  0.00  0.00    -0.532 OA
ENDBRANCH   5   8
ENDBRANCH   1   2
BRANCH   1  11
HETATM   11  C   UNK N   1      20.398  15.558   6.023  0.00  0.00     0.141 C 
BRANCH  11  12
HETATM   12  N   UNK N   1      19.577  15.947   7.152  0.00  0.00    -0.349 N 
HETATM   13  C   UNK N   1      19.867  16.998   7.959  0.00  0.00     0.251 C 
HETATM   14  O   UNK N   1      20.847  17.697   7.741  0.00  0.00    -0.271 OA
HETATM   15  H   UNK N   1      18.767  15.421   7.341  0.00  0.00     0.163 HD
BRANCH  13  16
HETATM   16  C   UNK N   1      18.972  17.287   9.133  0.00  0.00     0.269 C 
HETATM   17 Cl   UNK N   1      17.260  17.185   8.647  0.00  0.00    -0.098 Cl
HETATM   18 Cl   UNK N   1      19.278  18.889   9.862  0.00  0.00    -0.098 Cl
ENDBRANCH  13  16
ENDBRANCH  11  12
BRANCH  11  19
HETATM   19  C   UNK N   1      20.636  14.053   6.077  0.00  0.00     0.192 C 
BRANCH  19  20
HETATM   20  O   UNK N   1      20.312  13.582   7.350  0.00  0.00    -0.399 OA
HETATM   21  H   UNK N   1      19.856  12.790   7.675  0.00  0.00     0.209 HD
ENDBRANCH  19  20
ENDBRANCH  11  19
ENDBRANCH   1  11
BRANCH   1  22
HETATM   22  O   UNK N   1      18.324  16.123   4.983  0.00  0.00    -0.389 OA
HETATM   23  H   UNK N   1      17.713  15.607   5.533  0.00  0.00     0.210 HD
ENDBRANCH   1  22
TORSDOF 8
ENDMDL
MODEL 5
REMARK VINA RESULT:      -5.8      4.441      7.518
REMARK  8 active torsions:
REMARK  status: ('A' for Active; 'I' for Inactive)
REMARK    1  A    between atoms: C_2  and  C_7 
REMARK    2  A    between atoms: C_6  and  N_14 
REMARK    3  A    between atoms: C_7  and  C_8 
REMARK    4  A    between atoms: C_7  and  O_9 
REMARK    5  A    between atoms: C_8  and  N_10 
REMARK    6  A    between atoms: C_8  and  C_11 
REMARK       I    between atoms: N_10  and  C_12 
REMARK    7  A    between atoms: C_11  and  O_13 
REMARK    8  A    between atoms: C_12  and  C_15 
ROOT
HETATM    1  C   UNK N   1      32.067  16.134   8.610  0.00  0.00     0.176 C 
ENDROOT
BRANCH   1   2
HETATM    2  C   UNK N   1      30.869  16.927   8.130  0.00  0.00    -0.028 A 
HETATM    3  C   UNK N   1      30.264  17.921   8.915  0.00  0.00     0.012 A 
HETATM    4  C   UNK N   1      29.192  18.665   8.419  0.00  0.00     0.037 A 
HETATM    5  C   UNK N   1      28.693  18.417   7.132  0.00  0.00     0.102 A 
HETATM    6  C   UNK N   1      29.281  17.412   6.353  0.00  0.00     0.037 A 
HETATM    7  C   UNK N   1      30.368  16.682   6.844  0.00  0.00     0.012 A 
BRANCH   5   8
HETATM    8  N   UNK N   1      27.607  19.179   6.619  0.00  0.00    -0.116 N 
HETATM    9  O   UNK N   1      26.864  18.702   5.643  0.00  0.00    -0.532 OA
HETATM   10  O   UNK N   1      27.369  20.264   7.062  0.00  0.00    -0.532 OA
ENDBRANCH   5   8
ENDBRANCH   1   2
BRANCH   1  11
HETATM   11  C   UNK N   1      33.425  16.860   8.699  0.00  0.00     0.141 C 
BRANCH  11  12
HETATM   12  N   UNK N   1      34.370  15.984   9.360  0.00  0.00    -0.349 N 
HETATM   13  C   UNK N   1      35.375  16.432  10.154  0.00  0.00     0.251 C 
HETATM   14  O   UNK N   1      35.508  17.628  10.371  0.00  0.00    -0.271 OA
HETATM   15  H   UNK N   1      34.277  15.013   9.227  0.00  0.00     0.163 HD
BRANCH  13  16
HETATM   16  C   UNK N   1      36.330  15.438  10.755  0.00  0.00     0.269 C 
HETATM   17 Cl   UNK N   1      36.290  13.908   9.842  0.00  0.00    -0.098 Cl
HETATM   18 Cl   UNK N   1      35.990  15.101  12.476  0.00  0.00    -0.098 Cl
ENDBRANCH  13  16
ENDBRANCH  11  12
BRANCH  11  19
HETATM   19  C   UNK N   1      33.982  17.253   7.335  0.00  0.00     0.192 C 
BRANCH  19  20
HETATM   20  O   UNK N   1      34.709  18.438   7.460  0.00  0.00    -0.399 OA
HETATM   21  H   UNK N   1      35.652  18.635   7.577  0.00  0.00     0.209 HD
ENDBRANCH  19  20
ENDBRANCH  11  19
ENDBRANCH   1  11
BRANCH   1  22
HETATM   22  O   UNK N   1      31.780  15.573   9.857  0.00  0.00    -0.389 OA
HETATM   23  H   UNK N   1      32.311  15.445  10.659  0.00  0.00     0.210 HD
ENDBRANCH   1  22
TORSDOF 8
ENDMDL
MODEL 6
REMARK VINA RESULT:      -5.5     11.040     13.456
REMARK  8 active torsions:
REMARK  status: ('A' for Active; 'I' for Inactive)
REMARK    1  A    between atoms: C_2  and  C_7 
REMARK    2  A    between atoms: C_6  and  N_14 
REMARK    3  A    between atoms: C_7  and  C_8 
REMARK    4  A    between atoms: C_7  and  O_9 
REMARK    5  A    between atoms: C_8  and  N_10 
REMARK    6  A    between atoms: C_8  and  C_11 
REMARK       I    between atoms: N_10  and  C_12 
REMARK    7  A    between atoms: C_11  and  O_13 
REMARK    8  A    between atoms: C_12  and  C_15 
ROOT
HETATM    1  C   UNK N   1      29.669  22.608  -2.364  0.00  0.00     0.176 C 
ENDROOT
BRANCH   1   2
HETATM    2  C   UNK N   1      28.962  23.765  -3.041  0.00  0.00    -0.028 A 
HETATM    3  C   UNK N   1      29.660  24.785  -3.704  0.00  0.00     0.012 A 
HETATM    4  C   UNK N   1      28.973  25.809  -4.360  0.00  0.00     0.037 A 
HETATM    5  C   UNK N   1      27.570  25.840  -4.348  0.00  0.00     0.102 A 
HETATM    6  C   UNK N   1      26.870  24.833  -3.670  0.00  0.00     0.037 A 
HETATM    7  C   UNK N   1      27.561  23.798  -3.032  0.00  0.00     0.012 A 
BRANCH   5   8
HETATM    8  N   UNK N   1      26.866  26.876  -5.021  0.00  0.00    -0.116 N 
HETATM    9  O   UNK N   1      25.670  27.240  -4.610  0.00  0.00    -0.532 OA
HETATM   10  O   UNK N   1      27.348  27.413  -5.974  0.00  0.00    -0.532 OA
ENDBRANCH   5   8
ENDBRANCH   1   2
BRANCH   1  11
HETATM   11  C   UNK N   1      30.520  21.668  -3.242  0.00  0.00     0.141 C 
BRANCH  11  12
HETATM   12  N   UNK N   1      30.047  21.764  -4.608  0.00  0.00    -0.349 N 
HETATM   13  C   UNK N   1      30.364  20.865  -5.573  0.00  0.00     0.251 C 
HETATM   14  O   UNK N   1      31.059  19.893  -5.312  0.00  0.00    -0.271 OA
HETATM   15  H   UNK N   1      29.465  22.521  -4.847  0.00  0.00     0.163 HD
BRANCH  13  16
HETATM   16  C   UNK N   1      29.858  21.085  -6.972  0.00  0.00     0.269 C 
HETATM   17 Cl   UNK N   1      28.669  22.412  -7.000  0.00  0.00    -0.098 Cl
HETATM   18 Cl   UNK N   1      29.118  19.621  -7.680  0.00  0.00    -0.098 Cl
ENDBRANCH  13  16
ENDBRANCH  11  12
BRANCH  11  19
HETATM   19  C   UNK N   1      32.007  22.003  -3.206  0.00  0.00     0.192 C 
BRANCH  19  20
HETATM   20  O   UNK N   1      32.612  21.294  -2.168  0.00  0.00    -0.399 OA
HETATM   21  H   UNK N   1      33.532  21.058  -1.965  0.00  0.00     0.209 HD
ENDBRANCH  19  20
ENDBRANCH  11  19
ENDBRANCH   1  11
BRANCH   1  22
HETATM   22  O   UNK N   1      30.470  23.098  -1.330  0.00  0.00    -0.389 OA
HETATM   23  H   UNK N   1      30.691  22.756  -0.450  0.00  0.00     0.210 HD
ENDBRANCH   1  22
TORSDOF 8
ENDMDL
MODEL 7
REMARK VINA RESULT:      -5.5      2.375      3.586
REMARK  8 active torsions:
REMARK  status: ('A' for Active; 'I' for Inactive)
REMARK    1  A    between atoms: C_2  and  C_7 
REMARK    2  A    between atoms: C_6  and  N_14 
REMARK    3  A    between atoms: C_7  and  C_8 
REMARK    4  A    between atoms: C_7  and  O_9 
REMARK    5  A    between atoms: C_8  and  N_10 
REMARK    6  A    between atoms: C_8  and  C_11 
REMARK       I    between atoms: N_10  and  C_12 
REMARK    7  A    between atoms: C_11  and  O_13 
REMARK    8  A    between atoms: C_12  and  C_15 
ROOT
HETATM    1  C   UNK N   1      28.309  18.634   7.729  0.00  0.00     0.176 C 
ENDROOT
BRANCH   1   2
HETATM    2  C   UNK N   1      29.718  18.097   7.586  0.00  0.00    -0.028 A 
HETATM    3  C   UNK N   1      30.149  17.419   6.436  0.00  0.00     0.012 A 
HETATM    4  C   UNK N   1      31.471  16.982   6.319  0.00  0.00     0.037 A 
HETATM    5  C   UNK N   1      32.383  17.201   7.362  0.00  0.00     0.102 A 
HETATM    6  C   UNK N   1      31.950  17.860   8.521  0.00  0.00     0.037 A 
HETATM    7  C   UNK N   1      30.632  18.314   8.626  0.00  0.00     0.012 A 
BRANCH   5   8
HETATM    8  N   UNK N   1      33.731  16.766   7.245  0.00  0.00    -0.116 N 
HETATM    9  O   UNK N   1      34.638  17.554   6.708  0.00  0.00    -0.532 OA
HETATM   10  O   UNK N   1      34.048  15.676   7.620  0.00  0.00    -0.532 OA
ENDBRANCH   5   8
ENDBRANCH   1   2
BRANCH   1  11
HETATM   11  C   UNK N   1      27.667  19.315   6.503  0.00  0.00     0.141 C 
BRANCH  11  12
HETATM   12  N   UNK N   1      26.670  18.421   5.952  0.00  0.00    -0.349 N 
HETATM   13  C   UNK N   1      26.699  17.966   4.674  0.00  0.00     0.251 C 
HETATM   14  O   UNK N   1      27.613  18.281   3.924  0.00  0.00    -0.271 OA
HETATM   15  H   UNK N   1      25.934  18.127   6.536  0.00  0.00     0.163 HD
BRANCH  13  16
HETATM   16  C   UNK N   1      25.588  17.077   4.188  0.00  0.00     0.269 C 
HETATM   17 Cl   UNK N   1      26.057  16.268   2.672  0.00  0.00    -0.098 Cl
HETATM   18 Cl   UNK N   1      24.056  17.961   3.930  0.00  0.00    -0.098 Cl
ENDBRANCH  13  16
ENDBRANCH  11  12
BRANCH  11  19
HETATM   19  C   UNK N   1      27.008  20.648   6.839  0.00  0.00     0.192 C 
BRANCH  19  20
HETATM   20  O   UNK N   1      26.340  20.536   8.059  0.00  0.00    -0.399 OA
HETATM   21  H   UNK N   1      26.411  21.004   8.907  0.00  0.00     0.209 HD
ENDBRANCH  19  20
ENDBRANCH  11  19
ENDBRANCH   1  11
BRANCH   1  22
HETATM   22  O   UNK N   1      27.465  17.606   8.159  0.00  0.00    -0.389 OA
HETATM   23  H   UNK N   1      26.544  17.594   8.464  0.00  0.00     0.210 HD
ENDBRANCH   1  22
TORSDOF 8
ENDMDL
MODEL 8
REMARK VINA RESULT:      -5.5     10.071     11.482
REMARK  8 active torsions:
REMARK  status: ('A' for Active; 'I' for Inactive)
REMARK    1  A    between atoms: C_2  and  C_7 
REMARK    2  A    between atoms: C_6  and  N_14 
REMARK    3  A    between atoms: C_7  and  C_8 
REMARK    4  A    between atoms: C_7  and  O_9 
REMARK    5  A    between atoms: C_8  and  N_10 
REMARK    6  A    between atoms: C_8  and  C_11 
REMARK       I    between atoms: N_10  and  C_12 
REMARK    7  A    between atoms: C_11  and  O_13 
REMARK    8  A    between atoms: C_12  and  C_15 
ROOT
HETATM    1  C   UNK N   1      19.311  15.851   4.335  0.00  0.00     0.176 C 
ENDROOT
BRANCH   1   2
HETATM    2  C   UNK N   1      20.002  17.132   3.915  0.00  0.00    -0.028 A 
HETATM    3  C   UNK N   1      21.235  17.531   4.453  0.00  0.00     0.012 A 
HETATM    4  C   UNK N   1      21.866  18.692   4.004  0.00  0.00     0.037 A 
HETATM    5  C   UNK N   1      21.265  19.489   3.018  0.00  0.00     0.102 A 
HETATM    6  C   UNK N   1      20.024  19.105   2.493  0.00  0.00     0.037 A 
HETATM    7  C   UNK N   1      19.404  17.930   2.930  0.00  0.00     0.012 A 
BRANCH   5   8
HETATM    8  N   UNK N   1      21.908  20.668   2.552  0.00  0.00    -0.116 N 
HETATM    9  O   UNK N   1      21.300  21.461   1.697  0.00  0.00    -0.532 OA
HETATM   10  O   UNK N   1      23.011  20.941   2.923  0.00  0.00    -0.532 OA
ENDBRANCH   5   8
ENDBRANCH   1   2
BRANCH   1  11
HETATM   11  C   UNK N   1      20.117  14.836   5.170  0.00  0.00     0.141 C 
BRANCH  11  12
HETATM   12  N   UNK N   1      19.969  15.175   6.570  0.00  0.00    -0.349 N 
HETATM   13  C   UNK N   1      21.006  15.202   7.445  0.00  0.00     0.251 C 
HETATM   14  O   UNK N   1      22.144  14.963   7.067  0.00  0.00    -0.271 OA
HETATM   15  H   UNK N   1      19.070  15.398   6.904  0.00  0.00     0.163 HD
BRANCH  13  16
HETATM   16  C   UNK N   1      20.735  15.522   8.890  0.00  0.00     0.269 C 
HETATM   17 Cl   UNK N   1      20.884  14.054   9.888  0.00  0.00    -0.098 Cl
HETATM   18 Cl   UNK N   1      19.122  16.245   9.150  0.00  0.00    -0.098 Cl
ENDBRANCH  13  16
ENDBRANCH  11  12
BRANCH  11  19
HETATM   19  C   UNK N   1      19.663  13.395   4.957  0.00  0.00     0.192 C 
BRANCH  19  20
HETATM   20  O   UNK N   1      18.290  13.378   4.708  0.00  0.00    -0.399 OA
HETATM   21  H   UNK N   1      17.593  14.053   4.751  0.00  0.00     0.209 HD
ENDBRANCH  19  20
ENDBRANCH  11  19
ENDBRANCH   1  11
BRANCH   1  22
HETATM   22  O   UNK N   1      18.139  16.166   5.028  0.00  0.00    -0.389 OA
HETATM   23  H   UNK N   1      17.448  15.620   5.436  0.00  0.00     0.210 HD
ENDBRANCH   1  22
TORSDOF 8
ENDMDL
MODEL 9
REMARK VINA RESULT:      -5.4      1.766      2.436
REMARK  8 active torsions:
REMARK  status: ('A' for Active; 'I' for Inactive)
REMARK    1  A    between atoms: C_2  and  C_7 
REMARK    2  A    between atoms: C_6  and  N_14 
REMARK    3  A    between atoms: C_7  and  C_8 
REMARK    4  A    between atoms: C_7  and  O_9 
REMARK    5  A    between atoms: C_8  and  N_10 
REMARK    6  A    between atoms: C_8  and  C_11 
REMARK       I    between atoms: N_10  and  C_12 
REMARK    7  A    between atoms: C_11  and  O_13 
REMARK    8  A    between atoms: C_12  and  C_15 
ROOT
HETATM    1  C   UNK N   1      30.210  16.652   6.786  0.00  0.00     0.176 C 
ENDROOT
BRANCH   1   2
HETATM    2  C   UNK N   1      31.468  16.636   7.630  0.00  0.00    -0.028 A 
HETATM    3  C   UNK N   1      31.920  15.478   8.281  0.00  0.00     0.012 A 
HETATM    4  C   UNK N   1      33.111  15.489   9.009  0.00  0.00     0.037 A 
HETATM    5  C   UNK N   1      33.866  16.667   9.114  0.00  0.00     0.102 A 
HETATM    6  C   UNK N   1      33.407  17.831   8.482  0.00  0.00     0.037 A 
HETATM    7  C   UNK N   1      32.224  17.811   7.737  0.00  0.00     0.012 A 
BRANCH   5   8
HETATM    8  N   UNK N   1      35.084  16.681   9.848  0.00  0.00    -0.116 N 
HETATM    9  O   UNK N   1      35.694  15.553  10.141  0.00  0.00    -0.532 OA
HETATM   10  O   UNK N   1      35.555  17.716  10.216  0.00  0.00    -0.532 OA
ENDBRANCH   5   8
ENDBRANCH   1   2
BRANCH   1  11
HETATM   11  C   UNK N   1      29.132  17.704   7.117  0.00  0.00     0.141 C 
BRANCH  11  12
HETATM   12  N   UNK N   1      28.203  17.772   6.007  0.00  0.00    -0.349 N 
HETATM   13  C   UNK N   1      27.645  18.929   5.570  0.00  0.00     0.251 C 
HETATM   14  O   UNK N   1      27.936  19.995   6.095  0.00  0.00    -0.271 OA
HETATM   15  H   UNK N   1      27.966  16.935   5.546  0.00  0.00     0.163 HD
BRANCH  13  16
HETATM   16  C   UNK N   1      26.656  18.882   4.439  0.00  0.00     0.269 C 
HETATM   17 Cl   UNK N   1      26.732  20.385   3.485  0.00  0.00    -0.098 Cl
HETATM   18 Cl   UNK N   1      24.977  18.627   4.995  0.00  0.00    -0.098 Cl
ENDBRANCH  13  16
ENDBRANCH  11  12
BRANCH  11  19
HETATM   19  C   UNK N   1      28.359  17.385   8.392  0.00  0.00     0.192 C 
BRANCH  19  20
HETATM   20  O   UNK N   1      27.839  18.566   8.922  0.00  0.00    -0.399 OA
HETATM   21  H   UNK N   1      28.211  19.274   9.473  0.00  0.00     0.209 HD
ENDBRANCH  19  20
ENDBRANCH  11  19
ENDBRANCH   1  11
BRANCH   1  22
HETATM   22  O   UNK N   1      30.560  16.783   5.440  0.00  0.00    -0.389 OA
HETATM   23  H   UNK N   1      30.855  16.145   4.771  0.00  0.00     0.210 HD
ENDBRANCH   1  22
TORSDOF 8
ENDMDL
