REMARK  1 active torsions:
REMARK  status: ('A' for Active; 'I' for Inactive)
REMARK    1  A    between atoms: C_1  and  N_17 
ROOT
HETATM    1  C   UNK N   1      13.439  -8.360   0.334  0.00  0.00     0.116 C 
HETATM    2  C   UNK N   1      12.572  -7.127   0.154  0.00  0.00     0.035 A 
HETATM    3  C   UNK N   1      13.026  -5.776   0.089  0.00  0.00     0.046 A 
HETATM    4  N   UNK N   1      14.369  -5.349   0.151  0.00  0.00    -0.354 N 
HETATM    5  N   UNK N   1      14.720  -8.361   0.211  0.00  0.00    -0.340 N 
ATOM      6  HN  UNK N   1      15.100  -9.302   0.313  1.00  0.00     0.167 HD
HETATM    7  C   UNK N   1      15.593  -6.023   0.000  0.00  0.00     0.059 A 
HETATM    8  C   UNK N   1      15.744  -7.421  -0.026  0.00  0.00     0.062 A 
HETATM    9  C   UNK N   1      12.087  -4.740  -0.045  0.00  0.00     0.030 A 
HETATM   10  C   UNK N   1      10.725  -4.990  -0.144  0.00  0.00     0.002 A 
HETATM   11  C   UNK N   1      10.270  -6.295  -0.110  0.00  0.00     0.001 A 
HETATM   12  C   UNK N   1      11.182  -7.334   0.040  0.00  0.00     0.017 A 
HETATM   13  C   UNK N   1      17.023  -7.962  -0.208  0.00  0.00     0.055 A 
HETATM   14  C   UNK N   1      18.141  -7.151  -0.365  0.00  0.00     0.036 A 
HETATM   15  C   UNK N   1      17.998  -5.770  -0.321  0.00  0.00     0.026 A 
HETATM   16  C   UNK N   1      16.732  -5.215  -0.142  0.00  0.00     0.033 A 
HETATM   17 Cl   UNK N   1      19.718  -7.872  -0.598  0.00  0.00    -0.084 Cl
HETATM   18  H   UNK N   1      14.468  -4.387   0.337  0.00  0.00     0.166 HD
ENDROOT
BRANCH   1  19
HETATM   19  N   UNK N   1      12.852  -9.639   0.679  0.00  0.00    -0.363 N 
HETATM   20  C   UNK N   1      11.485  -9.804   1.127  0.00  0.00     0.154 C 
HETATM   21  C   UNK N   1      10.811 -10.967   0.385  0.00  0.00     0.291 C 
HETATM   22  N   UNK N   1      11.760 -11.745  -0.419  0.00  0.00     0.087 N 
HETATM   23  C   UNK N   1      12.938 -12.078   0.380  0.00  0.00     0.291 C 
HETATM   24  C   UNK N   1      11.105 -12.996  -0.750  0.00  0.00     0.310 C 
HETATM   25  C   UNK N   1      13.710 -10.810   0.756  0.00  0.00     0.154 C 
ENDBRANCH   1  19
TORSDOF 1
