MODEL 1
REMARK VINA RESULT:      -6.7      0.000      0.000
REMARK  5 active torsions:
REMARK  status: ('A' for Active; 'I' for Inactive)
REMARK    1  A    between atoms: C_6  and  O_12 
REMARK    2  A    between atoms: C_7  and  C_9 
REMARK    3  A    between atoms: C_9  and  O_10 
REMARK    4  A    between atoms: O_12  and  C_14 
REMARK    5  A    between atoms: C_14  and  C_15 
ROOT
HETATM    1  C   UNK N   1      32.754  25.466  -4.832  0.00  0.00     0.039 C 
HETATM    2  C   UNK N   1      31.997  26.379  -5.791  0.00  0.00     0.038 C 
HETATM    3  C   UNK N   1      29.801  25.990  -4.846  0.00  0.00     0.069 C 
HETATM    4  N   UNK N   1      31.168  24.230  -6.044  0.00  0.00     0.094 N 
HETATM    5  C   UNK N   1      30.110  23.231  -6.173  0.00  0.00     0.310 C 
HETATM    6  C   UNK N   1      29.731  24.940  -3.731  0.00  0.00     0.150 C 
HETATM    7  C   UNK N   1      31.064  24.157  -3.541  0.00  0.00     0.148 C 
HETATM    8  C   UNK N   1      31.964  24.155  -4.817  0.00  0.00     0.239 C 
HETATM    9  C   UNK N   1      30.715  25.624  -6.037  0.00  0.00     0.225 C 
ENDROOT
BRANCH   6  10
HETATM   10  O   UNK N   1      28.639  24.103  -3.909  0.00  0.00    -0.311 OA
BRANCH  10  11
HETATM   11  C   UNK N   1      27.418  24.410  -3.400  0.00  0.00     0.293 C 
HETATM   12  O   UNK N   1      27.024  23.808  -2.410  0.00  0.00    -0.259 OA
BRANCH  11  13
HETATM   13  C   UNK N   1      26.558  25.471  -3.993  0.00  0.00     0.039 A 
HETATM   14  C   UNK N   1      26.403  26.700  -3.336  0.00  0.00     0.017 A 
HETATM   15  C   UNK N   1      25.624  27.714  -3.903  0.00  0.00     0.001 A 
HETATM   16  C   UNK N   1      24.984  27.503  -5.126  0.00  0.00     0.000 A 
HETATM   17  C   UNK N   1      25.112  26.275  -5.777  0.00  0.00     0.001 A 
HETATM   18  C   UNK N   1      25.893  25.265  -5.212  0.00  0.00     0.017 A 
ENDBRANCH  11  13
ENDBRANCH  10  11
ENDBRANCH   6  10
BRANCH   7  19
HETATM   19  C   UNK N   1      30.882  22.924  -2.646  0.00  0.00     0.267 C 
HETATM   20  O   UNK N   1      30.405  23.111  -1.538  0.00  0.00    -0.265 OA
BRANCH  19  21
HETATM   21  O   UNK N   1      31.217  21.643  -2.971  0.00  0.00    -0.326 OA
HETATM   22  C   UNK N   1      30.532  20.786  -3.792  0.00  0.00     0.213 C 
ENDBRANCH  19  21
ENDBRANCH   7  19
TORSDOF 5
ENDMDL
MODEL 2
REMARK VINA RESULT:      -6.3      1.625      3.348
REMARK  5 active torsions:
REMARK  status: ('A' for Active; 'I' for Inactive)
REMARK    1  A    between atoms: C_6  and  O_12 
REMARK    2  A    between atoms: C_7  and  C_9 
REMARK    3  A    between atoms: C_9  and  O_10 
REMARK    4  A    between atoms: O_12  and  C_14 
REMARK    5  A    between atoms: C_14  and  C_15 
ROOT
HETATM    1  C   UNK N   1      31.674  21.126  -4.527  0.00  0.00     0.039 C 
HETATM    2  C   UNK N   1      32.039  21.486  -3.090  0.00  0.00     0.038 C 
HETATM    3  C   UNK N   1      30.008  22.715  -2.604  0.00  0.00     0.069 C 
HETATM    4  N   UNK N   1      31.759  23.458  -4.274  0.00  0.00     0.094 N 
HETATM    5  C   UNK N   1      31.255  24.815  -4.477  0.00  0.00     0.310 C 
HETATM    6  C   UNK N   1      29.044  22.902  -3.782  0.00  0.00     0.150 C 
HETATM    7  C   UNK N   1      29.641  22.438  -5.143  0.00  0.00     0.148 C 
HETATM    8  C   UNK N   1      31.202  22.436  -5.162  0.00  0.00     0.239 C 
HETATM    9  C   UNK N   1      31.505  22.889  -2.946  0.00  0.00     0.225 C 
ENDROOT
BRANCH   6  10
HETATM   10  O   UNK N   1      28.562  24.203  -3.823  0.00  0.00    -0.311 OA
BRANCH  10  11
HETATM   11  C   UNK N   1      27.310  24.510  -3.395  0.00  0.00     0.293 C 
HETATM   12  O   UNK N   1      26.837  23.880  -2.459  0.00  0.00    -0.259 OA
BRANCH  11  13
HETATM   13  C   UNK N   1      26.510  25.602  -4.013  0.00  0.00     0.039 A 
HETATM   14  C   UNK N   1      25.874  25.397  -5.247  0.00  0.00     0.017 A 
HETATM   15  C   UNK N   1      25.092  26.406  -5.818  0.00  0.00     0.001 A 
HETATM   16  C   UNK N   1      24.950  27.634  -5.168  0.00  0.00     0.000 A 
HETATM   17  C   UNK N   1      25.599  27.858  -3.952  0.00  0.00     0.001 A 
HETATM   18  C   UNK N   1      26.375  26.848  -3.381  0.00  0.00     0.017 A 
ENDBRANCH  11  13
ENDBRANCH  10  11
ENDBRANCH   6  10
BRANCH   7  19
HETATM   19  C   UNK N   1      28.793  22.910  -6.332  0.00  0.00     0.267 C 
HETATM   20  O   UNK N   1      29.301  23.728  -7.083  0.00  0.00    -0.265 OA
BRANCH  19  21
HETATM   21  O   UNK N   1      27.521  22.511  -6.616  0.00  0.00    -0.326 OA
HETATM   22  C   UNK N   1      26.787  22.802  -7.736  0.00  0.00     0.213 C 
ENDBRANCH  19  21
ENDBRANCH   7  19
TORSDOF 5
ENDMDL
MODEL 3
REMARK VINA RESULT:      -6.2      2.461      5.121
REMARK  5 active torsions:
REMARK  status: ('A' for Active; 'I' for Inactive)
REMARK    1  A    between atoms: C_6  and  O_12 
REMARK    2  A    between atoms: C_7  and  C_9 
REMARK    3  A    between atoms: C_9  and  O_10 
REMARK    4  A    between atoms: O_12  and  C_14 
REMARK    5  A    between atoms: C_14  and  C_15 
ROOT
HETATM    1  C   UNK N   1      26.579  28.313  -3.273  0.00  0.00     0.039 C 
HETATM    2  C   UNK N   1      26.325  29.085  -4.564  0.00  0.00     0.038 C 
HETATM    3  C   UNK N   1      25.987  27.142  -5.971  0.00  0.00     0.069 C 
HETATM    4  N   UNK N   1      28.190  27.749  -4.884  0.00  0.00     0.094 N 
HETATM    5  C   UNK N   1      29.026  26.805  -5.624  0.00  0.00     0.310 C 
HETATM    6  C   UNK N   1      26.218  25.784  -5.298  0.00  0.00     0.150 C 
HETATM    7  C   UNK N   1      26.832  25.902  -3.872  0.00  0.00     0.148 C 
HETATM    8  C   UNK N   1      27.605  27.239  -3.643  0.00  0.00     0.239 C 
HETATM    9  C   UNK N   1      27.012  28.240  -5.607  0.00  0.00     0.225 C 
ENDROOT
BRANCH   6  10
HETATM   10  O   UNK N   1      26.946  24.941  -6.127  0.00  0.00    -0.311 OA
BRANCH  10  11
HETATM   11  C   UNK N   1      26.447  23.748  -6.542  0.00  0.00     0.293 C 
HETATM   12  O   UNK N   1      25.232  23.607  -6.599  0.00  0.00    -0.259 OA
BRANCH  11  13
HETATM   13  C   UNK N   1      27.328  22.621  -6.951  0.00  0.00     0.039 A 
HETATM   14  C   UNK N   1      28.590  22.464  -6.358  0.00  0.00     0.017 A 
HETATM   15  C   UNK N   1      29.411  21.388  -6.712  0.00  0.00     0.001 A 
HETATM   16  C   UNK N   1      28.983  20.467  -7.671  0.00  0.00     0.000 A 
HETATM   17  C   UNK N   1      27.740  20.628  -8.286  0.00  0.00     0.001 A 
HETATM   18  C   UNK N   1      26.920  21.700  -7.928  0.00  0.00     0.017 A 
ENDBRANCH  11  13
ENDBRANCH  10  11
ENDBRANCH   6  10
BRANCH   7  19
HETATM   19  C   UNK N   1      27.333  24.549  -3.349  0.00  0.00     0.267 C 
HETATM   20  O   UNK N   1      26.488  23.767  -2.942  0.00  0.00    -0.265 OA
BRANCH  19  21
HETATM   21  O   UNK N   1      28.634  24.147  -3.286  0.00  0.00    -0.326 OA
HETATM   22  C   UNK N   1      29.165  23.169  -2.486  0.00  0.00     0.213 C 
ENDBRANCH  19  21
ENDBRANCH   7  19
TORSDOF 5
ENDMDL
MODEL 4
REMARK VINA RESULT:      -6.1      3.556      5.298
REMARK  5 active torsions:
REMARK  status: ('A' for Active; 'I' for Inactive)
REMARK    1  A    between atoms: C_6  and  O_12 
REMARK    2  A    between atoms: C_7  and  C_9 
REMARK    3  A    between atoms: C_9  and  O_10 
REMARK    4  A    between atoms: O_12  and  C_14 
REMARK    5  A    between atoms: C_14  and  C_15 
ROOT
HETATM    1  C   UNK N   1      28.550  21.097  -7.702  0.00  0.00     0.039 C 
HETATM    2  C   UNK N   1      29.532  21.686  -6.695  0.00  0.00     0.038 C 
HETATM    3  C   UNK N   1      28.045  23.402  -5.850  0.00  0.00     0.069 C 
HETATM    4  N   UNK N   1      28.971  23.351  -8.204  0.00  0.00     0.094 N 
HETATM    5  C   UNK N   1      28.569  24.703  -8.589  0.00  0.00     0.310 C 
HETATM    6  C   UNK N   1      26.692  23.521  -6.561  0.00  0.00     0.150 C 
HETATM    7  C   UNK N   1      26.594  22.643  -7.844  0.00  0.00     0.148 C 
HETATM    8  C   UNK N   1      27.986  22.300  -8.463  0.00  0.00     0.239 C 
HETATM    9  C   UNK N   1      29.258  23.167  -6.778  0.00  0.00     0.225 C 
ENDROOT
BRANCH   6  10
HETATM   10  O   UNK N   1      26.374  24.851  -6.797  0.00  0.00    -0.311 OA
BRANCH  10  11
HETATM   11  C   UNK N   1      25.693  25.591  -5.884  0.00  0.00     0.293 C 
HETATM   12  O   UNK N   1      24.691  25.112  -5.367  0.00  0.00    -0.259 OA
BRANCH  11  13
HETATM   13  C   UNK N   1      26.140  26.950  -5.476  0.00  0.00     0.039 A 
HETATM   14  C   UNK N   1      27.067  27.651  -6.261  0.00  0.00     0.017 A 
HETATM   15  C   UNK N   1      27.467  28.943  -5.903  0.00  0.00     0.001 A 
HETATM   16  C   UNK N   1      26.953  29.540  -4.750  0.00  0.00     0.000 A 
HETATM   17  C   UNK N   1      26.048  28.843  -3.948  0.00  0.00     0.001 A 
HETATM   18  C   UNK N   1      25.646  27.555  -4.309  0.00  0.00     0.017 A 
ENDBRANCH  11  13
ENDBRANCH  10  11
ENDBRANCH   6  10
BRANCH   7  19
HETATM   19  C   UNK N   1      25.369  23.006  -8.694  0.00  0.00     0.267 C 
HETATM   20  O   UNK N   1      24.278  22.664  -8.265  0.00  0.00    -0.265 OA
BRANCH  19  21
HETATM   21  O   UNK N   1      25.391  23.661  -9.889  0.00  0.00    -0.326 OA
HETATM   22  C   UNK N   1      25.192  24.999 -10.109  0.00  0.00     0.213 C 
ENDBRANCH  19  21
ENDBRANCH   7  19
TORSDOF 5
ENDMDL
MODEL 5
REMARK VINA RESULT:      -6.0     14.354     16.309
REMARK  5 active torsions:
REMARK  status: ('A' for Active; 'I' for Inactive)
REMARK    1  A    between atoms: C_6  and  O_12 
REMARK    2  A    between atoms: C_7  and  C_9 
REMARK    3  A    between atoms: C_9  and  O_10 
REMARK    4  A    between atoms: O_12  and  C_14 
REMARK    5  A    between atoms: C_14  and  C_15 
ROOT
HETATM    1  C   UNK N   1      36.534  13.684   7.628  0.00  0.00     0.039 C 
HETATM    2  C   UNK N   1      35.691  13.464   6.376  0.00  0.00     0.038 C 
HETATM    3  C   UNK N   1      34.227  15.365   6.707  0.00  0.00     0.069 C 
HETATM    4  N   UNK N   1      34.289  13.335   8.216  0.00  0.00     0.094 N 
HETATM    5  C   UNK N   1      33.073  13.630   8.971  0.00  0.00     0.310 C 
HETATM    6  C   UNK N   1      34.424  16.138   8.016  0.00  0.00     0.150 C 
HETATM    7  C   UNK N   1      35.404  15.437   9.002  0.00  0.00     0.148 C 
HETATM    8  C   UNK N   1      35.525  13.899   8.759  0.00  0.00     0.239 C 
HETATM    9  C   UNK N   1      34.301  13.827   6.834  0.00  0.00     0.225 C 
ENDROOT
BRANCH   6  10
HETATM   10  O   UNK N   1      33.201  16.440   8.599  0.00  0.00    -0.311 OA
BRANCH  10  11
HETATM   11  C   UNK N   1      32.552  17.602   8.327  0.00  0.00     0.293 C 
HETATM   12  O   UNK N   1      33.212  18.616   8.142  0.00  0.00    -0.259 OA
BRANCH  11  13
HETATM   13  C   UNK N   1      31.069  17.673   8.224  0.00  0.00     0.039 A 
HETATM   14  C   UNK N   1      30.335  18.433   9.146  0.00  0.00     0.017 A 
HETATM   15  C   UNK N   1      28.944  18.532   9.036  0.00  0.00     0.001 A 
HETATM   16  C   UNK N   1      28.274  17.861   8.011  0.00  0.00     0.000 A 
HETATM   17  C   UNK N   1      28.991  17.082   7.103  0.00  0.00     0.001 A 
HETATM   18  C   UNK N   1      30.380  16.988   7.211  0.00  0.00     0.017 A 
ENDBRANCH  11  13
ENDBRANCH  10  11
ENDBRANCH   6  10
BRANCH   7  19
HETATM   19  C   UNK N   1      35.349  16.058  10.404  0.00  0.00     0.267 C 
HETATM   20  O   UNK N   1      35.616  17.247  10.492  0.00  0.00    -0.265 OA
BRANCH  19  21
HETATM   21  O   UNK N   1      35.045  15.402  11.559  0.00  0.00    -0.326 OA
HETATM   22  C   UNK N   1      35.920  14.888  12.480  0.00  0.00     0.213 C 
ENDBRANCH  19  21
ENDBRANCH   7  19
TORSDOF 5
ENDMDL
MODEL 6
REMARK VINA RESULT:      -5.9     16.489     19.198
REMARK  5 active torsions:
REMARK  status: ('A' for Active; 'I' for Inactive)
REMARK    1  A    between atoms: C_6  and  O_12 
REMARK    2  A    between atoms: C_7  and  C_9 
REMARK    3  A    between atoms: C_9  and  O_10 
REMARK    4  A    between atoms: O_12  and  C_14 
REMARK    5  A    between atoms: C_14  and  C_15 
ROOT
HETATM    1  C   UNK N   1      37.924  11.540  10.933  0.00  0.00     0.039 C 
HETATM    2  C   UNK N   1      38.030  11.819   9.437  0.00  0.00     0.038 C 
HETATM    3  C   UNK N   1      37.071  14.042   9.515  0.00  0.00     0.069 C 
HETATM    4  N   UNK N   1      35.792  11.920  10.027  0.00  0.00     0.094 N 
HETATM    5  C   UNK N   1      34.454  12.508  10.033  0.00  0.00     0.310 C 
HETATM    6  C   UNK N   1      36.545  14.493  10.882  0.00  0.00     0.150 C 
HETATM    7  C   UNK N   1      36.536  13.354  11.943  0.00  0.00     0.148 C 
HETATM    8  C   UNK N   1      36.492  11.926  11.313  0.00  0.00     0.239 C 
HETATM    9  C   UNK N   1      36.760  12.575   9.141  0.00  0.00     0.225 C 
ENDROOT
BRANCH   6  10
HETATM   10  O   UNK N   1      35.310  15.116  10.754  0.00  0.00    -0.311 OA
BRANCH  10  11
HETATM   11  C   UNK N   1      35.188  16.338  10.174  0.00  0.00     0.293 C 
HETATM   12  O   UNK N   1      35.910  17.248  10.559  0.00  0.00    -0.259 OA
BRANCH  11  13
HETATM   13  C   UNK N   1      34.222  16.596   9.071  0.00  0.00     0.039 A 
HETATM   14  C   UNK N   1      34.451  17.642   8.165  0.00  0.00     0.017 A 
HETATM   15  C   UNK N   1      33.566  17.870   7.106  0.00  0.00     0.001 A 
HETATM   16  C   UNK N   1      32.437  17.062   6.952  0.00  0.00     0.000 A 
HETATM   17  C   UNK N   1      32.186  16.034   7.862  0.00  0.00     0.001 A 
HETATM   18  C   UNK N   1      33.073  15.805   8.916  0.00  0.00     0.017 A 
ENDBRANCH  11  13
ENDBRANCH  10  11
ENDBRANCH   6  10
BRANCH   7  19
HETATM   19  C   UNK N   1      35.732  13.740  13.192  0.00  0.00     0.267 C 
HETATM   20  O   UNK N   1      34.627  13.235  13.316  0.00  0.00    -0.265 OA
BRANCH  19  21
HETATM   21  O   UNK N   1      36.135  14.603  14.167  0.00  0.00    -0.326 OA
HETATM   22  C   UNK N   1      37.023  14.358  15.181  0.00  0.00     0.213 C 
ENDBRANCH  19  21
ENDBRANCH   7  19
TORSDOF 5
ENDMDL
MODEL 7
REMARK VINA RESULT:      -5.9     20.341     23.384
REMARK  5 active torsions:
REMARK  status: ('A' for Active; 'I' for Inactive)
REMARK    1  A    between atoms: C_6  and  O_12 
REMARK    2  A    between atoms: C_7  and  C_9 
REMARK    3  A    between atoms: C_9  and  O_10 
REMARK    4  A    between atoms: O_12  and  C_14 
REMARK    5  A    between atoms: C_14  and  C_15 
ROOT
HETATM    1  C   UNK N   1      34.049  10.736  10.355  0.00  0.00     0.039 C 
HETATM    2  C   UNK N   1      33.510   9.793  11.426  0.00  0.00     0.038 C 
HETATM    3  C   UNK N   1      34.284  11.081  13.326  0.00  0.00     0.069 C 
HETATM    4  N   UNK N   1      35.809   9.918  11.676  0.00  0.00     0.094 N 
HETATM    5  C   UNK N   1      37.048  10.061  12.438  0.00  0.00     0.310 C 
HETATM    6  C   UNK N   1      35.136  12.312  12.994  0.00  0.00     0.150 C 
HETATM    7  C   UNK N   1      35.525  12.401  11.489  0.00  0.00     0.148 C 
HETATM    8  C   UNK N   1      35.497  11.019  10.763  0.00  0.00     0.239 C 
HETATM    9  C   UNK N   1      34.587   9.823  12.481  0.00  0.00     0.225 C 
ENDROOT
BRANCH   6  10
HETATM   10  O   UNK N   1      36.236  12.392  13.838  0.00  0.00    -0.311 OA
BRANCH  10  11
HETATM   11  C   UNK N   1      36.256  13.239  14.899  0.00  0.00     0.293 C 
HETATM   12  O   UNK N   1      36.549  14.413  14.710  0.00  0.00    -0.259 OA
BRANCH  11  13
HETATM   13  C   UNK N   1      35.910  12.790  16.275  0.00  0.00     0.039 A 
HETATM   14  C   UNK N   1      35.534  13.729  17.248  0.00  0.00     0.017 A 
HETATM   15  C   UNK N   1      35.175  13.312  18.534  0.00  0.00     0.001 A 
HETATM   16  C   UNK N   1      35.201  11.955  18.863  0.00  0.00     0.000 A 
HETATM   17  C   UNK N   1      35.598  11.015  17.910  0.00  0.00     0.001 A 
HETATM   18  C   UNK N   1      35.952  11.432  16.625  0.00  0.00     0.017 A 
ENDBRANCH  11  13
ENDBRANCH  10  11
ENDBRANCH   6  10
BRANCH   7  19
HETATM   19  C   UNK N   1      36.615  13.453  11.240  0.00  0.00     0.267 C 
HETATM   20  O   UNK N   1      37.755  13.043  11.093  0.00  0.00    -0.265 OA
BRANCH  19  21
HETATM   21  O   UNK N   1      36.426  14.802  11.182  0.00  0.00    -0.326 OA
HETATM   22  C   UNK N   1      35.272  15.493  11.446  0.00  0.00     0.213 C 
ENDBRANCH  19  21
ENDBRANCH   7  19
TORSDOF 5
ENDMDL
MODEL 8
REMARK VINA RESULT:      -5.8      2.664      5.465
REMARK  5 active torsions:
REMARK  status: ('A' for Active; 'I' for Inactive)
REMARK    1  A    between atoms: C_6  and  O_12 
REMARK    2  A    between atoms: C_7  and  C_9 
REMARK    3  A    between atoms: C_9  and  O_10 
REMARK    4  A    between atoms: O_12  and  C_14 
REMARK    5  A    between atoms: C_14  and  C_15 
ROOT
HETATM    1  C   UNK N   1      28.072  28.724  -6.903  0.00  0.00     0.039 C 
HETATM    2  C   UNK N   1      27.939  29.388  -5.536  0.00  0.00     0.038 C 
HETATM    3  C   UNK N   1      28.034  27.344  -4.239  0.00  0.00     0.069 C 
HETATM    4  N   UNK N   1      26.144  27.949  -5.810  0.00  0.00     0.094 N 
HETATM    5  C   UNK N   1      25.211  26.908  -5.384  0.00  0.00     0.310 C 
HETATM    6  C   UNK N   1      28.070  26.043  -5.048  0.00  0.00     0.150 C 
HETATM    7  C   UNK N   1      27.832  26.260  -6.572  0.00  0.00     0.148 C 
HETATM    8  C   UNK N   1      27.057  27.578  -6.892  0.00  0.00     0.239 C 
HETATM    9  C   UNK N   1      27.066  28.425  -4.773  0.00  0.00     0.225 C 
ENDROOT
BRANCH   6  10
HETATM   10  O   UNK N   1      27.211  25.099  -4.502  0.00  0.00    -0.311 OA
BRANCH  10  11
HETATM   11  C   UNK N   1      27.642  24.196  -3.583  0.00  0.00     0.293 C 
HETATM   12  O   UNK N   1      26.934  23.960  -2.612  0.00  0.00    -0.259 OA
BRANCH  11  13
HETATM   13  C   UNK N   1      28.932  23.470  -3.732  0.00  0.00     0.039 A 
HETATM   14  C   UNK N   1      29.903  23.545  -2.723  0.00  0.00     0.017 A 
HETATM   15  C   UNK N   1      31.105  22.839  -2.840  0.00  0.00     0.001 A 
HETATM   16  C   UNK N   1      31.352  22.062  -3.974  0.00  0.00     0.000 A 
HETATM   17  C   UNK N   1      30.404  21.999  -4.996  0.00  0.00     0.001 A 
HETATM   18  C   UNK N   1      29.202  22.701  -4.875  0.00  0.00     0.017 A 
ENDBRANCH  11  13
ENDBRANCH  10  11
ENDBRANCH   6  10
BRANCH   7  19
HETATM   19  C   UNK N   1      27.569  24.938  -7.306  0.00  0.00     0.267 C 
HETATM   20  O   UNK N   1      28.533  24.389  -7.815  0.00  0.00    -0.265 OA
BRANCH  19  21
HETATM   21  O   UNK N   1      26.357  24.331  -7.452  0.00  0.00    -0.326 OA
HETATM   22  C   UNK N   1      25.539  24.360  -8.551  0.00  0.00     0.213 C 
ENDBRANCH  19  21
ENDBRANCH   7  19
TORSDOF 5
ENDMDL
MODEL 9
REMARK VINA RESULT:      -5.8     15.955     18.279
REMARK  5 active torsions:
REMARK  status: ('A' for Active; 'I' for Inactive)
REMARK    1  A    between atoms: C_6  and  O_12 
REMARK    2  A    between atoms: C_7  and  C_9 
REMARK    3  A    between atoms: C_9  and  O_10 
REMARK    4  A    between atoms: O_12  and  C_14 
REMARK    5  A    between atoms: C_14  and  C_15 
ROOT
HETATM    1  C   UNK N   1      20.521  13.080   3.103  0.00  0.00     0.039 C 
HETATM    2  C   UNK N   1      21.397  11.892   3.488  0.00  0.00     0.038 C 
HETATM    3  C   UNK N   1      21.252  12.223   5.884  0.00  0.00     0.069 C 
HETATM    4  N   UNK N   1      22.407  13.816   4.291  0.00  0.00     0.094 N 
HETATM    5  C   UNK N   1      23.081  14.629   5.301  0.00  0.00     0.310 C 
HETATM    6  C   UNK N   1      20.504  13.482   6.338  0.00  0.00     0.150 C 
HETATM    7  C   UNK N   1      20.142  14.438   5.164  0.00  0.00     0.148 C 
HETATM    8  C   UNK N   1      21.063  14.258   3.916  0.00  0.00     0.239 C 
HETATM    9  C   UNK N   1      22.182  12.415   4.664  0.00  0.00     0.225 C 
ENDROOT
BRANCH   6  10
HETATM   10  O   UNK N   1      21.193  14.124   7.358  0.00  0.00    -0.311 OA
BRANCH  10  11
HETATM   11  C   UNK N   1      20.884  13.915   8.664  0.00  0.00     0.293 C 
HETATM   12  O   UNK N   1      19.799  14.301   9.081  0.00  0.00    -0.259 OA
BRANCH  11  13
HETATM   13  C   UNK N   1      21.810  13.214   9.594  0.00  0.00     0.039 A 
HETATM   14  C   UNK N   1      23.191  13.213   9.344  0.00  0.00     0.017 A 
HETATM   15  C   UNK N   1      24.071  12.585  10.231  0.00  0.00     0.001 A 
HETATM   16  C   UNK N   1      23.579  11.940  11.368  0.00  0.00     0.000 A 
HETATM   17  C   UNK N   1      22.205  11.914  11.613  0.00  0.00     0.001 A 
HETATM   18  C   UNK N   1      21.327  12.546  10.730  0.00  0.00     0.017 A 
ENDBRANCH  11  13
ENDBRANCH  10  11
ENDBRANCH   6  10
BRANCH   7  19
HETATM   19  C   UNK N   1      19.676  15.812   5.666  0.00  0.00     0.267 C 
HETATM   20  O   UNK N   1      18.531  15.888   6.085  0.00  0.00    -0.265 OA
BRANCH  19  21
HETATM   21  O   UNK N   1      20.418  16.955   5.673  0.00  0.00    -0.326 OA
HETATM   22  C   UNK N   1      20.974  17.580   6.759  0.00  0.00     0.213 C 
ENDBRANCH  19  21
ENDBRANCH   7  19
TORSDOF 5
ENDMDL
