MODEL 1
REMARK VINA RESULT:      -7.4      0.000      0.000
REMARK  8 active torsions:
REMARK  status: ('A' for Active; 'I' for Inactive)
REMARK    1  A    between atoms: C_1  and  O_25 
REMARK    2  A    between atoms: C_4  and  C_11 
REMARK    3  A    between atoms: C_11  and  C_14 
REMARK    4  A    between atoms: C_15  and  C_14 
REMARK    5  A    between atoms: C_19  and  O_21 
REMARK    6  A    between atoms: C_24  and  C_29 
REMARK    7  A    between atoms: C_24  and  O_25 
REMARK    8  A    between atoms: C_29  and  C_26 
ROOT
HETATM    1  C   UNK N   1      29.333  22.139  -7.259  0.00  0.00     0.141 C 
HETATM    2  C   UNK N   1      30.097  22.274  -5.896  0.00  0.00     0.052 C 
HETATM    3  C   UNK N   1      30.823  20.968  -5.536  0.00  0.00    -0.055 C 
HETATM    4  C   UNK N   1      29.240  22.634  -4.652  0.00  0.00     0.004 C 
HETATM    5  C   UNK N   1      28.761  20.745  -7.428  0.00  0.00     0.041 C 
HETATM    6  C   UNK N   1      31.474  20.842  -4.224  0.00  0.00     0.004 C 
HETATM    7  C   UNK N   1      30.748  19.862  -6.298  0.00  0.00    -0.015 C 
HETATM    8  C   UNK N   1      30.107  22.750  -3.357  0.00  0.00     0.009 C 
HETATM    9  C   UNK N   1      29.971  19.841  -7.577  0.00  0.00     0.007 C 
HETATM   10  C   UNK N   1      31.160  21.676  -3.225  0.00  0.00    -0.022 C 
HETATM   11  C   UNK N   1      29.534  18.430  -7.902  0.00  0.00     0.014 C 
HETATM   12  C   UNK N   1      30.810  24.087  -3.189  0.00  0.00     0.014 C 
ENDROOT
BRANCH   4  13
HETATM   13  C   UNK N   1      28.297  23.840  -4.812  0.00  0.00     0.009 C 
BRANCH  13  14
HETATM   14  C   UNK N   1      27.193  23.892  -3.759  0.00  0.00     0.033 C 
BRANCH  14  15
HETATM   15  C   UNK N   1      26.228  25.008  -4.097  0.00  0.00     0.134 C 
HETATM   16  O   UNK N   1      26.387  26.067  -3.221  0.00  0.00    -0.316 OA
HETATM   17  C   UNK N   1      25.959  27.326  -3.502  0.00  0.00     0.261 C 
HETATM   18  C   UNK N   1      25.456  27.696  -4.876  0.00  0.00     0.142 C 
HETATM   19  O   UNK N   1      26.052  28.195  -2.649  0.00  0.00    -0.265 OA
HETATM   20  C   UNK N   1      25.297  26.480  -5.789  0.00  0.00     0.130 C 
HETATM   21  C   UNK N   1      26.391  25.459  -5.540  0.00  0.00     0.065 C 
BRANCH  20  22
HETATM   22  O   UNK N   1      25.301  26.882  -7.124  0.00  0.00    -0.395 OA
HETATM   23  H   UNK N   1      24.537  26.816  -7.717  0.00  0.00     0.210 HD
ENDBRANCH  20  22
ENDBRANCH  14  15
ENDBRANCH  13  14
ENDBRANCH   4  13
BRANCH   1  24
HETATM   24  O   UNK N   1      28.381  23.123  -7.454  0.00  0.00    -0.315 OA
BRANCH  24  25
HETATM   25  C   UNK N   1      27.545  23.291  -8.525  0.00  0.00     0.267 C 
HETATM   26  O   UNK N   1      28.020  23.777  -9.541  0.00  0.00    -0.264 OA
BRANCH  25  27
HETATM   27  C   UNK N   1      26.072  22.874  -8.530  0.00  0.00     0.040 C 
HETATM   28  C   UNK N   1      25.218  24.043  -8.999  0.00  0.00     0.025 C 
HETATM   29  C   UNK N   1      25.852  21.676  -9.439  0.00  0.00     0.025 C 
BRANCH  27  30
HETATM   30  C   UNK N   1      25.627  22.468  -7.112  0.00  0.00     0.014 C 
HETATM   31  C   UNK N   1      24.590  21.349  -7.088  0.00  0.00     0.006 C 
ENDBRANCH  27  30
ENDBRANCH  25  27
ENDBRANCH  24  25
ENDBRANCH   1  24
TORSDOF 8
ENDMDL
MODEL 2
REMARK VINA RESULT:      -7.3     12.045     14.323
REMARK  8 active torsions:
REMARK  status: ('A' for Active; 'I' for Inactive)
REMARK    1  A    between atoms: C_1  and  O_25 
REMARK    2  A    between atoms: C_4  and  C_11 
REMARK    3  A    between atoms: C_11  and  C_14 
REMARK    4  A    between atoms: C_15  and  C_14 
REMARK    5  A    between atoms: C_19  and  O_21 
REMARK    6  A    between atoms: C_24  and  C_29 
REMARK    7  A    between atoms: C_24  and  O_25 
REMARK    8  A    between atoms: C_29  and  C_26 
ROOT
HETATM    1  C   UNK N   1      22.087  18.891   4.706  0.00  0.00     0.141 C 
HETATM    2  C   UNK N   1      23.638  19.040   4.521  0.00  0.00     0.052 C 
HETATM    3  C   UNK N   1      23.968  19.996   3.364  0.00  0.00    -0.055 C 
HETATM    4  C   UNK N   1      24.429  17.737   4.227  0.00  0.00     0.004 C 
HETATM    5  C   UNK N   1      21.372  18.928   3.371  0.00  0.00     0.041 C 
HETATM    6  C   UNK N   1      25.366  20.151   2.934  0.00  0.00     0.004 C 
HETATM    7  C   UNK N   1      23.020  20.573   2.606  0.00  0.00    -0.015 C 
HETATM    8  C   UNK N   1      25.961  18.003   4.070  0.00  0.00     0.009 C 
HETATM    9  C   UNK N   1      21.562  20.346   2.864  0.00  0.00     0.007 C 
HETATM   10  C   UNK N   1      26.290  19.246   3.276  0.00  0.00    -0.022 C 
HETATM   11  C   UNK N   1      20.767  20.561   1.596  0.00  0.00     0.014 C 
HETATM   12  C   UNK N   1      26.720  18.101   5.384  0.00  0.00     0.014 C 
ENDROOT
BRANCH   4  13
HETATM   13  C   UNK N   1      24.155  16.555   5.176  0.00  0.00     0.009 C 
BRANCH  13  14
HETATM   14  C   UNK N   1      23.951  15.227   4.450  0.00  0.00     0.033 C 
BRANCH  14  15
HETATM   15  C   UNK N   1      23.075  15.448   3.236  0.00  0.00     0.134 C 
HETATM   16  O   UNK N   1      23.574  14.755   2.147  0.00  0.00    -0.316 OA
HETATM   17  C   UNK N   1      22.817  14.445   1.062  0.00  0.00     0.261 C 
HETATM   18  C   UNK N   1      21.324  14.665   1.056  0.00  0.00     0.142 C 
HETATM   19  O   UNK N   1      23.343  13.909   0.098  0.00  0.00    -0.265 OA
HETATM   20  C   UNK N   1      20.842  15.442   2.282  0.00  0.00     0.130 C 
HETATM   21  C   UNK N   1      21.633  15.061   3.520  0.00  0.00     0.065 C 
BRANCH  20  22
HETATM   22  O   UNK N   1      19.481  15.215   2.485  0.00  0.00    -0.395 OA
HETATM   23  H   UNK N   1      19.122  14.587   3.131  0.00  0.00     0.210 HD
ENDBRANCH  20  22
ENDBRANCH  14  15
ENDBRANCH  13  14
ENDBRANCH   4  13
BRANCH   1  24
HETATM   24  O   UNK N   1      21.728  17.791   5.463  0.00  0.00    -0.315 OA
BRANCH  24  25
HETATM   25  C   UNK N   1      21.079  17.768   6.668  0.00  0.00     0.267 C 
HETATM   26  O   UNK N   1      20.937  18.831   7.254  0.00  0.00    -0.264 OA
BRANCH  25  27
HETATM   27  C   UNK N   1      20.496  16.499   7.297  0.00  0.00     0.040 C 
HETATM   28  C   UNK N   1      19.360  15.981   6.427  0.00  0.00     0.025 C 
HETATM   29  C   UNK N   1      21.563  15.428   7.444  0.00  0.00     0.025 C 
BRANCH  27  30
HETATM   30  C   UNK N   1      19.948  16.805   8.704  0.00  0.00     0.014 C 
HETATM   31  C   UNK N   1      18.427  16.922   8.762  0.00  0.00     0.006 C 
ENDBRANCH  27  30
ENDBRANCH  25  27
ENDBRANCH  24  25
ENDBRANCH   1  24
TORSDOF 8
ENDMDL
MODEL 3
REMARK VINA RESULT:      -7.2      2.375      5.410
REMARK  8 active torsions:
REMARK  status: ('A' for Active; 'I' for Inactive)
REMARK    1  A    between atoms: C_1  and  O_25 
REMARK    2  A    between atoms: C_4  and  C_11 
REMARK    3  A    between atoms: C_11  and  C_14 
REMARK    4  A    between atoms: C_15  and  C_14 
REMARK    5  A    between atoms: C_19  and  O_21 
REMARK    6  A    between atoms: C_24  and  C_29 
REMARK    7  A    between atoms: C_24  and  O_25 
REMARK    8  A    between atoms: C_29  and  C_26 
ROOT
HETATM    1  C   UNK N   1      26.420  25.751  -7.831  0.00  0.00     0.141 C 
HETATM    2  C   UNK N   1      26.507  26.845  -6.710  0.00  0.00     0.052 C 
HETATM    3  C   UNK N   1      27.542  27.923  -7.068  0.00  0.00    -0.055 C 
HETATM    4  C   UNK N   1      26.889  26.352  -5.288  0.00  0.00     0.004 C 
HETATM    5  C   UNK N   1      27.781  25.488  -8.444  0.00  0.00     0.041 C 
HETATM    6  C   UNK N   1      27.879  28.956  -6.077  0.00  0.00     0.004 C 
HETATM    7  C   UNK N   1      28.287  27.872  -8.186  0.00  0.00    -0.015 C 
HETATM    8  C   UNK N   1      26.937  27.524  -4.255  0.00  0.00     0.009 C 
HETATM    9  C   UNK N   1      28.131  26.766  -9.184  0.00  0.00     0.007 C 
HETATM   10  C   UNK N   1      27.582  28.783  -4.783  0.00  0.00    -0.022 C 
HETATM   11  C   UNK N   1      29.410  26.584  -9.969  0.00  0.00     0.014 C 
HETATM   12  C   UNK N   1      25.581  27.921  -3.692  0.00  0.00     0.014 C 
ENDROOT
BRANCH   4  13
HETATM   13  C   UNK N   1      26.081  25.156  -4.751  0.00  0.00     0.009 C 
BRANCH  13  14
HETATM   14  C   UNK N   1      26.926  23.907  -4.517  0.00  0.00     0.033 C 
BRANCH  14  15
HETATM   15  C   UNK N   1      28.338  24.317  -4.156  0.00  0.00     0.134 C 
HETATM   16  O   UNK N   1      28.738  23.691  -2.988  0.00  0.00    -0.316 OA
HETATM   17  C   UNK N   1      30.044  23.553  -2.638  0.00  0.00     0.261 C 
HETATM   18  C   UNK N   1      31.156  23.897  -3.599  0.00  0.00     0.142 C 
HETATM   19  O   UNK N   1      30.325  23.068  -1.552  0.00  0.00    -0.265 OA
HETATM   20  C   UNK N   1      30.645  24.591  -4.862  0.00  0.00     0.130 C 
HETATM   21  C   UNK N   1      29.303  24.027  -5.294  0.00  0.00     0.065 C 
BRANCH  20  22
HETATM   22  O   UNK N   1      31.580  24.462  -5.888  0.00  0.00    -0.395 OA
HETATM   23  H   UNK N   1      32.184  25.166  -6.169  0.00  0.00     0.210 HD
ENDBRANCH  20  22
ENDBRANCH  14  15
ENDBRANCH  13  14
ENDBRANCH   4  13
BRANCH   1  24
HETATM   24  O   UNK N   1      25.799  24.588  -7.415  0.00  0.00    -0.315 OA
BRANCH  24  25
HETATM   25  C   UNK N   1      25.306  23.569  -8.186  0.00  0.00     0.267 C 
HETATM   26  O   UNK N   1      24.508  23.861  -9.065  0.00  0.00    -0.264 OA
BRANCH  25  27
HETATM   27  C   UNK N   1      25.724  22.105  -8.032  0.00  0.00     0.040 C 
HETATM   28  C   UNK N   1      24.733  21.390  -7.125  0.00  0.00     0.025 C 
HETATM   29  C   UNK N   1      25.779  21.412  -9.383  0.00  0.00     0.025 C 
BRANCH  27  30
HETATM   30  C   UNK N   1      27.129  22.013  -7.406  0.00  0.00     0.014 C 
HETATM   31  C   UNK N   1      28.023  20.957  -8.048  0.00  0.00     0.006 C 
ENDBRANCH  27  30
ENDBRANCH  25  27
ENDBRANCH  24  25
ENDBRANCH   1  24
TORSDOF 8
ENDMDL
MODEL 4
REMARK VINA RESULT:      -7.1     10.805     12.930
REMARK  8 active torsions:
REMARK  status: ('A' for Active; 'I' for Inactive)
REMARK    1  A    between atoms: C_1  and  O_25 
REMARK    2  A    between atoms: C_4  and  C_11 
REMARK    3  A    between atoms: C_11  and  C_14 
REMARK    4  A    between atoms: C_15  and  C_14 
REMARK    5  A    between atoms: C_19  and  O_21 
REMARK    6  A    between atoms: C_24  and  C_29 
REMARK    7  A    between atoms: C_24  and  O_25 
REMARK    8  A    between atoms: C_29  and  C_26 
ROOT
HETATM    1  C   UNK N   1      27.439  16.887   5.728  0.00  0.00     0.141 C 
HETATM    2  C   UNK N   1      27.278  18.387   5.296  0.00  0.00     0.052 C 
HETATM    3  C   UNK N   1      27.815  19.335   6.378  0.00  0.00    -0.055 C 
HETATM    4  C   UNK N   1      25.834  18.870   4.993  0.00  0.00     0.004 C 
HETATM    5  C   UNK N   1      27.225  16.723   7.219  0.00  0.00     0.041 C 
HETATM    6  C   UNK N   1      27.618  20.785   6.228  0.00  0.00     0.004 C 
HETATM    7  C   UNK N   1      28.309  18.896   7.549  0.00  0.00    -0.015 C 
HETATM    8  C   UNK N   1      25.795  20.372   4.566  0.00  0.00     0.009 C 
HETATM    9  C   UNK N   1      28.400  17.435   7.864  0.00  0.00     0.007 C 
HETATM   10  C   UNK N   1      26.703  21.265   5.378  0.00  0.00    -0.022 C 
HETATM   11  C   UNK N   1      28.387  17.220   9.361  0.00  0.00     0.014 C 
HETATM   12  C   UNK N   1      26.124  20.617   3.101  0.00  0.00     0.014 C 
ENDROOT
BRANCH   4  13
HETATM   13  C   UNK N   1      25.017  17.986   4.032  0.00  0.00     0.009 C 
BRANCH  13  14
HETATM   14  C   UNK N   1      23.821  17.309   4.696  0.00  0.00     0.033 C 
BRANCH  14  15
HETATM   15  C   UNK N   1      22.553  18.043   4.318  0.00  0.00     0.134 C 
HETATM   16  O   UNK N   1      22.855  19.286   3.788  0.00  0.00    -0.316 OA
HETATM   17  C   UNK N   1      21.983  19.988   3.017  0.00  0.00     0.261 C 
HETATM   18  C   UNK N   1      20.697  19.371   2.523  0.00  0.00     0.142 C 
HETATM   19  O   UNK N   1      22.279  21.116   2.654  0.00  0.00    -0.265 OA
HETATM   20  C   UNK N   1      20.423  18.006   3.154  0.00  0.00     0.130 C 
HETATM   21  C   UNK N   1      21.709  17.225   3.356  0.00  0.00     0.065 C 
BRANCH  20  22
HETATM   22  O   UNK N   1      19.534  17.283   2.359  0.00  0.00    -0.395 OA
HETATM   23  H   UNK N   1      19.399  17.437   1.412  0.00  0.00     0.210 HD
ENDBRANCH  20  22
ENDBRANCH  14  15
ENDBRANCH  13  14
ENDBRANCH   4  13
BRANCH   1  24
HETATM   24  O   UNK N   1      26.660  16.016   4.988  0.00  0.00    -0.315 OA
BRANCH  24  25
HETATM   25  C   UNK N   1      27.050  14.874   4.342  0.00  0.00     0.267 C 
HETATM   26  O   UNK N   1      27.106  13.844   4.998  0.00  0.00    -0.264 OA
BRANCH  25  27
HETATM   27  C   UNK N   1      27.380  14.810   2.848  0.00  0.00     0.040 C 
HETATM   28  C   UNK N   1      28.738  15.452   2.605  0.00  0.00     0.025 C 
HETATM   29  C   UNK N   1      27.393  13.372   2.357  0.00  0.00     0.025 C 
BRANCH  27  30
HETATM   30  C   UNK N   1      26.316  15.569   2.033  0.00  0.00     0.014 C 
HETATM   31  C   UNK N   1      25.091  14.728   1.683  0.00  0.00     0.006 C 
ENDBRANCH  27  30
ENDBRANCH  25  27
ENDBRANCH  24  25
ENDBRANCH   1  24
TORSDOF 8
ENDMDL
MODEL 5
REMARK VINA RESULT:      -6.9     22.771     26.269
REMARK  8 active torsions:
REMARK  status: ('A' for Active; 'I' for Inactive)
REMARK    1  A    between atoms: C_1  and  O_25 
REMARK    2  A    between atoms: C_4  and  C_11 
REMARK    3  A    between atoms: C_11  and  C_14 
REMARK    4  A    between atoms: C_15  and  C_14 
REMARK    5  A    between atoms: C_19  and  O_21 
REMARK    6  A    between atoms: C_24  and  C_29 
REMARK    7  A    between atoms: C_24  and  O_25 
REMARK    8  A    between atoms: C_29  and  C_26 
ROOT
HETATM    1  C   UNK N   1      35.892   9.669  17.412  0.00  0.00     0.141 C 
HETATM    2  C   UNK N   1      35.970  11.233  17.505  0.00  0.00     0.052 C 
HETATM    3  C   UNK N   1      35.338  11.742  18.810  0.00  0.00    -0.055 C 
HETATM    4  C   UNK N   1      35.281  12.030  16.365  0.00  0.00     0.004 C 
HETATM    5  C   UNK N   1      34.604   9.150  18.022  0.00  0.00     0.041 C 
HETATM    6  C   UNK N   1      35.179  13.190  19.016  0.00  0.00     0.004 C 
HETATM    7  C   UNK N   1      34.763  10.922  19.706  0.00  0.00    -0.015 C 
HETATM    8  C   UNK N   1      35.430  13.574  16.557  0.00  0.00     0.009 C 
HETATM    9  C   UNK N   1      34.730   9.439  19.507  0.00  0.00     0.007 C 
HETATM   10  C   UNK N   1      35.242  14.037  17.982  0.00  0.00    -0.022 C 
HETATM   11  C   UNK N   1      33.566   8.835  20.259  0.00  0.00     0.014 C 
HETATM   12  C   UNK N   1      36.757  14.142  16.076  0.00  0.00     0.014 C 
ENDROOT
BRANCH   4  13
HETATM   13  C   UNK N   1      35.641  11.601  14.931  0.00  0.00     0.009 C 
BRANCH  13  14
HETATM   14  C   UNK N   1      34.523  11.852  13.923  0.00  0.00     0.033 C 
BRANCH  14  15
HETATM   15  C   UNK N   1      35.112  12.426  12.652  0.00  0.00     0.134 C 
HETATM   16  O   UNK N   1      34.527  13.645  12.356  0.00  0.00    -0.316 OA
HETATM   17  C   UNK N   1      35.105  14.557  11.530  0.00  0.00     0.261 C 
HETATM   18  C   UNK N   1      36.520  14.383  11.034  0.00  0.00     0.142 C 
HETATM   19  O   UNK N   1      34.495  15.576  11.242  0.00  0.00    -0.265 OA
HETATM   20  C   UNK N   1      37.100  13.013  11.389  0.00  0.00     0.130 C 
HETATM   21  C   UNK N   1      36.623  12.551  12.753  0.00  0.00     0.065 C 
BRANCH  20  22
HETATM   22  O   UNK N   1      38.493  13.062  11.351  0.00  0.00    -0.395 OA
HETATM   23  H   UNK N   1      39.024  12.909  10.554  0.00  0.00     0.210 HD
ENDBRANCH  20  22
ENDBRANCH  14  15
ENDBRANCH  13  14
ENDBRANCH   4  13
BRANCH   1  24
HETATM   24  O   UNK N   1      36.098   9.184  16.134  0.00  0.00    -0.315 OA
BRANCH  24  25
HETATM   25  C   UNK N   1      37.071   8.322  15.703  0.00  0.00     0.267 C 
HETATM   26  O   UNK N   1      37.269   7.315  16.367  0.00  0.00    -0.264 OA
BRANCH  25  27
HETATM   27  C   UNK N   1      37.889   8.531  14.426  0.00  0.00     0.040 C 
HETATM   28  C   UNK N   1      38.817   9.724  14.612  0.00  0.00     0.025 C 
HETATM   29  C   UNK N   1      38.703   7.291  14.095  0.00  0.00     0.025 C 
BRANCH  27  30
HETATM   30  C   UNK N   1      36.956   8.806  13.232  0.00  0.00     0.014 C 
HETATM   31  C   UNK N   1      35.983   7.668  12.935  0.00  0.00     0.006 C 
ENDBRANCH  27  30
ENDBRANCH  25  27
ENDBRANCH  24  25
ENDBRANCH   1  24
TORSDOF 8
ENDMDL
MODEL 6
REMARK VINA RESULT:      -6.9     12.132     15.178
REMARK  8 active torsions:
REMARK  status: ('A' for Active; 'I' for Inactive)
REMARK    1  A    between atoms: C_1  and  O_25 
REMARK    2  A    between atoms: C_4  and  C_11 
REMARK    3  A    between atoms: C_11  and  C_14 
REMARK    4  A    between atoms: C_15  and  C_14 
REMARK    5  A    between atoms: C_19  and  O_21 
REMARK    6  A    between atoms: C_24  and  C_29 
REMARK    7  A    between atoms: C_24  and  O_25 
REMARK    8  A    between atoms: C_29  and  C_26 
ROOT
HETATM    1  C   UNK N   1      28.734  17.414   5.355  0.00  0.00     0.141 C 
HETATM    2  C   UNK N   1      29.196  17.448   6.854  0.00  0.00     0.052 C 
HETATM    3  C   UNK N   1      28.530  18.607   7.612  0.00  0.00    -0.055 C 
HETATM    4  C   UNK N   1      30.720  17.603   7.106  0.00  0.00     0.004 C 
HETATM    5  C   UNK N   1      28.536  18.815   4.812  0.00  0.00     0.041 C 
HETATM    6  C   UNK N   1      28.947  18.900   8.991  0.00  0.00     0.004 C 
HETATM    7  C   UNK N   1      27.700  19.481   7.017  0.00  0.00    -0.015 C 
HETATM    8  C   UNK N   1      31.064  17.617   8.631  0.00  0.00     0.009 C 
HETATM    9  C   UNK N   1      27.339  19.362   5.569  0.00  0.00     0.007 C 
HETATM   10  C   UNK N   1      30.104  18.427   9.469  0.00  0.00    -0.022 C 
HETATM   11  C   UNK N   1      26.941  20.712   5.015  0.00  0.00     0.014 C 
HETATM   12  C   UNK N   1      31.156  16.238   9.266  0.00  0.00     0.014 C 
ENDROOT
BRANCH   4  13
HETATM   13  C   UNK N   1      31.633  16.636   6.329  0.00  0.00     0.009 C 
BRANCH  13  14
HETATM   14  C   UNK N   1      32.967  17.255   5.920  0.00  0.00     0.033 C 
BRANCH  14  15
HETATM   15  C   UNK N   1      34.082  16.615   6.717  0.00  0.00     0.134 C 
HETATM   16  O   UNK N   1      34.320  17.331   7.877  0.00  0.00    -0.316 OA
HETATM   17  C   UNK N   1      34.963  16.801   8.951  0.00  0.00     0.261 C 
HETATM   18  C   UNK N   1      35.289  15.329   9.024  0.00  0.00     0.142 C 
HETATM   19  O   UNK N   1      35.218  17.515   9.910  0.00  0.00    -0.265 OA
HETATM   20  C   UNK N   1      35.010  14.601   7.709  0.00  0.00     0.130 C 
HETATM   21  C   UNK N   1      33.775  15.158   7.024  0.00  0.00     0.065 C 
BRANCH  20  22
HETATM   22  O   UNK N   1      34.862  13.234   7.942  0.00  0.00    -0.395 OA
HETATM   23  H   UNK N   1      34.053  12.822   8.282  0.00  0.00     0.210 HD
ENDBRANCH  20  22
ENDBRANCH  14  15
ENDBRANCH  13  14
ENDBRANCH   4  13
BRANCH   1  24
HETATM   24  O   UNK N   1      29.555  16.650   4.545  0.00  0.00    -0.315 OA
BRANCH  24  25
HETATM   25  C   UNK N   1      29.296  16.172   3.288  0.00  0.00     0.267 C 
HETATM   26  O   UNK N   1      30.022  16.548   2.380  0.00  0.00    -0.264 OA
BRANCH  25  27
HETATM   27  C   UNK N   1      28.180  15.174   2.970  0.00  0.00     0.040 C 
HETATM   28  C   UNK N   1      28.510  14.444   1.676  0.00  0.00     0.025 C 
HETATM   29  C   UNK N   1      28.013  14.171   4.100  0.00  0.00     0.025 C 
BRANCH  27  30
HETATM   30  C   UNK N   1      26.837  15.909   2.800  0.00  0.00     0.014 C 
HETATM   31  C   UNK N   1      25.994  15.394   1.637  0.00  0.00     0.006 C 
ENDBRANCH  27  30
ENDBRANCH  25  27
ENDBRANCH  24  25
ENDBRANCH   1  24
TORSDOF 8
ENDMDL
MODEL 7
REMARK VINA RESULT:      -6.9     10.759     12.402
REMARK  8 active torsions:
REMARK  status: ('A' for Active; 'I' for Inactive)
REMARK    1  A    between atoms: C_1  and  O_25 
REMARK    2  A    between atoms: C_4  and  C_11 
REMARK    3  A    between atoms: C_11  and  C_14 
REMARK    4  A    between atoms: C_15  and  C_14 
REMARK    5  A    between atoms: C_19  and  O_21 
REMARK    6  A    between atoms: C_24  and  C_29 
REMARK    7  A    between atoms: C_24  and  O_25 
REMARK    8  A    between atoms: C_29  and  C_26 
ROOT
HETATM    1  C   UNK N   1      27.046  16.448   3.691  0.00  0.00     0.141 C 
HETATM    2  C   UNK N   1      26.747  17.988   3.728  0.00  0.00     0.052 C 
HETATM    3  C   UNK N   1      27.857  18.751   4.466  0.00  0.00    -0.055 C 
HETATM    4  C   UNK N   1      25.419  18.420   4.406  0.00  0.00     0.004 C 
HETATM    5  C   UNK N   1      27.718  15.993   4.971  0.00  0.00     0.041 C 
HETATM    6  C   UNK N   1      27.688  20.186   4.738  0.00  0.00     0.004 C 
HETATM    7  C   UNK N   1      28.909  18.133   5.032  0.00  0.00    -0.015 C 
HETATM    8  C   UNK N   1      25.222  19.970   4.376  0.00  0.00     0.009 C 
HETATM    9  C   UNK N   1      29.087  16.649   4.949  0.00  0.00     0.007 C 
HETATM   10  C   UNK N   1      26.478  20.754   4.676  0.00  0.00    -0.022 C 
HETATM   11  C   UNK N   1      29.923  16.156   6.108  0.00  0.00     0.014 C 
HETATM   12  C   UNK N   1      24.664  20.508   3.068  0.00  0.00     0.014 C 
ENDROOT
BRANCH   4  13
HETATM   13  C   UNK N   1      24.152  17.680   3.936  0.00  0.00     0.009 C 
BRANCH  13  14
HETATM   14  C   UNK N   1      23.125  17.469   5.046  0.00  0.00     0.033 C 
BRANCH  14  15
HETATM   15  C   UNK N   1      21.746  17.813   4.526  0.00  0.00     0.134 C 
HETATM   16  O   UNK N   1      21.635  19.176   4.317  0.00  0.00    -0.316 OA
HETATM   17  C   UNK N   1      20.688  19.722   3.508  0.00  0.00     0.261 C 
HETATM   18  C   UNK N   1      19.817  18.861   2.626  0.00  0.00     0.142 C 
HETATM   19  O   UNK N   1      20.590  20.938   3.436  0.00  0.00    -0.265 OA
HETATM   20  C   UNK N   1      19.985  17.369   2.915  0.00  0.00     0.130 C 
HETATM   21  C   UNK N   1      21.424  17.034   3.261  0.00  0.00     0.065 C 
BRANCH  20  22
HETATM   22  O   UNK N   1      19.562  16.620   1.817  0.00  0.00    -0.395 OA
HETATM   23  H   UNK N   1      18.947  16.942   1.140  0.00  0.00     0.210 HD
ENDBRANCH  20  22
ENDBRANCH  14  15
ENDBRANCH  13  14
ENDBRANCH   4  13
BRANCH   1  24
HETATM   24  O   UNK N   1      25.938  15.681   3.379  0.00  0.00    -0.315 OA
BRANCH  24  25
HETATM   25  C   UNK N   1      25.617  15.109   2.178  0.00  0.00     0.267 C 
HETATM   26  O   UNK N   1      26.188  15.527   1.181  0.00  0.00    -0.264 OA
BRANCH  25  27
HETATM   27  C   UNK N   1      24.618  13.959   2.022  0.00  0.00     0.040 C 
HETATM   28  C   UNK N   1      23.781  13.844   3.288  0.00  0.00     0.025 C 
HETATM   29  C   UNK N   1      23.712  14.187   0.824  0.00  0.00     0.025 C 
BRANCH  27  30
HETATM   30  C   UNK N   1      25.364  12.630   1.794  0.00  0.00     0.014 C 
HETATM   31  C   UNK N   1      26.470  12.361   2.810  0.00  0.00     0.006 C 
ENDBRANCH  27  30
ENDBRANCH  25  27
ENDBRANCH  24  25
ENDBRANCH   1  24
TORSDOF 8
ENDMDL
MODEL 8
REMARK VINA RESULT:      -6.6      2.634      5.294
REMARK  8 active torsions:
REMARK  status: ('A' for Active; 'I' for Inactive)
REMARK    1  A    between atoms: C_1  and  O_25 
REMARK    2  A    between atoms: C_4  and  C_11 
REMARK    3  A    between atoms: C_11  and  C_14 
REMARK    4  A    between atoms: C_15  and  C_14 
REMARK    5  A    between atoms: C_19  and  O_21 
REMARK    6  A    between atoms: C_24  and  C_29 
REMARK    7  A    between atoms: C_24  and  O_25 
REMARK    8  A    between atoms: C_29  and  C_26 
ROOT
HETATM    1  C   UNK N   1      30.110  26.347  -4.608  0.00  0.00     0.141 C 
HETATM    2  C   UNK N   1      30.109  25.041  -3.740  0.00  0.00     0.052 C 
HETATM    3  C   UNK N   1      31.327  24.161  -4.061  0.00  0.00    -0.055 C 
HETATM    4  C   UNK N   1      28.872  24.113  -3.883  0.00  0.00     0.004 C 
HETATM    5  C   UNK N   1      30.652  26.079  -5.997  0.00  0.00     0.041 C 
HETATM    6  C   UNK N   1      31.429  22.823  -3.461  0.00  0.00     0.004 C 
HETATM    7  C   UNK N   1      32.228  24.486  -5.005  0.00  0.00    -0.015 C 
HETATM    8  C   UNK N   1      28.976  22.851  -2.968  0.00  0.00     0.009 C 
HETATM    9  C   UNK N   1      32.121  25.757  -5.789  0.00  0.00     0.007 C 
HETATM   10  C   UNK N   1      30.351  22.226  -2.938  0.00  0.00    -0.022 C 
HETATM   11  C   UNK N   1      32.820  25.611  -7.122  0.00  0.00     0.014 C 
HETATM   12  C   UNK N   1      28.562  23.086  -1.524  0.00  0.00     0.014 C 
ENDROOT
BRANCH   4  13
HETATM   13  C   UNK N   1      27.499  24.798  -3.750  0.00  0.00     0.009 C 
BRANCH  13  14
HETATM   14  C   UNK N   1      26.351  23.977  -4.332  0.00  0.00     0.033 C 
BRANCH  14  15
HETATM   15  C   UNK N   1      26.476  23.938  -5.840  0.00  0.00     0.134 C 
HETATM   16  O   UNK N   1      25.570  23.040  -6.377  0.00  0.00    -0.316 OA
HETATM   17  C   UNK N   1      25.182  23.077  -7.679  0.00  0.00     0.261 C 
HETATM   18  C   UNK N   1      25.563  24.224  -8.581  0.00  0.00     0.142 C 
HETATM   19  O   UNK N   1      24.446  22.201  -8.109  0.00  0.00    -0.265 OA
HETATM   20  C   UNK N   1      26.571  25.172  -7.929  0.00  0.00     0.130 C 
HETATM   21  C   UNK N   1      26.302  25.322  -6.443  0.00  0.00     0.065 C 
BRANCH  20  22
HETATM   22  O   UNK N   1      26.533  26.416  -8.559  0.00  0.00    -0.395 OA
HETATM   23  H   UNK N   1      26.468  26.541  -9.518  0.00  0.00     0.210 HD
ENDBRANCH  20  22
ENDBRANCH  14  15
ENDBRANCH  13  14
ENDBRANCH   4  13
BRANCH   1  24
HETATM   24  O   UNK N   1      28.884  26.987  -4.638  0.00  0.00    -0.315 OA
BRANCH  24  25
HETATM   25  C   UNK N   1      28.555  28.210  -4.120  0.00  0.00     0.267 C 
HETATM   26  O   UNK N   1      29.012  28.502  -3.025  0.00  0.00    -0.264 OA
BRANCH  25  27
HETATM   27  C   UNK N   1      27.682  29.237  -4.848  0.00  0.00     0.040 C 
HETATM   28  C   UNK N   1      28.369  30.595  -4.816  0.00  0.00     0.025 C 
HETATM   29  C   UNK N   1      27.438  28.816  -6.287  0.00  0.00     0.025 C 
BRANCH  27  30
HETATM   30  C   UNK N   1      26.309  29.355  -4.160  0.00  0.00     0.014 C 
HETATM   31  C   UNK N   1      25.628  28.013  -3.907  0.00  0.00     0.006 C 
ENDBRANCH  27  30
ENDBRANCH  25  27
ENDBRANCH  24  25
ENDBRANCH   1  24
TORSDOF 8
ENDMDL
MODEL 9
REMARK VINA RESULT:      -6.6     22.310     25.932
REMARK  8 active torsions:
REMARK  status: ('A' for Active; 'I' for Inactive)
REMARK    1  A    between atoms: C_1  and  O_25 
REMARK    2  A    between atoms: C_4  and  C_11 
REMARK    3  A    between atoms: C_11  and  C_14 
REMARK    4  A    between atoms: C_15  and  C_14 
REMARK    5  A    between atoms: C_19  and  O_21 
REMARK    6  A    between atoms: C_24  and  C_29 
REMARK    7  A    between atoms: C_24  and  O_25 
REMARK    8  A    between atoms: C_29  and  C_26 
ROOT
HETATM    1  C   UNK N   1      35.596  12.707  15.305  0.00  0.00     0.141 C 
HETATM    2  C   UNK N   1      35.212  12.078  16.690  0.00  0.00     0.052 C 
HETATM    3  C   UNK N   1      35.459  13.071  17.836  0.00  0.00    -0.055 C 
HETATM    4  C   UNK N   1      35.960  10.779  17.092  0.00  0.00     0.004 C 
HETATM    5  C   UNK N   1      36.805  13.613  15.433  0.00  0.00     0.041 C 
HETATM    6  C   UNK N   1      35.302  12.620  19.227  0.00  0.00     0.004 C 
HETATM    7  C   UNK N   1      35.980  14.294  17.637  0.00  0.00    -0.015 C 
HETATM    8  C   UNK N   1      35.491  10.239  18.482  0.00  0.00     0.009 C 
HETATM    9  C   UNK N   1      36.327  14.787  16.267  0.00  0.00     0.007 C 
HETATM   10  C   UNK N   1      35.295  11.315  19.524  0.00  0.00    -0.022 C 
HETATM   11  C   UNK N   1      37.404  15.846  16.348  0.00  0.00     0.014 C 
HETATM   12  C   UNK N   1      34.210   9.422  18.439  0.00  0.00     0.014 C 
ENDROOT
BRANCH   4  13
HETATM   13  C   UNK N   1      35.987   9.662  16.032  0.00  0.00     0.009 C 
BRANCH  13  14
HETATM   14  C   UNK N   1      37.390   9.143  15.731  0.00  0.00     0.033 C 
BRANCH  14  15
HETATM   15  C   UNK N   1      37.414   8.532  14.347  0.00  0.00     0.134 C 
HETATM   16  O   UNK N   1      36.128   8.249  13.921  0.00  0.00    -0.316 OA
HETATM   17  C   UNK N   1      35.809   8.073  12.612  0.00  0.00     0.261 C 
HETATM   18  C   UNK N   1      36.801   8.368  11.514  0.00  0.00     0.142 C 
HETATM   19  O   UNK N   1      34.672   7.739  12.312  0.00  0.00    -0.265 OA
HETATM   20  C   UNK N   1      38.201   8.664  12.053  0.00  0.00     0.130 C 
HETATM   21  C   UNK N   1      38.135   9.435  13.359  0.00  0.00     0.065 C 
BRANCH  20  22
HETATM   22  O   UNK N   1      38.937   9.374  11.106  0.00  0.00    -0.395 OA
HETATM   23  H   UNK N   1      39.886   9.557  11.176  0.00  0.00     0.210 HD
ENDBRANCH  20  22
ENDBRANCH  14  15
ENDBRANCH  13  14
ENDBRANCH   4  13
BRANCH   1  24
HETATM   24  O   UNK N   1      35.749  11.770  14.300  0.00  0.00    -0.315 OA
BRANCH  24  25
HETATM   25  C   UNK N   1      35.109  11.714  13.090  0.00  0.00     0.267 C 
HETATM   26  O   UNK N   1      34.105  11.023  13.013  0.00  0.00    -0.264 OA
BRANCH  25  27
HETATM   27  C   UNK N   1      35.560  12.494  11.852  0.00  0.00     0.040 C 
HETATM   28  C   UNK N   1      37.075  12.635  11.869  0.00  0.00     0.025 C 
HETATM   29  C   UNK N   1      35.122  11.789  10.579  0.00  0.00     0.025 C 
BRANCH  27  30
HETATM   30  C   UNK N   1      34.928  13.899  11.846  0.00  0.00     0.014 C 
HETATM   31  C   UNK N   1      35.922  15.024  12.120  0.00  0.00     0.006 C 
ENDBRANCH  27  30
ENDBRANCH  25  27
ENDBRANCH  24  25
ENDBRANCH   1  24
TORSDOF 8
ENDMDL
