MODEL 1
REMARK VINA RESULT:      -6.3      0.000      0.000
REMARK  6 active torsions:
REMARK  status: ('A' for Active; 'I' for Inactive)
REMARK    1  A    between atoms: C_19  and  O_1 
REMARK    2  A    between atoms: C_2  and  O_1 
REMARK    3  A    between atoms: C_3  and  C_2 
REMARK    4  A    between atoms: C_3  and  C_7 
REMARK    5  A    between atoms: C_3  and  C_5 
REMARK    6  A    between atoms: O_6  and  C_5 
ROOT
HETATM    1  C   UNK N   1      28.553  24.030  -3.293  0.00  0.00     0.270 C 
HETATM    2  O   UNK N   1      27.729  23.449  -2.595  0.00  0.00    -0.264 OA
ENDROOT
BRANCH   1   3
HETATM    3  O   UNK N   1      28.378  25.342  -3.630  0.00  0.00    -0.315 OA
BRANCH   3   4
HETATM    4  C   UNK N   1      27.361  25.823  -4.443  0.00  0.00     0.136 C 
HETATM    5  C   UNK N   1      27.915  26.494  -5.723  0.00  0.00     0.068 C 
HETATM    6  C   UNK N   1      26.946  27.525  -6.343  0.00  0.00     0.225 C 
HETATM    7  C   UNK N   1      25.674  26.810  -6.771  0.00  0.00     0.038 C 
HETATM    8  N   UNK N   1      26.475  28.480  -5.339  0.00  0.00     0.093 N 
HETATM    9  C   UNK N   1      24.772  26.879  -5.537  0.00  0.00     0.038 C 
HETATM   10  C   UNK N   1      25.583  27.671  -4.515  0.00  0.00     0.225 C 
HETATM   11  C   UNK N   1      26.401  26.708  -3.627  0.00  0.00     0.068 C 
HETATM   12  C   UNK N   1      27.544  29.136  -4.584  0.00  0.00     0.310 C 
ENDBRANCH   3   4
ENDBRANCH   1   3
BRANCH   1  13
HETATM   13  C   UNK N   1      29.766  23.262  -3.753  0.00  0.00     0.142 C 
BRANCH  13  14
HETATM   14  C   UNK N   1      29.530  22.453  -5.015  0.00  0.00    -0.043 A 
HETATM   15  C   UNK N   1      28.584  22.852  -5.979  0.00  0.00     0.008 A 
HETATM   16  C   UNK N   1      28.383  22.090  -7.133  0.00  0.00     0.001 A 
HETATM   17  C   UNK N   1      29.122  20.923  -7.337  0.00  0.00     0.000 A 
HETATM   18  C   UNK N   1      30.066  20.520  -6.390  0.00  0.00     0.001 A 
HETATM   19  C   UNK N   1      30.269  21.282  -5.235  0.00  0.00     0.008 A 
ENDBRANCH  13  14
BRANCH  13  20
HETATM   20  C   UNK N   1      30.342  22.401  -2.634  0.00  0.00     0.183 C 
BRANCH  20  21
HETATM   21  O   UNK N   1      30.404  23.141  -1.453  0.00  0.00    -0.400 OA
HETATM   22  H   UNK N   1      30.472  24.108  -1.428  0.00  0.00     0.209 HD
ENDBRANCH  20  21
ENDBRANCH  13  20
ENDBRANCH   1  13
TORSDOF 6
ENDMDL
MODEL 2
REMARK VINA RESULT:      -6.2      2.454      5.736
REMARK  6 active torsions:
REMARK  status: ('A' for Active; 'I' for Inactive)
REMARK    1  A    between atoms: C_19  and  O_1 
REMARK    2  A    between atoms: C_2  and  O_1 
REMARK    3  A    between atoms: C_3  and  C_2 
REMARK    4  A    between atoms: C_3  and  C_7 
REMARK    5  A    between atoms: C_3  and  C_5 
REMARK    6  A    between atoms: O_6  and  C_5 
ROOT
HETATM    1  C   UNK N   1      27.152  24.724  -3.374  0.00  0.00     0.270 C 
HETATM    2  O   UNK N   1      26.710  23.969  -2.515  0.00  0.00    -0.264 OA
ENDROOT
BRANCH   1   3
HETATM    3  O   UNK N   1      28.475  24.694  -3.713  0.00  0.00    -0.315 OA
BRANCH   3   4
HETATM    4  C   UNK N   1      29.222  23.537  -3.888  0.00  0.00     0.136 C 
HETATM    5  C   UNK N   1      30.366  23.428  -2.851  0.00  0.00     0.068 C 
HETATM    6  C   UNK N   1      31.538  22.541  -3.325  0.00  0.00     0.225 C 
HETATM    7  C   UNK N   1      31.032  21.122  -3.529  0.00  0.00     0.038 C 
HETATM    8  N   UNK N   1      31.995  22.931  -4.659  0.00  0.00     0.093 N 
HETATM    9  C   UNK N   1      30.576  21.094  -4.989  0.00  0.00     0.038 C 
HETATM   10  C   UNK N   1      30.902  22.487  -5.519  0.00  0.00     0.225 C 
HETATM   11  C   UNK N   1      29.680  23.416  -5.353  0.00  0.00     0.068 C 
HETATM   12  C   UNK N   1      32.311  24.354  -4.794  0.00  0.00     0.310 C 
ENDBRANCH   3   4
ENDBRANCH   1   3
BRANCH   1  13
HETATM   13  C   UNK N   1      26.194  25.668  -4.055  0.00  0.00     0.142 C 
BRANCH  13  14
HETATM   14  C   UNK N   1      26.062  25.428  -5.548  0.00  0.00    -0.043 A 
HETATM   15  C   UNK N   1      25.976  24.127  -6.079  0.00  0.00     0.008 A 
HETATM   16  C   UNK N   1      25.858  23.930  -7.457  0.00  0.00     0.001 A 
HETATM   17  C   UNK N   1      25.822  25.028  -8.319  0.00  0.00     0.000 A 
HETATM   18  C   UNK N   1      25.902  26.323  -7.803  0.00  0.00     0.001 A 
HETATM   19  C   UNK N   1      26.021  26.522  -6.424  0.00  0.00     0.008 A 
ENDBRANCH  13  14
BRANCH  13  20
HETATM   20  C   UNK N   1      26.529  27.124  -3.748  0.00  0.00     0.183 C 
BRANCH  20  21
HETATM   21  O   UNK N   1      25.502  27.698  -2.999  0.00  0.00    -0.400 OA
HETATM   22  H   UNK N   1      24.886  28.360  -3.350  0.00  0.00     0.209 HD
ENDBRANCH  20  21
ENDBRANCH  13  20
ENDBRANCH   1  13
TORSDOF 6
ENDMDL
MODEL 3
REMARK VINA RESULT:      -6.1     19.468     22.851
REMARK  6 active torsions:
REMARK  status: ('A' for Active; 'I' for Inactive)
REMARK    1  A    between atoms: C_19  and  O_1 
REMARK    2  A    between atoms: C_2  and  O_1 
REMARK    3  A    between atoms: C_3  and  C_2 
REMARK    4  A    between atoms: C_3  and  C_7 
REMARK    5  A    between atoms: C_3  and  C_5 
REMARK    6  A    between atoms: O_6  and  C_5 
ROOT
HETATM    1  C   UNK N   1      34.946  12.447  13.991  0.00  0.00     0.270 C 
HETATM    2  O   UNK N   1      34.077  11.590  13.880  0.00  0.00    -0.264 OA
ENDROOT
BRANCH   1   3
HETATM    3  O   UNK N   1      34.940  13.552  13.188  0.00  0.00    -0.315 OA
BRANCH   3   4
HETATM    4  C   UNK N   1      35.251  13.551  11.835  0.00  0.00     0.136 C 
HETATM    5  C   UNK N   1      36.656  14.143  11.567  0.00  0.00     0.068 C 
HETATM    6  C   UNK N   1      36.821  14.703  10.137  0.00  0.00     0.225 C 
HETATM    7  C   UNK N   1      36.656  13.566   9.140  0.00  0.00     0.038 C 
HETATM    8  N   UNK N   1      35.728  15.614   9.794  0.00  0.00     0.093 N 
HETATM    9  C   UNK N   1      35.157  13.551   8.834  0.00  0.00     0.038 C 
HETATM   10  C   UNK N   1      34.590  14.713   9.645  0.00  0.00     0.225 C 
HETATM   11  C   UNK N   1      34.119  14.212  11.029  0.00  0.00     0.068 C 
HETATM   12  C   UNK N   1      35.510  16.685  10.767  0.00  0.00     0.310 C 
ENDBRANCH   3   4
ENDBRANCH   1   3
BRANCH   1  13
HETATM   13  C   UNK N   1      36.006  12.256  15.045  0.00  0.00     0.142 C 
BRANCH  13  14
HETATM   14  C   UNK N   1      36.184  13.458  15.953  0.00  0.00    -0.043 A 
HETATM   15  C   UNK N   1      37.090  14.490  15.639  0.00  0.00     0.008 A 
HETATM   16  C   UNK N   1      37.239  15.587  16.492  0.00  0.00     0.001 A 
HETATM   17  C   UNK N   1      36.486  15.667  17.665  0.00  0.00     0.000 A 
HETATM   18  C   UNK N   1      35.581  14.652  17.984  0.00  0.00     0.001 A 
HETATM   19  C   UNK N   1      35.431  13.553  17.132  0.00  0.00     0.008 A 
ENDBRANCH  13  14
BRANCH  13  20
HETATM   20  C   UNK N   1      37.331  11.813  14.434  0.00  0.00     0.183 C 
BRANCH  20  21
HETATM   21  O   UNK N   1      37.093  11.054  13.287  0.00  0.00    -0.400 OA
HETATM   22  H   UNK N   1      36.315  11.168  12.720  0.00  0.00     0.209 HD
ENDBRANCH  20  21
ENDBRANCH  13  20
ENDBRANCH   1  13
TORSDOF 6
ENDMDL
MODEL 4
REMARK VINA RESULT:      -6.0     12.026     14.699
REMARK  6 active torsions:
REMARK  status: ('A' for Active; 'I' for Inactive)
REMARK    1  A    between atoms: C_19  and  O_1 
REMARK    2  A    between atoms: C_2  and  O_1 
REMARK    3  A    between atoms: C_3  and  C_2 
REMARK    4  A    between atoms: C_3  and  C_7 
REMARK    5  A    between atoms: C_3  and  C_5 
REMARK    6  A    between atoms: O_6  and  C_5 
ROOT
HETATM    1  C   UNK N   1      30.253  17.505   8.266  0.00  0.00     0.270 C 
HETATM    2  O   UNK N   1      30.673  18.381   9.013  0.00  0.00    -0.264 OA
ENDROOT
BRANCH   1   3
HETATM    3  O   UNK N   1      31.099  16.564   7.751  0.00  0.00    -0.315 OA
BRANCH   3   4
HETATM    4  C   UNK N   1      31.550  16.537   6.439  0.00  0.00     0.136 C 
HETATM    5  C   UNK N   1      31.811  15.092   5.949  0.00  0.00     0.068 C 
HETATM    6  C   UNK N   1      32.826  15.014   4.787  0.00  0.00     0.225 C 
HETATM    7  C   UNK N   1      32.261  15.758   3.588  0.00  0.00     0.038 C 
HETATM    8  N   UNK N   1      34.049  15.754   5.098  0.00  0.00     0.093 N 
HETATM    9  C   UNK N   1      32.759  17.194   3.770  0.00  0.00     0.038 C 
HETATM   10  C   UNK N   1      33.610  17.145   5.035  0.00  0.00     0.225 C 
HETATM   11  C   UNK N   1      32.747  17.491   6.268  0.00  0.00     0.068 C 
HETATM   12  C   UNK N   1      34.665  15.387   6.374  0.00  0.00     0.310 C 
ENDBRANCH   3   4
ENDBRANCH   1   3
BRANCH   1  13
HETATM   13  C   UNK N   1      28.780  17.486   7.946  0.00  0.00     0.142 C 
BRANCH  13  14
HETATM   14  C   UNK N   1      28.377  18.485   6.878  0.00  0.00    -0.043 A 
HETATM   15  C   UNK N   1      28.526  18.197   5.507  0.00  0.00     0.008 A 
HETATM   16  C   UNK N   1      28.151  19.135   4.541  0.00  0.00     0.001 A 
HETATM   17  C   UNK N   1      27.622  20.367   4.931  0.00  0.00     0.000 A 
HETATM   18  C   UNK N   1      27.465  20.661   6.287  0.00  0.00     0.001 A 
HETATM   19  C   UNK N   1      27.841  19.724   7.256  0.00  0.00     0.008 A 
ENDBRANCH  13  14
BRANCH  13  20
HETATM   20  C   UNK N   1      27.931  17.637   9.204  0.00  0.00     0.183 C 
BRANCH  20  21
HETATM   21  O   UNK N   1      28.467  16.861  10.232  0.00  0.00    -0.400 OA
HETATM   22  H   UNK N   1      28.151  16.891  11.149  0.00  0.00     0.209 HD
ENDBRANCH  20  21
ENDBRANCH  13  20
ENDBRANCH   1  13
TORSDOF 6
ENDMDL
MODEL 5
REMARK VINA RESULT:      -6.0     11.533     15.063
REMARK  6 active torsions:
REMARK  status: ('A' for Active; 'I' for Inactive)
REMARK    1  A    between atoms: C_19  and  O_1 
REMARK    2  A    between atoms: C_2  and  O_1 
REMARK    3  A    between atoms: C_3  and  C_2 
REMARK    4  A    between atoms: C_3  and  C_7 
REMARK    5  A    between atoms: C_3  and  C_5 
REMARK    6  A    between atoms: O_6  and  C_5 
ROOT
HETATM    1  C   UNK N   1      29.310  16.922   6.610  0.00  0.00     0.270 C 
HETATM    2  O   UNK N   1      29.040  15.831   6.118  0.00  0.00    -0.264 OA
ENDROOT
BRANCH   1   3
HETATM    3  O   UNK N   1      30.601  17.365   6.653  0.00  0.00    -0.315 OA
BRANCH   3   4
HETATM    4  C   UNK N   1      31.711  16.555   6.851  0.00  0.00     0.136 C 
HETATM    5  C   UNK N   1      32.059  16.411   8.352  0.00  0.00     0.068 C 
HETATM    6  C   UNK N   1      33.540  16.051   8.605  0.00  0.00     0.225 C 
HETATM    7  C   UNK N   1      33.830  14.693   7.985  0.00  0.00     0.038 C 
HETATM    8  N   UNK N   1      34.437  16.952   7.881  0.00  0.00     0.093 N 
HETATM    9  C   UNK N   1      34.276  15.021   6.558  0.00  0.00     0.038 C 
HETATM   10  C   UNK N   1      34.251  16.546   6.491  0.00  0.00     0.225 C 
HETATM   11  C   UNK N   1      32.881  17.031   5.970  0.00  0.00     0.068 C 
HETATM   12  C   UNK N   1      34.183  18.373   8.120  0.00  0.00     0.310 C 
ENDBRANCH   3   4
ENDBRANCH   1   3
BRANCH   1  13
HETATM   13  C   UNK N   1      28.179  17.761   7.147  0.00  0.00     0.142 C 
BRANCH  13  14
HETATM   14  C   UNK N   1      27.709  18.835   6.184  0.00  0.00    -0.043 A 
HETATM   15  C   UNK N   1      27.490  18.556   4.821  0.00  0.00     0.008 A 
HETATM   16  C   UNK N   1      27.059  19.562   3.952  0.00  0.00     0.001 A 
HETATM   17  C   UNK N   1      26.842  20.855   4.432  0.00  0.00     0.000 A 
HETATM   18  C   UNK N   1      27.052  21.142   5.783  0.00  0.00     0.001 A 
HETATM   19  C   UNK N   1      27.483  20.136   6.654  0.00  0.00     0.008 A 
ENDBRANCH  13  14
BRANCH  13  20
HETATM   20  C   UNK N   1      28.514  18.343   8.516  0.00  0.00     0.183 C 
BRANCH  20  21
HETATM   21  O   UNK N   1      27.481  18.067   9.413  0.00  0.00    -0.400 OA
HETATM   22  H   UNK N   1      27.584  17.500  10.193  0.00  0.00     0.209 HD
ENDBRANCH  20  21
ENDBRANCH  13  20
ENDBRANCH   1  13
TORSDOF 6
ENDMDL
MODEL 6
REMARK VINA RESULT:      -6.0     20.207     23.694
REMARK  6 active torsions:
REMARK  status: ('A' for Active; 'I' for Inactive)
REMARK    1  A    between atoms: C_19  and  O_1 
REMARK    2  A    between atoms: C_2  and  O_1 
REMARK    3  A    between atoms: C_3  and  C_2 
REMARK    4  A    between atoms: C_3  and  C_7 
REMARK    5  A    between atoms: C_3  and  C_5 
REMARK    6  A    between atoms: O_6  and  C_5 
ROOT
HETATM    1  C   UNK N   1      35.507  13.044  14.598  0.00  0.00     0.270 C 
HETATM    2  O   UNK N   1      36.691  12.953  14.901  0.00  0.00    -0.264 OA
ENDROOT
BRANCH   1   3
HETATM    3  O   UNK N   1      35.122  13.778  13.511  0.00  0.00    -0.315 OA
BRANCH   3   4
HETATM    4  C   UNK N   1      35.767  13.771  12.282  0.00  0.00     0.136 C 
HETATM    5  C   UNK N   1      36.028  15.206  11.762  0.00  0.00     0.068 C 
HETATM    6  C   UNK N   1      36.182  15.281  10.226  0.00  0.00     0.225 C 
HETATM    7  C   UNK N   1      37.396  14.466   9.811  0.00  0.00     0.038 C 
HETATM    8  N   UNK N   1      35.074  14.606   9.548  0.00  0.00     0.093 N 
HETATM    9  C   UNK N   1      36.839  13.062   9.569  0.00  0.00     0.038 C 
HETATM   10  C   UNK N   1      35.339  13.197   9.819  0.00  0.00     0.225 C 
HETATM   11  C   UNK N   1      35.016  12.864  11.291  0.00  0.00     0.068 C 
HETATM   12  C   UNK N   1      33.747  15.050   9.977  0.00  0.00     0.310 C 
ENDBRANCH   3   4
ENDBRANCH   1   3
BRANCH   1  13
HETATM   13  C   UNK N   1      34.495  12.315  15.444  0.00  0.00     0.142 C 
BRANCH  13  14
HETATM   14  C   UNK N   1      34.881  12.224  16.909  0.00  0.00    -0.043 A 
HETATM   15  C   UNK N   1      35.250  11.000  17.498  0.00  0.00     0.008 A 
HETATM   16  C   UNK N   1      35.599  10.940  18.849  0.00  0.00     0.001 A 
HETATM   17  C   UNK N   1      35.585  12.099  19.627  0.00  0.00     0.000 A 
HETATM   18  C   UNK N   1      35.224  13.321  19.052  0.00  0.00     0.001 A 
HETATM   19  C   UNK N   1      34.875  13.382  17.699  0.00  0.00     0.008 A 
ENDBRANCH  13  14
BRANCH  13  20
HETATM   20  C   UNK N   1      34.163  10.945  14.864  0.00  0.00     0.183 C 
BRANCH  20  21
HETATM   21  O   UNK N   1      35.110  10.596  13.901  0.00  0.00    -0.400 OA
HETATM   22  H   UNK N   1      34.934   9.983  13.171  0.00  0.00     0.209 HD
ENDBRANCH  20  21
ENDBRANCH  13  20
ENDBRANCH   1  13
TORSDOF 6
ENDMDL
MODEL 7
REMARK VINA RESULT:      -6.0      2.271      5.937
REMARK  6 active torsions:
REMARK  status: ('A' for Active; 'I' for Inactive)
REMARK    1  A    between atoms: C_19  and  O_1 
REMARK    2  A    between atoms: C_2  and  O_1 
REMARK    3  A    between atoms: C_3  and  C_2 
REMARK    4  A    between atoms: C_3  and  C_7 
REMARK    5  A    between atoms: C_3  and  C_5 
REMARK    6  A    between atoms: O_6  and  C_5 
ROOT
HETATM    1  C   UNK N   1      26.645  25.494  -4.193  0.00  0.00     0.270 C 
HETATM    2  O   UNK N   1      25.902  24.595  -3.815  0.00  0.00    -0.264 OA
ENDROOT
BRANCH   1   3
HETATM    3  O   UNK N   1      27.999  25.380  -4.057  0.00  0.00    -0.315 OA
BRANCH   3   4
HETATM    4  C   UNK N   1      28.711  24.194  -4.174  0.00  0.00     0.136 C 
HETATM    5  C   UNK N   1      29.699  23.997  -2.999  0.00  0.00     0.068 C 
HETATM    6  C   UNK N   1      30.884  23.069  -3.345  0.00  0.00     0.225 C 
HETATM    7  C   UNK N   1      30.347  21.683  -3.667  0.00  0.00     0.038 C 
HETATM    8  N   UNK N   1      31.533  23.477  -4.592  0.00  0.00     0.093 N 
HETATM    9  C   UNK N   1      30.090  21.722  -5.175  0.00  0.00     0.038 C 
HETATM   10  C   UNK N   1      30.546  23.114  -5.605  0.00  0.00     0.225 C 
HETATM   11  C   UNK N   1      29.355  24.096  -5.569  0.00  0.00     0.068 C 
HETATM   12  C   UNK N   1      31.927  24.887  -4.631  0.00  0.00     0.310 C 
ENDBRANCH   3   4
ENDBRANCH   1   3
BRANCH   1  13
HETATM   13  C   UNK N   1      26.024  26.713  -4.826  0.00  0.00     0.142 C 
BRANCH  13  14
HETATM   14  C   UNK N   1      26.889  27.346  -5.901  0.00  0.00    -0.043 A 
HETATM   15  C   UNK N   1      27.124  26.700  -7.130  0.00  0.00     0.008 A 
HETATM   16  C   UNK N   1      27.926  27.301  -8.104  0.00  0.00     0.001 A 
HETATM   17  C   UNK N   1      28.499  28.551  -7.864  0.00  0.00     0.000 A 
HETATM   18  C   UNK N   1      28.268  29.203  -6.650  0.00  0.00     0.001 A 
HETATM   19  C   UNK N   1      27.467  28.603  -5.674  0.00  0.00     0.008 A 
ENDBRANCH  13  14
BRANCH  13  20
HETATM   20  C   UNK N   1      25.598  27.734  -3.776  0.00  0.00     0.183 C 
BRANCH  20  21
HETATM   21  O   UNK N   1      26.082  27.354  -2.523  0.00  0.00    -0.400 OA
HETATM   22  H   UNK N   1      26.340  26.446  -2.300  0.00  0.00     0.209 HD
ENDBRANCH  20  21
ENDBRANCH  13  20
ENDBRANCH   1  13
TORSDOF 6
ENDMDL
MODEL 8
REMARK VINA RESULT:      -5.9     19.874     23.302
REMARK  6 active torsions:
REMARK  status: ('A' for Active; 'I' for Inactive)
REMARK    1  A    between atoms: C_19  and  O_1 
REMARK    2  A    between atoms: C_2  and  O_1 
REMARK    3  A    between atoms: C_3  and  C_2 
REMARK    4  A    between atoms: C_3  and  C_7 
REMARK    5  A    between atoms: C_3  and  C_5 
REMARK    6  A    between atoms: O_6  and  C_5 
ROOT
HETATM    1  C   UNK N   1      35.817  12.595  14.083  0.00  0.00     0.270 C 
HETATM    2  O   UNK N   1      36.696  11.752  13.945  0.00  0.00    -0.264 OA
ENDROOT
BRANCH   1   3
HETATM    3  O   UNK N   1      35.916  13.811  13.470  0.00  0.00    -0.315 OA
BRANCH   3   4
HETATM    4  C   UNK N   1      35.302  14.147  12.272  0.00  0.00     0.136 C 
HETATM    5  C   UNK N   1      35.415  13.009  11.228  0.00  0.00     0.068 C 
HETATM    6  C   UNK N   1      35.301  13.504   9.769  0.00  0.00     0.225 C 
HETATM    7  C   UNK N   1      33.925  14.115   9.562  0.00  0.00     0.038 C 
HETATM    8  N   UNK N   1      36.210  14.622   9.514  0.00  0.00     0.093 N 
HETATM    9  C   UNK N   1      34.112  15.590   9.923  0.00  0.00     0.038 C 
HETATM   10  C   UNK N   1      35.595  15.715  10.262  0.00  0.00     0.225 C 
HETATM   11  C   UNK N   1      35.810  15.514  11.778  0.00  0.00     0.068 C 
HETATM   12  C   UNK N   1      37.602  14.363   9.885  0.00  0.00     0.310 C 
ENDBRANCH   3   4
ENDBRANCH   1   3
BRANCH   1  13
HETATM   13  C   UNK N   1      34.620  12.244  14.931  0.00  0.00     0.142 C 
BRANCH  13  14
HETATM   14  C   UNK N   1      34.893  12.309  16.423  0.00  0.00    -0.043 A 
HETATM   15  C   UNK N   1      34.938  13.537  17.110  0.00  0.00     0.008 A 
HETATM   16  C   UNK N   1      35.194  13.572  18.483  0.00  0.00     0.001 A 
HETATM   17  C   UNK N   1      35.406  12.384  19.185  0.00  0.00     0.000 A 
HETATM   18  C   UNK N   1      35.360  11.160  18.514  0.00  0.00     0.001 A 
HETATM   19  C   UNK N   1      35.104  11.123  17.140  0.00  0.00     0.008 A 
ENDBRANCH  13  14
BRANCH  13  20
HETATM   20  C   UNK N   1      34.021  10.902  14.528  0.00  0.00     0.183 C 
BRANCH  20  21
HETATM   21  O   UNK N   1      33.818  10.869  13.148  0.00  0.00    -0.400 OA
HETATM   22  H   UNK N   1      34.274  11.455  12.524  0.00  0.00     0.209 HD
ENDBRANCH  20  21
ENDBRANCH  13  20
ENDBRANCH   1  13
TORSDOF 6
ENDMDL
MODEL 9
REMARK VINA RESULT:      -5.9     11.262     14.754
REMARK  6 active torsions:
REMARK  status: ('A' for Active; 'I' for Inactive)
REMARK    1  A    between atoms: C_19  and  O_1 
REMARK    2  A    between atoms: C_2  and  O_1 
REMARK    3  A    between atoms: C_3  and  C_2 
REMARK    4  A    between atoms: C_3  and  C_7 
REMARK    5  A    between atoms: C_3  and  C_5 
REMARK    6  A    between atoms: O_6  and  C_5 
ROOT
HETATM    1  C   UNK N   1      28.889  16.782   6.408  0.00  0.00     0.270 C 
HETATM    2  O   UNK N   1      27.861  16.114   6.412  0.00  0.00    -0.264 OA
ENDROOT
BRANCH   1   3
HETATM    3  O   UNK N   1      29.826  16.622   7.390  0.00  0.00    -0.315 OA
BRANCH   3   4
HETATM    4  C   UNK N   1      31.176  16.911   7.251  0.00  0.00     0.136 C 
HETATM    5  C   UNK N   1      31.975  15.691   6.731  0.00  0.00     0.068 C 
HETATM    6  C   UNK N   1      33.474  15.737   7.104  0.00  0.00     0.225 C 
HETATM    7  C   UNK N   1      34.108  16.953   6.449  0.00  0.00     0.038 C 
HETATM    8  N   UNK N   1      33.658  15.989   8.534  0.00  0.00     0.093 N 
HETATM    9  C   UNK N   1      33.937  18.068   7.483  0.00  0.00     0.038 C 
HETATM   10  C   UNK N   1      33.260  17.387   8.670  0.00  0.00     0.225 C 
HETATM   11  C   UNK N   1      31.726  17.521   8.553  0.00  0.00     0.068 C 
HETATM   12  C   UNK N   1      32.916  15.077   9.405  0.00  0.00     0.310 C 
ENDBRANCH   3   4
ENDBRANCH   1   3
BRANCH   1  13
HETATM   13  C   UNK N   1      29.096  17.768   5.287  0.00  0.00     0.142 C 
BRANCH  13  14
HETATM   14  C   UNK N   1      28.144  18.949   5.334  0.00  0.00    -0.043 A 
HETATM   15  C   UNK N   1      27.488  19.412   4.177  0.00  0.00     0.008 A 
HETATM   16  C   UNK N   1      26.619  20.504   4.245  0.00  0.00     0.001 A 
HETATM   17  C   UNK N   1      26.393  21.143   5.465  0.00  0.00     0.000 A 
HETATM   18  C   UNK N   1      27.035  20.690   6.620  0.00  0.00     0.001 A 
HETATM   19  C   UNK N   1      27.906  19.598   6.554  0.00  0.00     0.008 A 
ENDBRANCH  13  14
BRANCH  13  20
HETATM   20  C   UNK N   1      29.073  17.082   3.926  0.00  0.00     0.183 C 
BRANCH  20  21
HETATM   21  O   UNK N   1      30.307  17.239   3.296  0.00  0.00    -0.400 OA
HETATM   22  H   UNK N   1      31.148  16.942   3.678  0.00  0.00     0.209 HD
ENDBRANCH  20  21
ENDBRANCH  13  20
ENDBRANCH   1  13
TORSDOF 6
ENDMDL
