MODEL 1
REMARK VINA RESULT:      -3.8      0.000      0.000
REMARK  2 active torsions:
REMARK  status: ('A' for Active; 'I' for Inactive)
REMARK    1  A    between atoms: O_1  and  C_6 
REMARK    2  A    between atoms: C_4  and  C_6 
ROOT
HETATM    1  O   UNK N   1      21.080  20.504   0.026  0.00  0.00    -0.644 OA
HETATM    2  C   UNK N   1      20.872  21.249   0.971  0.00  0.00     0.213 C 
ENDROOT
BRANCH   2   3
HETATM    3  O   UNK N   1      20.330  22.464   0.754  0.00  0.00    -0.771 OA
HETATM    4  H   UNK N   1      20.449  23.149   1.382  0.00  0.00     0.167 HD
ENDBRANCH   2   3
BRANCH   2   5
HETATM    5  C   UNK N   1      21.211  20.825   2.342  0.00  0.00     0.218 C 
HETATM    6  O   UNK N   1      22.243  21.212   2.865  0.00  0.00    -0.286 OA
HETATM    7  C   UNK N   1      20.299  19.920   3.102  0.00  0.00     0.103 C 
ENDBRANCH   2   5
TORSDOF 2
ENDMDL
MODEL 2
REMARK VINA RESULT:      -3.7     13.844     15.009
REMARK  2 active torsions:
REMARK  status: ('A' for Active; 'I' for Inactive)
REMARK    1  A    between atoms: O_1  and  C_6 
REMARK    2  A    between atoms: C_4  and  C_6 
ROOT
HETATM    1  O   UNK N   1      35.259  19.133   8.461  0.00  0.00    -0.644 OA
HETATM    2  C   UNK N   1      34.498  18.178   8.473  0.00  0.00     0.213 C 
ENDROOT
BRANCH   2   3
HETATM    3  O   UNK N   1      34.350  17.458   9.602  0.00  0.00    -0.771 OA
HETATM    4  H   UNK N   1      35.009  16.841   9.854  0.00  0.00     0.167 HD
ENDBRANCH   2   3
BRANCH   2   5
HETATM    5  C   UNK N   1      33.742  17.813   7.259  0.00  0.00     0.218 C 
HETATM    6  O   UNK N   1      34.278  17.870   6.166  0.00  0.00    -0.286 OA
HETATM    7  C   UNK N   1      32.319  17.373   7.357  0.00  0.00     0.103 C 
ENDBRANCH   2   5
TORSDOF 2
ENDMDL
MODEL 3
REMARK VINA RESULT:      -3.6     15.134     15.976
REMARK  2 active torsions:
REMARK  status: ('A' for Active; 'I' for Inactive)
REMARK    1  A    between atoms: O_1  and  C_6 
REMARK    2  A    between atoms: C_4  and  C_6 
ROOT
HETATM    1  O   UNK N   1      35.594  17.318  10.301  0.00  0.00    -0.644 OA
HETATM    2  C   UNK N   1      34.670  17.223   9.508  0.00  0.00     0.213 C 
ENDROOT
BRANCH   2   3
HETATM    3  O   UNK N   1      33.718  16.290   9.703  0.00  0.00    -0.771 OA
HETATM    4  H   UNK N   1      32.920  16.519  10.136  0.00  0.00     0.167 HD
ENDBRANCH   2   3
BRANCH   2   5
HETATM    5  C   UNK N   1      34.596  18.124   8.342  0.00  0.00     0.218 C 
HETATM    6  O   UNK N   1      35.114  19.227   8.387  0.00  0.00    -0.286 OA
HETATM    7  C   UNK N   1      33.888  17.697   7.098  0.00  0.00     0.103 C 
ENDBRANCH   2   5
TORSDOF 2
ENDMDL
MODEL 4
REMARK VINA RESULT:      -3.5     12.884     13.755
REMARK  2 active torsions:
REMARK  status: ('A' for Active; 'I' for Inactive)
REMARK    1  A    between atoms: O_1  and  C_6 
REMARK    2  A    between atoms: C_4  and  C_6 
ROOT
HETATM    1  O   UNK N   1      23.264  11.932  13.154  0.00  0.00    -0.644 OA
HETATM    2  C   UNK N   1      23.651  12.025  12.000  0.00  0.00     0.213 C 
ENDROOT
BRANCH   2   3
HETATM    3  O   UNK N   1      24.948  12.292  11.752  0.00  0.00    -0.771 OA
HETATM    4  H   UNK N   1      25.616  11.915  12.292  0.00  0.00     0.167 HD
ENDBRANCH   2   3
BRANCH   2   5
HETATM    5  C   UNK N   1      22.706  11.847  10.881  0.00  0.00     0.218 C 
HETATM    6  O   UNK N   1      23.072  11.303   9.853  0.00  0.00    -0.286 OA
HETATM    7  C   UNK N   1      21.297  12.329  10.996  0.00  0.00     0.103 C 
ENDBRANCH   2   5
TORSDOF 2
ENDMDL
MODEL 5
REMARK VINA RESULT:      -3.4     10.959     11.546
REMARK  2 active torsions:
REMARK  status: ('A' for Active; 'I' for Inactive)
REMARK    1  A    between atoms: O_1  and  C_6 
REMARK    2  A    between atoms: C_4  and  C_6 
ROOT
HETATM    1  O   UNK N   1      31.662  21.322  -4.043  0.00  0.00    -0.644 OA
HETATM    2  C   UNK N   1      31.744  21.796  -2.921  0.00  0.00     0.213 C 
ENDROOT
BRANCH   2   3
HETATM    3  O   UNK N   1      32.619  21.274  -2.040  0.00  0.00    -0.771 OA
HETATM    4  H   UNK N   1      33.019  20.444  -2.212  0.00  0.00     0.167 HD
ENDBRANCH   2   3
BRANCH   2   5
HETATM    5  C   UNK N   1      30.889  22.933  -2.530  0.00  0.00     0.218 C 
HETATM    6  O   UNK N   1      30.395  22.972  -1.416  0.00  0.00    -0.286 OA
HETATM    7  C   UNK N   1      30.622  24.045  -3.490  0.00  0.00     0.103 C 
ENDBRANCH   2   5
TORSDOF 2
ENDMDL
MODEL 6
REMARK VINA RESULT:      -3.2      2.025      2.930
REMARK  2 active torsions:
REMARK  status: ('A' for Active; 'I' for Inactive)
REMARK    1  A    between atoms: O_1  and  C_6 
REMARK    2  A    between atoms: C_4  and  C_6 
ROOT
HETATM    1  O   UNK N   1      20.035  18.184   2.196  0.00  0.00    -0.644 OA
HETATM    2  C   UNK N   1      20.406  18.708   1.157  0.00  0.00     0.213 C 
ENDROOT
BRANCH   2   3
HETATM    3  O   UNK N   1      20.365  18.007   0.006  0.00  0.00    -0.771 OA
HETATM    4  H   UNK N   1      19.540  17.784  -0.378  0.00  0.00     0.167 HD
ENDBRANCH   2   3
BRANCH   2   5
HETATM    5  C   UNK N   1      20.896  20.099   1.159  0.00  0.00     0.218 C 
HETATM    6  O   UNK N   1      21.099  20.677   0.104  0.00  0.00    -0.286 OA
HETATM    7  C   UNK N   1      21.147  20.812   2.446  0.00  0.00     0.103 C 
ENDBRANCH   2   5
TORSDOF 2
ENDMDL
MODEL 7
REMARK VINA RESULT:      -3.1     10.765     11.370
REMARK  2 active torsions:
REMARK  status: ('A' for Active; 'I' for Inactive)
REMARK    1  A    between atoms: O_1  and  C_6 
REMARK    2  A    between atoms: C_4  and  C_6 
ROOT
HETATM    1  O   UNK N   1      30.715  23.002  -1.742  0.00  0.00    -0.644 OA
HETATM    2  C   UNK N   1      31.125  22.188  -2.554  0.00  0.00     0.213 C 
ENDROOT
BRANCH   2   3
HETATM    3  O   UNK N   1      32.209  21.443  -2.262  0.00  0.00    -0.771 OA
HETATM    4  H   UNK N   1      32.424  21.258  -1.369  0.00  0.00     0.167 HD
ENDBRANCH   2   3
BRANCH   2   5
HETATM    5  C   UNK N   1      30.439  22.019  -3.850  0.00  0.00     0.218 C 
HETATM    6  O   UNK N   1      29.575  22.809  -4.191  0.00  0.00    -0.286 OA
HETATM    7  C   UNK N   1      30.794  20.884  -4.753  0.00  0.00     0.103 C 
ENDBRANCH   2   5
TORSDOF 2
ENDMDL
MODEL 8
REMARK VINA RESULT:      -3.1      1.973      2.525
REMARK  2 active torsions:
REMARK  status: ('A' for Active; 'I' for Inactive)
REMARK    1  A    between atoms: O_1  and  C_6 
REMARK    2  A    between atoms: C_4  and  C_6 
ROOT
HETATM    1  O   UNK N   1      19.409  18.507   2.406  0.00  0.00    -0.644 OA
HETATM    2  C   UNK N   1      20.263  19.278   1.999  0.00  0.00     0.213 C 
ENDROOT
BRANCH   2   3
HETATM    3  O   UNK N   1      20.552  19.318   0.684  0.00  0.00    -0.771 OA
HETATM    4  H   UNK N   1      21.171  19.941   0.359  0.00  0.00     0.167 HD
ENDBRANCH   2   3
BRANCH   2   5
HETATM    5  C   UNK N   1      20.977  20.162   2.940  0.00  0.00     0.218 C 
HETATM    6  O   UNK N   1      20.375  20.685   3.863  0.00  0.00    -0.286 OA
HETATM    7  C   UNK N   1      22.437  20.425   2.774  0.00  0.00     0.103 C 
ENDBRANCH   2   5
TORSDOF 2
ENDMDL
MODEL 9
REMARK VINA RESULT:      -3.0     20.867     21.520
REMARK  2 active torsions:
REMARK  status: ('A' for Active; 'I' for Inactive)
REMARK    1  A    between atoms: O_1  and  C_6 
REMARK    2  A    between atoms: C_4  and  C_6 
ROOT
HETATM    1  O   UNK N   1      37.421  14.559  15.683  0.00  0.00    -0.644 OA
HETATM    2  C   UNK N   1      36.631  14.129  14.856  0.00  0.00     0.213 C 
ENDROOT
BRANCH   2   3
HETATM    3  O   UNK N   1      36.852  14.353  13.546  0.00  0.00    -0.771 OA
HETATM    4  H   UNK N   1      36.349  13.895  12.902  0.00  0.00     0.167 HD
ENDBRANCH   2   3
BRANCH   2   5
HETATM    5  C   UNK N   1      35.443  13.370  15.288  0.00  0.00     0.218 C 
HETATM    6  O   UNK N   1      34.632  12.982  14.463  0.00  0.00    -0.286 OA
HETATM    7  C   UNK N   1      35.220  13.069  16.733  0.00  0.00     0.103 C 
ENDBRANCH   2   5
TORSDOF 2
ENDMDL
