MODEL 1
REMARK VINA RESULT:      -6.4      0.000      0.000
REMARK  8 active torsions:
REMARK  status: ('A' for Active; 'I' for Inactive)
REMARK    1  A    between atoms: C_14  and  C_12 
REMARK    2  A    between atoms: C_17  and  C_12 
REMARK    3  A    between atoms: C_15  and  C_13 
REMARK    4  A    between atoms: C_16  and  C_18 
REMARK    5  A    between atoms: C_19  and  C_17 
REMARK    6  A    between atoms: C_17  and  N_20 
REMARK    7  A    between atoms: C_18  and  O_22 
REMARK    8  A    between atoms: O_24  and  C_19 
ROOT
HETATM    1  C   UNK N   1      27.168  25.098  -3.547  0.00  0.00     0.116 C 
HETATM    2  N   UNK N   1      26.604  26.254  -3.357  0.00  0.00    -0.359 N 
ATOM      3  HN  UNK N   1      25.981  26.335  -2.554  1.00  0.00     0.162 HD
ENDROOT
BRANCH   2   4
HETATM    4  C   UNK N   1      26.774  27.442  -4.175  0.00  0.00     0.185 C 
BRANCH   4   5
HETATM    5  C   UNK N   1      25.795  27.394  -5.361  0.00  0.00     0.074 C 
BRANCH   5   6
HETATM    6  C   UNK N   1      26.423  27.197  -6.712  0.00  0.00    -0.056 A 
HETATM    7  C   UNK N   1      25.865  26.260  -7.591  0.00  0.00     0.007 A 
HETATM    8  C   UNK N   1      26.435  26.049  -8.852  0.00  0.00     0.001 A 
HETATM    9  C   UNK N   1      27.570  26.769  -9.233  0.00  0.00     0.000 A 
HETATM   10  C   UNK N   1      28.135  27.699  -8.355  0.00  0.00     0.001 A 
HETATM   11  C   UNK N   1      27.562  27.913  -7.097  0.00  0.00     0.007 A 
ENDBRANCH   5   6
ENDBRANCH   4   5
BRANCH   4  12
HETATM   12  C   UNK N   1      26.611  28.688  -3.343  0.00  0.00     0.163 C 
HETATM   13  O   UNK N   1      27.114  28.747  -2.233  0.00  0.00    -0.648 OA
BRANCH  12  14
HETATM   14  O   UNK N   1      25.911  29.740  -3.810  0.00  0.00    -0.775 OA
HETATM   15  H   UNK N   1      26.110  30.503  -4.316  0.00  0.00     0.167 HD
ENDBRANCH  12  14
ENDBRANCH   4  12
ENDBRANCH   2   4
BRANCH   1  16
HETATM   16  C   UNK N   1      28.147  24.844  -4.687  0.00  0.00     0.060 C 
HETATM   17  C   UNK N   1      29.296  25.865  -4.675  0.00  0.00     0.013 C 
HETATM   18  C   UNK N   1      30.237  25.636  -3.483  0.00  0.00     0.006 C 
HETATM   19  C   UNK N   1      30.819  24.212  -3.490  0.00  0.00    -0.011 C 
HETATM   20  C   UNK N   1      29.662  23.208  -3.472  0.00  0.00     0.006 C 
HETATM   21  C   UNK N   1      28.728  23.424  -4.661  0.00  0.00     0.013 C 
BRANCH  19  22
HETATM   22  C   UNK N   1      31.741  23.985  -4.706  0.00  0.00    -0.019 C 
HETATM   23  C   UNK N   1      32.479  22.659  -4.613  0.00  0.00     0.010 C 
HETATM   24  C   UNK N   1      32.767  25.099  -4.834  0.00  0.00     0.010 C 
ENDBRANCH  19  22
ENDBRANCH   1  16
BRANCH   1  25
HETATM   25  O   UNK N   1      26.823  24.083  -2.735  0.00  0.00    -0.349 OA
HETATM   26  H   UNK N   1      27.180  23.527  -2.071  0.00  0.00     0.219 HD
ENDBRANCH   1  25
TORSDOF 8
ENDMDL
MODEL 2
REMARK VINA RESULT:      -6.3     15.641     18.388
REMARK  8 active torsions:
REMARK  status: ('A' for Active; 'I' for Inactive)
REMARK    1  A    between atoms: C_14  and  C_12 
REMARK    2  A    between atoms: C_17  and  C_12 
REMARK    3  A    between atoms: C_15  and  C_13 
REMARK    4  A    between atoms: C_16  and  C_18 
REMARK    5  A    between atoms: C_19  and  C_17 
REMARK    6  A    between atoms: C_17  and  N_20 
REMARK    7  A    between atoms: C_18  and  O_22 
REMARK    8  A    between atoms: O_24  and  C_19 
ROOT
HETATM    1  C   UNK N   1      33.542  15.218   9.883  0.00  0.00     0.116 C 
HETATM    2  N   UNK N   1      33.376  16.425   9.429  0.00  0.00    -0.359 N 
ATOM      3  HN  UNK N   1      32.740  17.028   9.952  1.00  0.00     0.162 HD
ENDROOT
BRANCH   2   4
HETATM    4  C   UNK N   1      34.005  17.000   8.254  0.00  0.00     0.185 C 
BRANCH   4   5
HETATM    5  C   UNK N   1      32.921  17.442   7.255  0.00  0.00     0.074 C 
BRANCH   5   6
HETATM    6  C   UNK N   1      33.071  16.909   5.859  0.00  0.00    -0.056 A 
HETATM    7  C   UNK N   1      33.786  15.721   5.657  0.00  0.00     0.007 A 
HETATM    8  C   UNK N   1      33.948  15.207   4.366  0.00  0.00     0.001 A 
HETATM    9  C   UNK N   1      33.403  15.884   3.271  0.00  0.00     0.000 A 
HETATM   10  C   UNK N   1      32.697  17.074   3.467  0.00  0.00     0.001 A 
HETATM   11  C   UNK N   1      32.530  17.585   4.759  0.00  0.00     0.007 A 
ENDBRANCH   5   6
ENDBRANCH   4   5
BRANCH   4  12
HETATM   12  C   UNK N   1      34.927  18.128   8.642  0.00  0.00     0.163 C 
HETATM   13  O   UNK N   1      35.044  19.096   7.910  0.00  0.00    -0.648 OA
BRANCH  12  14
HETATM   14  O   UNK N   1      35.627  18.077   9.792  0.00  0.00    -0.775 OA
HETATM   15  H   UNK N   1      35.640  17.515  10.541  0.00  0.00     0.167 HD
ENDBRANCH  12  14
ENDBRANCH   4  12
ENDBRANCH   2   4
BRANCH   1  16
HETATM   16  C   UNK N   1      34.487  14.221   9.222  0.00  0.00     0.060 C 
HETATM   17  C   UNK N   1      35.927  14.755   9.184  0.00  0.00     0.013 C 
HETATM   18  C   UNK N   1      36.548  14.795  10.587  0.00  0.00     0.006 C 
HETATM   19  C   UNK N   1      36.537  13.404  11.248  0.00  0.00    -0.011 C 
HETATM   20  C   UNK N   1      35.092  12.900  11.305  0.00  0.00     0.006 C 
HETATM   21  C   UNK N   1      34.472  12.849   9.910  0.00  0.00     0.013 C 
BRANCH  19  22
HETATM   22  C   UNK N   1      37.449  12.415  10.495  0.00  0.00    -0.019 C 
HETATM   23  C   UNK N   1      37.592  11.099  11.243  0.00  0.00     0.010 C 
HETATM   24  C   UNK N   1      38.836  12.999  10.279  0.00  0.00     0.010 C 
ENDBRANCH  19  22
ENDBRANCH   1  16
BRANCH   1  25
HETATM   25  O   UNK N   1      32.805  14.829  10.939  0.00  0.00    -0.349 OA
HETATM   26  H   UNK N   1      32.296  15.183  11.641  0.00  0.00     0.219 HD
ENDBRANCH   1  25
TORSDOF 8
ENDMDL
MODEL 3
REMARK VINA RESULT:      -6.3      3.154      6.136
REMARK  8 active torsions:
REMARK  status: ('A' for Active; 'I' for Inactive)
REMARK    1  A    between atoms: C_14  and  C_12 
REMARK    2  A    between atoms: C_17  and  C_12 
REMARK    3  A    between atoms: C_15  and  C_13 
REMARK    4  A    between atoms: C_16  and  C_18 
REMARK    5  A    between atoms: C_19  and  C_17 
REMARK    6  A    between atoms: C_17  and  N_20 
REMARK    7  A    between atoms: C_18  and  O_22 
REMARK    8  A    between atoms: O_24  and  C_19 
ROOT
HETATM    1  C   UNK N   1      25.742  24.532  -5.322  0.00  0.00     0.116 C 
HETATM    2  N   UNK N   1      25.686  23.400  -5.959  0.00  0.00    -0.359 N 
ATOM      3  HN  UNK N   1      25.726  22.552  -5.394  1.00  0.00     0.162 HD
ENDROOT
BRANCH   2   4
HETATM    4  C   UNK N   1      25.571  23.223  -7.396  0.00  0.00     0.185 C 
BRANCH   4   5
HETATM    5  C   UNK N   1      26.971  23.271  -8.033  0.00  0.00     0.074 C 
BRANCH   5   6
HETATM    6  C   UNK N   1      27.979  22.318  -7.455  0.00  0.00    -0.056 A 
HETATM    7  C   UNK N   1      28.745  22.724  -6.355  0.00  0.00     0.007 A 
HETATM    8  C   UNK N   1      29.698  21.861  -5.802  0.00  0.00     0.001 A 
HETATM    9  C   UNK N   1      29.892  20.592  -6.354  0.00  0.00     0.000 A 
HETATM   10  C   UNK N   1      29.136  20.186  -7.457  0.00  0.00     0.001 A 
HETATM   11  C   UNK N   1      28.180  21.047  -8.006  0.00  0.00     0.007 A 
ENDBRANCH   5   6
ENDBRANCH   4   5
BRANCH   4  12
HETATM   12  C   UNK N   1      24.834  21.948  -7.717  0.00  0.00     0.163 C 
HETATM   13  O   UNK N   1      24.239  21.352  -6.836  0.00  0.00    -0.648 OA
BRANCH  12  14
HETATM   14  O   UNK N   1      24.829  21.455  -8.971  0.00  0.00    -0.775 OA
HETATM   15  H   UNK N   1      25.062  20.640  -9.369  0.00  0.00     0.167 HD
ENDBRANCH  12  14
ENDBRANCH   4  12
ENDBRANCH   2   4
BRANCH   1  16
HETATM   16  C   UNK N   1      25.659  25.876  -6.036  0.00  0.00     0.060 C 
HETATM   17  C   UNK N   1      24.967  26.933  -5.161  0.00  0.00     0.013 C 
HETATM   18  C   UNK N   1      25.848  27.338  -3.970  0.00  0.00     0.006 C 
HETATM   19  C   UNK N   1      27.213  27.874  -4.436  0.00  0.00    -0.011 C 
HETATM   20  C   UNK N   1      27.901  26.798  -5.281  0.00  0.00     0.006 C 
HETATM   21  C   UNK N   1      27.034  26.398  -6.473  0.00  0.00     0.013 C 
BRANCH  19  22
HETATM   22  C   UNK N   1      27.064  29.194  -5.219  0.00  0.00    -0.019 C 
HETATM   23  C   UNK N   1      28.343  29.562  -5.954  0.00  0.00     0.010 C 
HETATM   24  C   UNK N   1      26.693  30.343  -4.295  0.00  0.00     0.010 C 
ENDBRANCH  19  22
ENDBRANCH   1  16
BRANCH   1  25
HETATM   25  O   UNK N   1      25.937  24.502  -3.991  0.00  0.00    -0.349 OA
HETATM   26  H   UNK N   1      25.480  24.636  -3.184  0.00  0.00     0.219 HD
ENDBRANCH   1  25
TORSDOF 8
ENDMDL
MODEL 4
REMARK VINA RESULT:      -6.2      3.292      4.597
REMARK  8 active torsions:
REMARK  status: ('A' for Active; 'I' for Inactive)
REMARK    1  A    between atoms: C_14  and  C_12 
REMARK    2  A    between atoms: C_17  and  C_12 
REMARK    3  A    between atoms: C_15  and  C_13 
REMARK    4  A    between atoms: C_16  and  C_18 
REMARK    5  A    between atoms: C_19  and  C_17 
REMARK    6  A    between atoms: C_17  and  N_20 
REMARK    7  A    between atoms: C_18  and  O_22 
REMARK    8  A    between atoms: O_24  and  C_19 
ROOT
HETATM    1  C   UNK N   1      28.381  23.896  -7.816  0.00  0.00     0.116 C 
HETATM    2  N   UNK N   1      27.469  24.629  -8.382  0.00  0.00    -0.359 N 
ATOM      3  HN  UNK N   1      27.761  25.187  -9.185  1.00  0.00     0.162 HD
ENDROOT
BRANCH   2   4
HETATM    4  C   UNK N   1      26.075  24.733  -7.987  0.00  0.00     0.185 C 
BRANCH   4   5
HETATM    5  C   UNK N   1      25.646  26.210  -8.000  0.00  0.00     0.074 C 
BRANCH   5   6
HETATM    6  C   UNK N   1      25.977  26.991  -6.760  0.00  0.00    -0.056 A 
HETATM    7  C   UNK N   1      25.070  26.988  -5.692  0.00  0.00     0.007 A 
HETATM    8  C   UNK N   1      25.348  27.715  -4.529  0.00  0.00     0.001 A 
HETATM    9  C   UNK N   1      26.531  28.454  -4.434  0.00  0.00     0.000 A 
HETATM   10  C   UNK N   1      27.434  28.467  -5.501  0.00  0.00     0.001 A 
HETATM   11  C   UNK N   1      27.158  27.736  -6.662  0.00  0.00     0.007 A 
ENDBRANCH   5   6
ENDBRANCH   4   5
BRANCH   4  12
HETATM   12  C   UNK N   1      25.207  23.871  -8.868  0.00  0.00     0.163 C 
HETATM   13  O   UNK N   1      25.186  24.062 -10.072  0.00  0.00    -0.648 OA
BRANCH  12  14
HETATM   14  O   UNK N   1      24.450  22.891  -8.338  0.00  0.00    -0.775 OA
HETATM   15  H   UNK N   1      24.469  22.385  -7.550  0.00  0.00     0.167 HD
ENDBRANCH  12  14
ENDBRANCH   4  12
ENDBRANCH   2   4
BRANCH   1  16
HETATM   16  C   UNK N   1      28.078  22.987  -6.630  0.00  0.00     0.060 C 
HETATM   17  C   UNK N   1      29.172  21.923  -6.447  0.00  0.00     0.013 C 
HETATM   18  C   UNK N   1      30.484  22.548  -5.953  0.00  0.00     0.006 C 
HETATM   19  C   UNK N   1      30.283  23.308  -4.629  0.00  0.00    -0.011 C 
HETATM   20  C   UNK N   1      29.213  24.383  -4.838  0.00  0.00     0.006 C 
HETATM   21  C   UNK N   1      27.901  23.767  -5.320  0.00  0.00     0.013 C 
BRANCH  19  22
HETATM   22  C   UNK N   1      29.903  22.351  -3.481  0.00  0.00    -0.019 C 
HETATM   23  C   UNK N   1      29.834  23.073  -2.145  0.00  0.00     0.010 C 
HETATM   24  C   UNK N   1      30.902  21.211  -3.361  0.00  0.00     0.010 C 
ENDBRANCH  19  22
ENDBRANCH   1  16
BRANCH   1  25
HETATM   25  O   UNK N   1      29.645  23.995  -8.267  0.00  0.00    -0.349 OA
HETATM   26  H   UNK N   1      30.508  24.214  -7.975  0.00  0.00     0.219 HD
ENDBRANCH   1  25
TORSDOF 8
ENDMDL
MODEL 5
REMARK VINA RESULT:      -6.2     20.338     23.153
REMARK  8 active torsions:
REMARK  status: ('A' for Active; 'I' for Inactive)
REMARK    1  A    between atoms: C_14  and  C_12 
REMARK    2  A    between atoms: C_17  and  C_12 
REMARK    3  A    between atoms: C_15  and  C_13 
REMARK    4  A    between atoms: C_16  and  C_18 
REMARK    5  A    between atoms: C_19  and  C_17 
REMARK    6  A    between atoms: C_17  and  N_20 
REMARK    7  A    between atoms: C_18  and  O_22 
REMARK    8  A    between atoms: O_24  and  C_19 
ROOT
HETATM    1  C   UNK N   1      36.480  14.168  14.124  0.00  0.00     0.116 C 
HETATM    2  N   UNK N   1      36.724  14.855  13.047  0.00  0.00    -0.359 N 
ATOM      3  HN  UNK N   1      37.455  15.564  13.110  1.00  0.00     0.162 HD
ENDROOT
BRANCH   2   4
HETATM    4  C   UNK N   1      36.058  14.715  11.764  0.00  0.00     0.185 C 
BRANCH   4   5
HETATM    5  C   UNK N   1      35.485  16.075  11.331  0.00  0.00     0.074 C 
BRANCH   5   6
HETATM    6  C   UNK N   1      34.486  16.030  10.209  0.00  0.00    -0.056 A 
HETATM    7  C   UNK N   1      34.467  17.071   9.272  0.00  0.00     0.007 A 
HETATM    8  C   UNK N   1      33.542  17.059   8.223  0.00  0.00     0.001 A 
HETATM    9  C   UNK N   1      32.625  16.009   8.113  0.00  0.00     0.000 A 
HETATM   10  C   UNK N   1      32.635  14.973   9.051  0.00  0.00     0.001 A 
HETATM   11  C   UNK N   1      33.564  14.982  10.097  0.00  0.00     0.007 A 
ENDBRANCH   5   6
ENDBRANCH   4   5
BRANCH   4  12
HETATM   12  C   UNK N   1      36.997  14.132  10.739  0.00  0.00     0.163 C 
HETATM   13  O   UNK N   1      36.914  12.952  10.441  0.00  0.00    -0.648 OA
BRANCH  12  14
HETATM   14  O   UNK N   1      37.933  14.901  10.149  0.00  0.00    -0.775 OA
HETATM   15  H   UNK N   1      38.353  15.713  10.351  0.00  0.00     0.167 HD
ENDBRANCH  12  14
ENDBRANCH   4  12
ENDBRANCH   2   4
BRANCH   1  16
HETATM   16  C   UNK N   1      35.439  13.055  14.164  0.00  0.00     0.060 C 
HETATM   17  C   UNK N   1      36.049  11.703  13.764  0.00  0.00     0.013 C 
HETATM   18  C   UNK N   1      37.012  11.182  14.841  0.00  0.00     0.006 C 
HETATM   19  C   UNK N   1      36.311  11.043  16.204  0.00  0.00    -0.011 C 
HETATM   20  C   UNK N   1      35.735  12.405  16.601  0.00  0.00     0.006 C 
HETATM   21  C   UNK N   1      34.768  12.925  15.538  0.00  0.00     0.013 C 
BRANCH  19  22
HETATM   22  C   UNK N   1      35.215   9.958  16.167  0.00  0.00    -0.019 C 
HETATM   23  C   UNK N   1      34.622   9.709  17.545  0.00  0.00     0.010 C 
HETATM   24  C   UNK N   1      35.760   8.644  15.632  0.00  0.00     0.010 C 
ENDBRANCH  19  22
ENDBRANCH   1  16
BRANCH   1  25
HETATM   25  O   UNK N   1      37.138  14.498  15.250  0.00  0.00    -0.349 OA
HETATM   26  H   UNK N   1      36.994  14.632  16.165  0.00  0.00     0.219 HD
ENDBRANCH   1  25
TORSDOF 8
ENDMDL
MODEL 6
REMARK VINA RESULT:      -6.1     13.823     16.042
REMARK  8 active torsions:
REMARK  status: ('A' for Active; 'I' for Inactive)
REMARK    1  A    between atoms: C_14  and  C_12 
REMARK    2  A    between atoms: C_17  and  C_12 
REMARK    3  A    between atoms: C_15  and  C_13 
REMARK    4  A    between atoms: C_16  and  C_18 
REMARK    5  A    between atoms: C_19  and  C_17 
REMARK    6  A    between atoms: C_17  and  N_20 
REMARK    7  A    between atoms: C_18  and  O_22 
REMARK    8  A    between atoms: O_24  and  C_19 
ROOT
HETATM    1  C   UNK N   1      30.980  18.091   8.749  0.00  0.00     0.116 C 
HETATM    2  N   UNK N   1      32.275  18.090   8.630  0.00  0.00    -0.359 N 
ATOM      3  HN  UNK N   1      32.765  18.928   8.943  1.00  0.00     0.162 HD
ENDROOT
BRANCH   2   4
HETATM    4  C   UNK N   1      33.093  17.015   8.097  0.00  0.00     0.185 C 
BRANCH   4   5
HETATM    5  C   UNK N   1      33.964  17.554   6.948  0.00  0.00     0.074 C 
BRANCH   5   6
HETATM    6  C   UNK N   1      33.705  16.946   5.599  0.00  0.00    -0.056 A 
HETATM    7  C   UNK N   1      34.148  15.641   5.344  0.00  0.00     0.007 A 
HETATM    8  C   UNK N   1      33.929  15.054   4.093  0.00  0.00     0.001 A 
HETATM    9  C   UNK N   1      33.273  15.773   3.090  0.00  0.00     0.000 A 
HETATM   10  C   UNK N   1      32.838  17.078   3.337  0.00  0.00     0.001 A 
HETATM   11  C   UNK N   1      33.053  17.663   4.589  0.00  0.00     0.007 A 
ENDBRANCH   5   6
ENDBRANCH   4   5
BRANCH   4  12
HETATM   12  C   UNK N   1      33.910  16.376   9.190  0.00  0.00     0.163 C 
HETATM   13  O   UNK N   1      34.050  15.165   9.214  0.00  0.00    -0.648 OA
BRANCH  12  14
HETATM   14  O   UNK N   1      34.488  17.129  10.145  0.00  0.00    -0.775 OA
HETATM   15  H   UNK N   1      35.336  17.503  10.278  0.00  0.00     0.167 HD
ENDBRANCH  12  14
ENDBRANCH   4  12
ENDBRANCH   2   4
BRANCH   1  16
HETATM   16  C   UNK N   1      30.124  16.894   8.352  0.00  0.00     0.060 C 
HETATM   17  C   UNK N   1      28.626  17.205   8.498  0.00  0.00     0.013 C 
HETATM   18  C   UNK N   1      28.157  18.209   7.436  0.00  0.00     0.006 C 
HETATM   19  C   UNK N   1      28.436  17.696   6.012  0.00  0.00    -0.011 C 
HETATM   20  C   UNK N   1      29.936  17.419   5.875  0.00  0.00     0.006 C 
HETATM   21  C   UNK N   1      30.407  16.413   6.923  0.00  0.00     0.013 C 
BRANCH  19  22
HETATM   22  C   UNK N   1      27.601  16.439   5.691  0.00  0.00    -0.019 C 
HETATM   23  C   UNK N   1      27.970  15.847   4.340  0.00  0.00     0.010 C 
HETATM   24  C   UNK N   1      26.113  16.753   5.689  0.00  0.00     0.010 C 
ENDBRANCH  19  22
ENDBRANCH   1  16
BRANCH   1  25
HETATM   25  O   UNK N   1      30.384  19.214   9.185  0.00  0.00    -0.349 OA
HETATM   26  H   UNK N   1      29.606  19.722   9.061  0.00  0.00     0.219 HD
ENDBRANCH   1  25
TORSDOF 8
ENDMDL
MODEL 7
REMARK VINA RESULT:      -6.1     13.945     15.942
REMARK  8 active torsions:
REMARK  status: ('A' for Active; 'I' for Inactive)
REMARK    1  A    between atoms: C_14  and  C_12 
REMARK    2  A    between atoms: C_17  and  C_12 
REMARK    3  A    between atoms: C_15  and  C_13 
REMARK    4  A    between atoms: C_16  and  C_18 
REMARK    5  A    between atoms: C_19  and  C_17 
REMARK    6  A    between atoms: C_17  and  N_20 
REMARK    7  A    between atoms: C_18  and  O_22 
REMARK    8  A    between atoms: O_24  and  C_19 
ROOT
HETATM    1  C   UNK N   1      19.519  16.451   4.165  0.00  0.00     0.116 C 
HETATM    2  N   UNK N   1      19.339  17.244   3.150  0.00  0.00    -0.359 N 
ATOM      3  HN  UNK N   1      18.422  17.681   3.066  1.00  0.00     0.162 HD
ENDROOT
BRANCH   2   4
HETATM    4  C   UNK N   1      20.314  17.567   2.123  0.00  0.00     0.185 C 
BRANCH   4   5
HETATM    5  C   UNK N   1      19.941  16.848   0.815  0.00  0.00     0.074 C 
BRANCH   5   6
HETATM    6  C   UNK N   1      20.237  15.375   0.778  0.00  0.00    -0.056 A 
HETATM    7  C   UNK N   1      19.174  14.471   0.660  0.00  0.00     0.007 A 
HETATM    8  C   UNK N   1      19.419  13.094   0.633  0.00  0.00     0.001 A 
HETATM    9  C   UNK N   1      20.729  12.616   0.733  0.00  0.00     0.000 A 
HETATM   10  C   UNK N   1      21.792  13.515   0.860  0.00  0.00     0.001 A 
HETATM   11  C   UNK N   1      21.547  14.892   0.882  0.00  0.00     0.007 A 
ENDBRANCH   5   6
ENDBRANCH   4   5
BRANCH   4  12
HETATM   12  C   UNK N   1      20.427  19.060   1.949  0.00  0.00     0.163 C 
HETATM   13  O   UNK N   1      20.321  19.794   2.917  0.00  0.00    -0.648 OA
BRANCH  12  14
HETATM   14  O   UNK N   1      20.641  19.595   0.731  0.00  0.00    -0.775 OA
HETATM   15  H   UNK N   1      21.299  20.141   0.349  0.00  0.00     0.167 HD
ENDBRANCH  12  14
ENDBRANCH   4  12
ENDBRANCH   2   4
BRANCH   1  16
HETATM   16  C   UNK N   1      20.849  15.757   4.432  0.00  0.00     0.060 C 
HETATM   17  C   UNK N   1      21.414  16.141   5.808  0.00  0.00     0.013 C 
HETATM   18  C   UNK N   1      20.582  15.532   6.946  0.00  0.00     0.006 C 
HETATM   19  C   UNK N   1      20.510  13.999   6.833  0.00  0.00    -0.011 C 
HETATM   20  C   UNK N   1      19.918  13.634   5.469  0.00  0.00     0.006 C 
HETATM   21  C   UNK N   1      20.747  14.228   4.332  0.00  0.00     0.013 C 
BRANCH  19  22
HETATM   22  C   UNK N   1      21.896  13.352   7.035  0.00  0.00    -0.019 C 
HETATM   23  C   UNK N   1      21.828  11.835   6.950  0.00  0.00     0.010 C 
HETATM   24  C   UNK N   1      22.489  13.733   8.382  0.00  0.00     0.010 C 
ENDBRANCH  19  22
ENDBRANCH   1  16
BRANCH   1  25
HETATM   25  O   UNK N   1      18.469  16.200   4.968  0.00  0.00    -0.349 OA
HETATM   26  H   UNK N   1      18.265  16.004   5.861  0.00  0.00     0.219 HD
ENDBRANCH   1  25
TORSDOF 8
ENDMDL
MODEL 8
REMARK VINA RESULT:      -6.0     13.064     15.519
REMARK  8 active torsions:
REMARK  status: ('A' for Active; 'I' for Inactive)
REMARK    1  A    between atoms: C_14  and  C_12 
REMARK    2  A    between atoms: C_17  and  C_12 
REMARK    3  A    between atoms: C_15  and  C_13 
REMARK    4  A    between atoms: C_16  and  C_18 
REMARK    5  A    between atoms: C_19  and  C_17 
REMARK    6  A    between atoms: C_17  and  N_20 
REMARK    7  A    between atoms: C_18  and  O_22 
REMARK    8  A    between atoms: O_24  and  C_19 
ROOT
HETATM    1  C   UNK N   1      29.159  17.667   5.629  0.00  0.00     0.116 C 
HETATM    2  N   UNK N   1      29.216  18.213   6.808  0.00  0.00    -0.359 N 
ATOM      3  HN  UNK N   1      29.198  19.233   6.842  1.00  0.00     0.162 HD
ENDROOT
BRANCH   2   4
HETATM    4  C   UNK N   1      29.302  17.518   8.080  0.00  0.00     0.185 C 
BRANCH   4   5
HETATM    5  C   UNK N   1      30.605  17.916   8.795  0.00  0.00     0.074 C 
BRANCH   5   6
HETATM    6  C   UNK N   1      31.868  17.365   8.195  0.00  0.00    -0.056 A 
HETATM    7  C   UNK N   1      32.977  18.209   8.052  0.00  0.00     0.007 A 
HETATM    8  C   UNK N   1      34.163  17.726   7.488  0.00  0.00     0.001 A 
HETATM    9  C   UNK N   1      34.240  16.398   7.058  0.00  0.00     0.000 A 
HETATM   10  C   UNK N   1      33.133  15.555   7.191  0.00  0.00     0.001 A 
HETATM   11  C   UNK N   1      31.949  16.037   7.759  0.00  0.00     0.007 A 
ENDBRANCH   5   6
ENDBRANCH   4   5
BRANCH   4  12
HETATM   12  C   UNK N   1      28.078  17.786   8.917  0.00  0.00     0.163 C 
HETATM   13  O   UNK N   1      27.658  16.925   9.671  0.00  0.00    -0.648 OA
BRANCH  12  14
HETATM   14  O   UNK N   1      27.439  18.969   8.838  0.00  0.00    -0.775 OA
HETATM   15  H   UNK N   1      27.672  19.837   8.575  0.00  0.00     0.167 HD
ENDBRANCH  12  14
ENDBRANCH   4  12
ENDBRANCH   2   4
BRANCH   1  16
HETATM   16  C   UNK N   1      29.144  16.156   5.430  0.00  0.00     0.060 C 
HETATM   17  C   UNK N   1      27.712  15.630   5.242  0.00  0.00     0.013 C 
HETATM   18  C   UNK N   1      27.129  16.065   3.891  0.00  0.00     0.006 C 
HETATM   19  C   UNK N   1      28.006  15.589   2.719  0.00  0.00    -0.011 C 
HETATM   20  C   UNK N   1      29.420  16.146   2.906  0.00  0.00     0.006 C 
HETATM   21  C   UNK N   1      30.010  15.708   4.245  0.00  0.00     0.013 C 
BRANCH  19  22
HETATM   22  C   UNK N   1      28.017  14.050   2.611  0.00  0.00    -0.019 C 
HETATM   23  C   UNK N   1      28.948  13.569   1.510  0.00  0.00     0.010 C 
HETATM   24  C   UNK N   1      26.624  13.508   2.334  0.00  0.00     0.010 C 
ENDBRANCH  19  22
ENDBRANCH   1  16
BRANCH   1  25
HETATM   25  O   UNK N   1      29.171  18.475   4.554  0.00  0.00    -0.349 OA
HETATM   26  H   UNK N   1      29.765  18.870   3.946  0.00  0.00     0.219 HD
ENDBRANCH   1  25
TORSDOF 8
ENDMDL
MODEL 9
REMARK VINA RESULT:      -5.8      1.318      1.965
REMARK  8 active torsions:
REMARK  status: ('A' for Active; 'I' for Inactive)
REMARK    1  A    between atoms: C_14  and  C_12 
REMARK    2  A    between atoms: C_17  and  C_12 
REMARK    3  A    between atoms: C_15  and  C_13 
REMARK    4  A    between atoms: C_16  and  C_18 
REMARK    5  A    between atoms: C_19  and  C_17 
REMARK    6  A    between atoms: C_17  and  N_20 
REMARK    7  A    between atoms: C_18  and  O_22 
REMARK    8  A    between atoms: O_24  and  C_19 
ROOT
HETATM    1  C   UNK N   1      27.540  24.467  -3.257  0.00  0.00     0.116 C 
HETATM    2  N   UNK N   1      26.447  25.123  -3.511  0.00  0.00    -0.359 N 
ATOM      3  HN  UNK N   1      25.610  24.834  -3.004  1.00  0.00     0.162 HD
ENDROOT
BRANCH   2   4
HETATM    4  C   UNK N   1      26.298  26.226  -4.444  0.00  0.00     0.185 C 
BRANCH   4   5
HETATM    5  C   UNK N   1      25.286  25.842  -5.537  0.00  0.00     0.074 C 
BRANCH   5   6
HETATM    6  C   UNK N   1      25.866  25.602  -6.902  0.00  0.00    -0.056 A 
HETATM    7  C   UNK N   1      25.803  24.316  -7.451  0.00  0.00     0.007 A 
HETATM    8  C   UNK N   1      26.343  24.062  -8.717  0.00  0.00     0.001 A 
HETATM    9  C   UNK N   1      26.957  25.093  -9.433  0.00  0.00     0.000 A 
HETATM   10  C   UNK N   1      27.030  26.377  -8.884  0.00  0.00     0.001 A 
HETATM   11  C   UNK N   1      26.485  26.631  -7.621  0.00  0.00     0.007 A 
ENDBRANCH   5   6
ENDBRANCH   4   5
BRANCH   4  12
HETATM   12  C   UNK N   1      25.912  27.489  -3.717  0.00  0.00     0.163 C 
HETATM   13  O   UNK N   1      25.442  28.427  -4.337  0.00  0.00    -0.648 OA
BRANCH  12  14
HETATM   14  O   UNK N   1      26.084  27.594  -2.385  0.00  0.00    -0.775 OA
HETATM   15  H   UNK N   1      26.796  27.823  -1.820  0.00  0.00     0.167 HD
ENDBRANCH  12  14
ENDBRANCH   4  12
ENDBRANCH   2   4
BRANCH   1  16
HETATM   16  C   UNK N   1      28.871  24.812  -3.915  0.00  0.00     0.060 C 
HETATM   17  C   UNK N   1      30.051  24.191  -3.151  0.00  0.00     0.013 C 
HETATM   18  C   UNK N   1      30.082  22.665  -3.312  0.00  0.00     0.006 C 
HETATM   19  C   UNK N   1      30.161  22.256  -4.794  0.00  0.00    -0.011 C 
HETATM   20  C   UNK N   1      28.963  22.857  -5.534  0.00  0.00     0.006 C 
HETATM   21  C   UNK N   1      28.932  24.377  -5.386  0.00  0.00     0.013 C 
BRANCH  19  22
HETATM   22  C   UNK N   1      31.494  22.697  -5.431  0.00  0.00    -0.019 C 
HETATM   23  C   UNK N   1      31.601  22.252  -6.881  0.00  0.00     0.010 C 
HETATM   24  C   UNK N   1      32.682  22.135  -4.666  0.00  0.00     0.010 C 
ENDBRANCH  19  22
ENDBRANCH   1  16
BRANCH   1  25
HETATM   25  O   UNK N   1      27.469  23.413  -2.424  0.00  0.00    -0.349 OA
HETATM   26  H   UNK N   1      27.228  22.507  -2.414  0.00  0.00     0.219 HD
ENDBRANCH   1  25
TORSDOF 8
ENDMDL
