MODEL 1
REMARK VINA RESULT:      -0.8      0.000      0.000
REMARK  8 active torsions:
REMARK  status: ('A' for Active; 'I' for Inactive)
REMARK    1  A    between atoms: C_8  and  O_1 
REMARK    2  A    between atoms: C_2  and  O_1 
REMARK    3  A    between atoms: C_2  and  C_15 
REMARK    4  A    between atoms: Br_10  and  Br_10 
REMARK    5  A    between atoms: C_15  and  C_16 
REMARK    6  A    between atoms: C_15  and  C_17 
REMARK    7  A    between atoms: C_16  and  C_18 
REMARK    8  A    between atoms: C_17  and  C_20 
ROOT
HETATM    1 Br   UNK N   1      18.864  27.442 -11.952  0.00  0.00     0.000 Br
ENDROOT
TORSDOF 8
ENDMDL
MODEL 2
REMARK VINA RESULT:      -0.8     39.469     39.469
REMARK  8 active torsions:
REMARK  status: ('A' for Active; 'I' for Inactive)
REMARK    1  A    between atoms: C_8  and  O_1 
REMARK    2  A    between atoms: C_2  and  O_1 
REMARK    3  A    between atoms: C_2  and  C_15 
REMARK    4  A    between atoms: Br_10  and  Br_10 
REMARK    5  A    between atoms: C_15  and  C_16 
REMARK    6  A    between atoms: C_15  and  C_17 
REMARK    7  A    between atoms: C_16  and  C_18 
REMARK    8  A    between atoms: C_17  and  C_20 
ROOT
HETATM    1 Br   UNK N   1      30.715   7.763  20.144  0.00  0.00     0.000 Br
ENDROOT
TORSDOF 8
ENDMDL
MODEL 3
REMARK VINA RESULT:      -0.8     34.722     34.722
REMARK  8 active torsions:
REMARK  status: ('A' for Active; 'I' for Inactive)
REMARK    1  A    between atoms: C_8  and  O_1 
REMARK    2  A    between atoms: C_2  and  O_1 
REMARK    3  A    between atoms: C_2  and  C_15 
REMARK    4  A    between atoms: Br_10  and  Br_10 
REMARK    5  A    between atoms: C_15  and  C_16 
REMARK    6  A    between atoms: C_15  and  C_17 
REMARK    7  A    between atoms: C_16  and  C_18 
REMARK    8  A    between atoms: C_17  and  C_20 
ROOT
HETATM    1 Br   UNK N   1      33.792  10.781  14.603  0.00  0.00     0.000 Br
ENDROOT
TORSDOF 8
ENDMDL
MODEL 4
REMARK VINA RESULT:      -0.8     20.839     20.839
REMARK  8 active torsions:
REMARK  status: ('A' for Active; 'I' for Inactive)
REMARK    1  A    between atoms: C_8  and  O_1 
REMARK    2  A    between atoms: C_2  and  O_1 
REMARK    3  A    between atoms: C_2  and  C_15 
REMARK    4  A    between atoms: Br_10  and  Br_10 
REMARK    5  A    between atoms: C_15  and  C_16 
REMARK    6  A    between atoms: C_15  and  C_17 
REMARK    7  A    between atoms: C_16  and  C_18 
REMARK    8  A    between atoms: C_17  and  C_20 
ROOT
HETATM    1 Br   UNK N   1      27.062  21.453   6.247  0.00  0.00     0.000 Br
ENDROOT
TORSDOF 8
ENDMDL
MODEL 5
REMARK VINA RESULT:      -0.7     28.178     28.178
REMARK  8 active torsions:
REMARK  status: ('A' for Active; 'I' for Inactive)
REMARK    1  A    between atoms: C_8  and  O_1 
REMARK    2  A    between atoms: C_2  and  O_1 
REMARK    3  A    between atoms: C_2  and  C_15 
REMARK    4  A    between atoms: Br_10  and  Br_10 
REMARK    5  A    between atoms: C_15  and  C_16 
REMARK    6  A    between atoms: C_15  and  C_17 
REMARK    7  A    between atoms: C_16  and  C_18 
REMARK    8  A    between atoms: C_17  and  C_20 
ROOT
HETATM    1 Br   UNK N   1      22.864  12.062  11.318  0.00  0.00     0.000 Br
ENDROOT
TORSDOF 8
ENDMDL
MODEL 6
REMARK VINA RESULT:      -0.7     36.627     36.627
REMARK  8 active torsions:
REMARK  status: ('A' for Active; 'I' for Inactive)
REMARK    1  A    between atoms: C_8  and  O_1 
REMARK    2  A    between atoms: C_2  and  O_1 
REMARK    3  A    between atoms: C_2  and  C_15 
REMARK    4  A    between atoms: Br_10  and  Br_10 
REMARK    5  A    between atoms: C_15  and  C_16 
REMARK    6  A    between atoms: C_15  and  C_17 
REMARK    7  A    between atoms: C_16  and  C_18 
REMARK    8  A    between atoms: C_17  and  C_20 
ROOT
HETATM    1 Br   UNK N   1      35.127  13.193  17.612  0.00  0.00     0.000 Br
ENDROOT
TORSDOF 8
ENDMDL
MODEL 7
REMARK VINA RESULT:      -0.7     26.872     26.872
REMARK  8 active torsions:
REMARK  status: ('A' for Active; 'I' for Inactive)
REMARK    1  A    between atoms: C_8  and  O_1 
REMARK    2  A    between atoms: C_2  and  O_1 
REMARK    3  A    between atoms: C_2  and  C_15 
REMARK    4  A    between atoms: Br_10  and  Br_10 
REMARK    5  A    between atoms: C_15  and  C_16 
REMARK    6  A    between atoms: C_15  and  C_17 
REMARK    7  A    between atoms: C_16  and  C_18 
REMARK    8  A    between atoms: C_17  and  C_20 
ROOT
HETATM    1 Br   UNK N   1      34.201  18.151   8.062  0.00  0.00     0.000 Br
ENDROOT
TORSDOF 8
ENDMDL
MODEL 8
REMARK VINA RESULT:      -0.7     26.466     26.466
REMARK  8 active torsions:
REMARK  status: ('A' for Active; 'I' for Inactive)
REMARK    1  A    between atoms: C_8  and  O_1 
REMARK    2  A    between atoms: C_2  and  O_1 
REMARK    3  A    between atoms: C_2  and  C_15 
REMARK    4  A    between atoms: Br_10  and  Br_10 
REMARK    5  A    between atoms: C_15  and  C_16 
REMARK    6  A    between atoms: C_15  and  C_17 
REMARK    7  A    between atoms: C_16  and  C_18 
REMARK    8  A    between atoms: C_17  and  C_20 
ROOT
HETATM    1 Br   UNK N   1      21.265  13.070  10.142  0.00  0.00     0.000 Br
ENDROOT
TORSDOF 8
ENDMDL
MODEL 9
REMARK VINA RESULT:      -0.7     25.010     25.010
REMARK  8 active torsions:
REMARK  status: ('A' for Active; 'I' for Inactive)
REMARK    1  A    between atoms: C_8  and  O_1 
REMARK    2  A    between atoms: C_2  and  O_1 
REMARK    3  A    between atoms: C_2  and  C_15 
REMARK    4  A    between atoms: Br_10  and  Br_10 
REMARK    5  A    between atoms: C_15  and  C_16 
REMARK    6  A    between atoms: C_15  and  C_17 
REMARK    7  A    between atoms: C_16  and  C_18 
REMARK    8  A    between atoms: C_17  and  C_20 
ROOT
HETATM    1 Br   UNK N   1      28.283  17.863   9.144  0.00  0.00     0.000 Br
ENDROOT
TORSDOF 8
ENDMDL
