MODEL 1
REMARK VINA RESULT:      -7.4      0.000      0.000
REMARK  10 active torsions:
REMARK  status: ('A' for Active; 'I' for Inactive)
REMARK    1  A    between atoms: C_12  and  C_1 
REMARK    2  A    between atoms: S_16  and  C_2 
REMARK    3  A    between atoms: C_8  and  C_6 
REMARK    4  A    between atoms: C_8  and  O_9 
REMARK    5  A    between atoms: O_14  and  C_12 
REMARK    6  A    between atoms: C_17  and  S_16 
REMARK    7  A    between atoms: C_20  and  C_22 
REMARK       I    between atoms: N_24  and  C_22 
REMARK    8  A    between atoms: C_25  and  N_24 
REMARK    9  A    between atoms: C_31  and  C_29 
REMARK   10  A    between atoms: O_32  and  C_31 
ROOT
HETATM    1  C   UNK N   1      34.758  13.603   4.993  0.00  0.00     0.072 C 
HETATM    2  C   UNK N   1      34.888  13.002   3.618  0.00  0.00     0.130 C 
HETATM    3  N   UNK N   1      33.766  13.513   2.826  0.00  0.00    -0.408 N 
HETATM    4  C   UNK N   1      32.972  14.361   3.722  0.00  0.00     0.171 C 
HETATM    5  C   UNK N   1      33.299  13.880   5.124  0.00  0.00     0.051 C 
HETATM    6  H   UNK N   1      33.574  13.316   1.844  0.00  0.00     0.154 HD
ENDROOT
BRANCH   1   7
HETATM    7  S   UNK N   1      35.581  12.655   6.314  0.00  0.00    -0.125 SA
BRANCH   7   8
HETATM    8  C   UNK N   1      35.538  13.500   7.934  0.00  0.00     0.018 C 
HETATM    9  C   UNK N   1      34.537  13.604   8.829  0.00  0.00     0.125 C 
HETATM   10  N   UNK N   1      35.146  13.848  10.049  0.00  0.00    -0.304 N 
HETATM   11  C   UNK N   1      36.523  13.510  10.086  0.00  0.00     0.117 A 
HETATM   12  C   UNK N   1      35.061  14.269  11.272  0.00  0.00     0.233 A 
HETATM   13  C   UNK N   1      36.827  13.968   8.652  0.00  0.00     0.048 C 
HETATM   14  C   UNK N   1      36.508  14.120  11.601  0.00  0.00     0.130 A 
HETATM   15  C   UNK N   1      38.132  13.425   8.099  0.00  0.00     0.018 C 
HETATM   16  O   UNK N   1      34.083  14.698  11.858  0.00  0.00    -0.272 OA
BRANCH   9  17
HETATM   17  C   UNK N   1      33.085  13.362   8.722  0.00  0.00     0.195 C 
HETATM   18  O   UNK N   1      32.646  12.397   8.137  0.00  0.00    -0.645 OA
BRANCH  17  19
HETATM   19  O   UNK N   1      32.225  14.262   9.239  0.00  0.00    -0.772 OA
HETATM   20  H   UNK N   1      32.384  15.182   9.164  0.00  0.00     0.167 HD
ENDBRANCH  17  19
ENDBRANCH   9  17
BRANCH  14  21
HETATM   21  C   UNK N   1      36.764  13.022  12.638  0.00  0.00     0.129 C 
HETATM   22  C   UNK N   1      36.597  13.518  14.060  0.00  0.00     0.040 C 
BRANCH  21  23
HETATM   23  O   UNK N   1      38.047  12.499  12.471  0.00  0.00    -0.395 OA
HETATM   24  H   UNK N   1      38.650  12.363  13.219  0.00  0.00     0.210 HD
ENDBRANCH  21  23
ENDBRANCH  14  21
ENDBRANCH   7   8
ENDBRANCH   1   7
BRANCH   4  25
HETATM   25  C   UNK N   1      33.224  15.823   3.322  0.00  0.00     0.244 C 
HETATM   26  O   UNK N   1      33.568  16.005   2.165  0.00  0.00    -0.271 OA
HETATM   27  N   UNK N   1      33.182  16.928   4.134  0.00  0.00    -0.325 N 
HETATM   28  H   UNK N   1      33.481  17.749   3.680  0.00  0.00     0.169 HD
BRANCH  27  29
HETATM   29  C   UNK N   1      32.802  17.150   5.488  0.00  0.00     0.035 A 
HETATM   30  C   UNK N   1      31.477  17.079   5.935  0.00  0.00     0.029 A 
HETATM   31  C   UNK N   1      31.171  17.296   7.283  0.00  0.00     0.003 A 
HETATM   32  C   UNK N   1      32.186  17.619   8.188  0.00  0.00     0.018 A 
HETATM   33  C   UNK N   1      33.510  17.737   7.746  0.00  0.00     0.039 A 
HETATM   34  C   UNK N   1      33.805  17.507   6.397  0.00  0.00     0.047 A 
BRANCH  33  35
HETATM   35  C   UNK N   1      34.590  18.102   8.684  0.00  0.00     0.176 C 
HETATM   36  O   UNK N   1      34.853  17.380   9.634  0.00  0.00    -0.646 OA
BRANCH  35  37
HETATM   37  O   UNK N   1      35.292  19.239   8.502  0.00  0.00    -0.773 OA
HETATM   38  H   UNK N   1      36.160  19.450   8.782  0.00  0.00     0.167 HD
ENDBRANCH  35  37
ENDBRANCH  33  35
ENDBRANCH  27  29
ENDBRANCH   4  25
TORSDOF 10
ENDMDL
MODEL 2
REMARK VINA RESULT:      -7.4     10.463     12.917
REMARK  10 active torsions:
REMARK  status: ('A' for Active; 'I' for Inactive)
REMARK    1  A    between atoms: C_12  and  C_1 
REMARK    2  A    between atoms: S_16  and  C_2 
REMARK    3  A    between atoms: C_8  and  C_6 
REMARK    4  A    between atoms: C_8  and  O_9 
REMARK    5  A    between atoms: O_14  and  C_12 
REMARK    6  A    between atoms: C_17  and  S_16 
REMARK    7  A    between atoms: C_20  and  C_22 
REMARK       I    between atoms: N_24  and  C_22 
REMARK    8  A    between atoms: C_25  and  N_24 
REMARK    9  A    between atoms: C_31  and  C_29 
REMARK   10  A    between atoms: O_32  and  C_31 
ROOT
HETATM    1  C   UNK N   1      21.688  17.400   3.468  0.00  0.00     0.072 C 
HETATM    2  C   UNK N   1      20.411  17.791   2.770  0.00  0.00     0.130 C 
HETATM    3  N   UNK N   1      20.313  19.250   2.856  0.00  0.00    -0.408 N 
HETATM    4  C   UNK N   1      21.480  19.706   3.618  0.00  0.00     0.171 C 
HETATM    5  C   UNK N   1      21.914  18.507   4.441  0.00  0.00     0.051 C 
HETATM    6  H   UNK N   1      19.576  19.835   2.462  0.00  0.00     0.154 HD
ENDROOT
BRANCH   1   7
HETATM    7  S   UNK N   1      21.720  15.685   4.083  0.00  0.00    -0.125 SA
BRANCH   7   8
HETATM    8  C   UNK N   1      21.347  15.559   5.868  0.00  0.00     0.018 C 
HETATM    9  C   UNK N   1      20.178  15.324   6.493  0.00  0.00     0.125 C 
HETATM   10  N   UNK N   1      20.511  14.807   7.734  0.00  0.00    -0.304 N 
HETATM   11  C   UNK N   1      21.835  14.305   7.816  0.00  0.00     0.117 A 
HETATM   12  C   UNK N   1      20.172  14.537   8.956  0.00  0.00     0.233 A 
HETATM   13  C   UNK N   1      22.461  15.394   6.931  0.00  0.00     0.048 C 
HETATM   14  C   UNK N   1      21.506  14.032   9.391  0.00  0.00     0.130 A 
HETATM   15  C   UNK N   1      23.838  15.036   6.402  0.00  0.00     0.018 C 
HETATM   16  O   UNK N   1      19.103  14.734   9.505  0.00  0.00    -0.272 OA
BRANCH   9  17
HETATM   17  C   UNK N   1      18.778  15.386   6.029  0.00  0.00     0.195 C 
HETATM   18  O   UNK N   1      17.986  16.165   6.511  0.00  0.00    -0.645 OA
BRANCH  17  19
HETATM   19  O   UNK N   1      18.355  14.520   5.087  0.00  0.00    -0.772 OA
HETATM   20  H   UNK N   1      17.899  13.735   5.320  0.00  0.00     0.167 HD
ENDBRANCH  17  19
ENDBRANCH   9  17
BRANCH  14  21
HETATM   21  C   UNK N   1      21.494  12.531   9.698  0.00  0.00     0.129 C 
HETATM   22  C   UNK N   1      21.356  12.244  11.180  0.00  0.00     0.040 C 
BRANCH  21  23
HETATM   23  O   UNK N   1      22.659  11.937   9.211  0.00  0.00    -0.395 OA
HETATM   24  H   UNK N   1      23.531  12.125   9.591  0.00  0.00     0.210 HD
ENDBRANCH  21  23
ENDBRANCH  14  21
ENDBRANCH   7   8
ENDBRANCH   1   7
BRANCH   4  25
HETATM   25  C   UNK N   1      22.455  20.364   2.628  0.00  0.00     0.244 C 
HETATM   26  O   UNK N   1      21.940  20.972   1.703  0.00  0.00    -0.271 OA
HETATM   27  N   UNK N   1      23.824  20.277   2.625  0.00  0.00    -0.325 N 
HETATM   28  H   UNK N   1      24.232  20.697   1.833  0.00  0.00     0.169 HD
BRANCH  27  29
HETATM   29  C   UNK N   1      24.784  19.716   3.513  0.00  0.00     0.035 A 
HETATM   30  C   UNK N   1      25.253  18.400   3.404  0.00  0.00     0.029 A 
HETATM   31  C   UNK N   1      26.207  17.912   4.304  0.00  0.00     0.003 A 
HETATM   32  C   UNK N   1      26.676  18.726   5.338  0.00  0.00     0.018 A 
HETATM   33  C   UNK N   1      26.182  20.029   5.485  0.00  0.00     0.039 A 
HETATM   34  C   UNK N   1      25.235  20.510   4.573  0.00  0.00     0.047 A 
BRANCH  33  35
HETATM   35  C   UNK N   1      26.649  20.893   6.588  0.00  0.00     0.176 C 
HETATM   36  O   UNK N   1      27.259  21.924   6.348  0.00  0.00    -0.646 OA
BRANCH  35  37
HETATM   37  O   UNK N   1      26.409  20.548   7.869  0.00  0.00    -0.773 OA
HETATM   38  H   UNK N   1      26.778  20.896   8.656  0.00  0.00     0.167 HD
ENDBRANCH  35  37
ENDBRANCH  33  35
ENDBRANCH  27  29
ENDBRANCH   4  25
TORSDOF 10
ENDMDL
MODEL 3
REMARK VINA RESULT:      -7.4     13.316     16.873
REMARK  10 active torsions:
REMARK  status: ('A' for Active; 'I' for Inactive)
REMARK    1  A    between atoms: C_12  and  C_1 
REMARK    2  A    between atoms: S_16  and  C_2 
REMARK    3  A    between atoms: C_8  and  C_6 
REMARK    4  A    between atoms: C_8  and  O_9 
REMARK    5  A    between atoms: O_14  and  C_12 
REMARK    6  A    between atoms: C_17  and  S_16 
REMARK    7  A    between atoms: C_20  and  C_22 
REMARK       I    between atoms: N_24  and  C_22 
REMARK    8  A    between atoms: C_25  and  N_24 
REMARK    9  A    between atoms: C_31  and  C_29 
REMARK   10  A    between atoms: O_32  and  C_31 
ROOT
HETATM    1  C   UNK N   1      29.916  27.033  -4.060  0.00  0.00     0.072 C 
HETATM    2  C   UNK N   1      31.021  27.514  -3.156  0.00  0.00     0.130 C 
HETATM    3  N   UNK N   1      30.682  28.887  -2.769  0.00  0.00    -0.408 N 
HETATM    4  C   UNK N   1      29.430  29.221  -3.457  0.00  0.00     0.171 C 
HETATM    5  C   UNK N   1      29.370  28.288  -4.653  0.00  0.00     0.051 C 
HETATM    6  H   UNK N   1      31.213  29.491  -2.143  0.00  0.00     0.154 HD
ENDROOT
BRANCH   1   7
HETATM    7  S   UNK N   1      30.392  25.680  -5.183  0.00  0.00    -0.125 SA
BRANCH   7   8
HETATM    8  C   UNK N   1      31.510  24.462  -4.402  0.00  0.00     0.018 C 
HETATM    9  C   UNK N   1      31.260  23.549  -3.446  0.00  0.00     0.125 C 
HETATM   10  N   UNK N   1      32.230  22.570  -3.596  0.00  0.00    -0.304 N 
HETATM   11  C   UNK N   1      32.870  22.580  -4.861  0.00  0.00     0.117 A 
HETATM   12  C   UNK N   1      32.889  21.571  -3.101  0.00  0.00     0.233 A 
HETATM   13  C   UNK N   1      32.892  24.109  -5.005  0.00  0.00     0.048 C 
HETATM   14  C   UNK N   1      33.805  21.383  -4.263  0.00  0.00     0.130 A 
HETATM   15  C   UNK N   1      33.141  24.588  -6.423  0.00  0.00     0.018 C 
HETATM   16  O   UNK N   1      32.775  21.060  -2.001  0.00  0.00    -0.272 OA
BRANCH   9  17
HETATM   17  C   UNK N   1      30.143  23.393  -2.492  0.00  0.00     0.195 C 
HETATM   18  O   UNK N   1      29.003  23.647  -2.808  0.00  0.00    -0.645 OA
BRANCH  17  19
HETATM   19  O   UNK N   1      30.403  23.012  -1.226  0.00  0.00    -0.772 OA
HETATM   20  H   UNK N   1      29.970  23.417  -0.500  0.00  0.00     0.167 HD
ENDBRANCH  17  19
ENDBRANCH   9  17
BRANCH  14  21
HETATM   21  C   UNK N   1      33.550  20.065  -5.003  0.00  0.00     0.129 C 
HETATM   22  C   UNK N   1      34.221  18.884  -4.331  0.00  0.00     0.040 C 
BRANCH  21  23
HETATM   23  O   UNK N   1      33.995  20.168  -6.323  0.00  0.00    -0.395 OA
HETATM   24  H   UNK N   1      34.072  21.023  -6.775  0.00  0.00     0.210 HD
ENDBRANCH  21  23
ENDBRANCH  14  21
ENDBRANCH   7   8
ENDBRANCH   1   7
BRANCH   4  25
HETATM   25  C   UNK N   1      28.307  29.215  -2.409  0.00  0.00     0.244 C 
HETATM   26  O   UNK N   1      28.550  29.806  -1.368  0.00  0.00    -0.271 OA
HETATM   27  N   UNK N   1      27.103  28.561  -2.480  0.00  0.00    -0.325 N 
HETATM   28  H   UNK N   1      26.586  28.618  -1.645  0.00  0.00     0.169 HD
BRANCH  27  29
HETATM   29  C   UNK N   1      26.437  27.818  -3.496  0.00  0.00     0.035 A 
HETATM   30  C   UNK N   1      25.649  28.412  -4.490  0.00  0.00     0.029 A 
HETATM   31  C   UNK N   1      25.030  27.625  -5.467  0.00  0.00     0.003 A 
HETATM   32  C   UNK N   1      25.169  26.235  -5.438  0.00  0.00     0.018 A 
HETATM   33  C   UNK N   1      25.917  25.624  -4.423  0.00  0.00     0.039 A 
HETATM   34  C   UNK N   1      26.541  26.423  -3.457  0.00  0.00     0.047 A 
BRANCH  33  35
HETATM   35  C   UNK N   1      26.052  24.155  -4.364  0.00  0.00     0.176 C 
HETATM   36  O   UNK N   1      25.941  23.483  -5.378  0.00  0.00    -0.646 OA
BRANCH  35  37
HETATM   37  O   UNK N   1      26.295  23.543  -3.187  0.00  0.00    -0.773 OA
HETATM   38  H   UNK N   1      27.027  23.637  -2.611  0.00  0.00     0.167 HD
ENDBRANCH  35  37
ENDBRANCH  33  35
ENDBRANCH  27  29
ENDBRANCH   4  25
TORSDOF 10
ENDMDL
MODEL 4
REMARK VINA RESULT:      -7.1      9.826     13.554
REMARK  10 active torsions:
REMARK  status: ('A' for Active; 'I' for Inactive)
REMARK    1  A    between atoms: C_12  and  C_1 
REMARK    2  A    between atoms: S_16  and  C_2 
REMARK    3  A    between atoms: C_8  and  C_6 
REMARK    4  A    between atoms: C_8  and  O_9 
REMARK    5  A    between atoms: O_14  and  C_12 
REMARK    6  A    between atoms: C_17  and  S_16 
REMARK    7  A    between atoms: C_20  and  C_22 
REMARK       I    between atoms: N_24  and  C_22 
REMARK    8  A    between atoms: C_25  and  N_24 
REMARK    9  A    between atoms: C_31  and  C_29 
REMARK   10  A    between atoms: O_32  and  C_31 
ROOT
HETATM    1  C   UNK N   1      23.738  14.729   3.675  0.00  0.00     0.072 C 
HETATM    2  C   UNK N   1      24.039  13.696   2.620  0.00  0.00     0.130 C 
HETATM    3  N   UNK N   1      25.180  14.199   1.851  0.00  0.00    -0.408 N 
HETATM    4  C   UNK N   1      25.519  15.512   2.410  0.00  0.00     0.171 C 
HETATM    5  C   UNK N   1      24.250  15.999   3.085  0.00  0.00     0.051 C 
HETATM    6  H   UNK N   1      25.647  13.728   1.076  0.00  0.00     0.154 HD
ENDROOT
BRANCH   1   7
HETATM    7  S   UNK N   1      22.028  14.693   4.304  0.00  0.00    -0.125 SA
BRANCH   7   8
HETATM    8  C   UNK N   1      21.139  16.269   4.049  0.00  0.00     0.018 C 
HETATM    9  C   UNK N   1      21.329  17.472   4.622  0.00  0.00     0.125 C 
HETATM   10  N   UNK N   1      20.799  18.399   3.739  0.00  0.00    -0.304 N 
HETATM   11  C   UNK N   1      20.628  17.908   2.419  0.00  0.00     0.117 A 
HETATM   12  C   UNK N   1      20.348  19.593   3.515  0.00  0.00     0.233 A 
HETATM   13  C   UNK N   1      20.197  16.496   2.841  0.00  0.00     0.048 C 
HETATM   14  C   UNK N   1      19.955  19.360   2.096  0.00  0.00     0.130 A 
HETATM   15  C   UNK N   1      20.286  15.470   1.726  0.00  0.00     0.018 C 
HETATM   16  O   UNK N   1      20.249  20.523   4.296  0.00  0.00    -0.272 OA
BRANCH   9  17
HETATM   17  C   UNK N   1      22.072  17.888   5.828  0.00  0.00     0.195 C 
HETATM   18  O   UNK N   1      21.508  18.088   6.880  0.00  0.00    -0.645 OA
BRANCH  17  19
HETATM   19  O   UNK N   1      23.400  18.102   5.745  0.00  0.00    -0.772 OA
HETATM   20  H   UNK N   1      23.968  17.471   5.348  0.00  0.00     0.167 HD
ENDBRANCH  17  19
ENDBRANCH   9  17
BRANCH  14  21
HETATM   21  C   UNK N   1      20.816  20.158   1.110  0.00  0.00     0.129 C 
HETATM   22  C   UNK N   1      20.553  21.648   1.186  0.00  0.00     0.040 C 
BRANCH  21  23
HETATM   23  O   UNK N   1      20.590  19.706  -0.191  0.00  0.00    -0.395 OA
HETATM   24  H   UNK N   1      19.928  19.026  -0.393  0.00  0.00     0.210 HD
ENDBRANCH  21  23
ENDBRANCH  14  21
ENDBRANCH   7   8
ENDBRANCH   1   7
BRANCH   4  25
HETATM   25  C   UNK N   1      26.817  15.353   3.218  0.00  0.00     0.244 C 
HETATM   26  O   UNK N   1      27.253  14.215   3.301  0.00  0.00    -0.271 OA
HETATM   27  N   UNK N   1      27.490  16.324   3.914  0.00  0.00    -0.325 N 
HETATM   28  H   UNK N   1      28.241  15.967   4.441  0.00  0.00     0.169 HD
BRANCH  27  29
HETATM   29  C   UNK N   1      27.342  17.734   4.043  0.00  0.00     0.035 A 
HETATM   30  C   UNK N   1      28.245  18.539   4.749  0.00  0.00     0.029 A 
HETATM   31  C   UNK N   1      28.048  19.922   4.829  0.00  0.00     0.003 A 
HETATM   32  C   UNK N   1      26.929  20.505   4.231  0.00  0.00     0.018 A 
HETATM   33  C   UNK N   1      25.994  19.707   3.560  0.00  0.00     0.039 A 
HETATM   34  C   UNK N   1      26.207  18.325   3.478  0.00  0.00     0.047 A 
BRANCH  33  35
HETATM   35  C   UNK N   1      24.792  20.305   2.944  0.00  0.00     0.176 C 
HETATM   36  O   UNK N   1      24.841  20.762   1.812  0.00  0.00    -0.646 OA
BRANCH  35  37
HETATM   37  O   UNK N   1      23.633  20.356   3.629  0.00  0.00    -0.773 OA
HETATM   38  H   UNK N   1      22.764  20.507   3.314  0.00  0.00     0.167 HD
ENDBRANCH  35  37
ENDBRANCH  33  35
ENDBRANCH  27  29
ENDBRANCH   4  25
TORSDOF 10
ENDMDL
MODEL 5
REMARK VINA RESULT:      -7.1     13.333     17.094
REMARK  10 active torsions:
REMARK  status: ('A' for Active; 'I' for Inactive)
REMARK    1  A    between atoms: C_12  and  C_1 
REMARK    2  A    between atoms: S_16  and  C_2 
REMARK    3  A    between atoms: C_8  and  C_6 
REMARK    4  A    between atoms: C_8  and  O_9 
REMARK    5  A    between atoms: O_14  and  C_12 
REMARK    6  A    between atoms: C_17  and  S_16 
REMARK    7  A    between atoms: C_20  and  C_22 
REMARK       I    between atoms: N_24  and  C_22 
REMARK    8  A    between atoms: C_25  and  N_24 
REMARK    9  A    between atoms: C_31  and  C_29 
REMARK   10  A    between atoms: O_32  and  C_31 
ROOT
HETATM    1  C   UNK N   1      28.732  24.782  -5.728  0.00  0.00     0.072 C 
HETATM    2  C   UNK N   1      29.067  23.486  -6.419  0.00  0.00     0.130 C 
HETATM    3  N   UNK N   1      27.812  22.739  -6.547  0.00  0.00    -0.408 N 
HETATM    4  C   UNK N   1      26.771  23.555  -5.912  0.00  0.00     0.171 C 
HETATM    5  C   UNK N   1      27.507  24.459  -4.941  0.00  0.00     0.051 C 
HETATM    6  H   UNK N   1      27.688  21.830  -6.990  0.00  0.00     0.154 HD
ENDROOT
BRANCH   1   7
HETATM    7  S   UNK N   1      30.134  25.565  -4.867  0.00  0.00    -0.125 SA
BRANCH   7   8
HETATM    8  C   UNK N   1      31.330  24.354  -4.201  0.00  0.00     0.018 C 
HETATM    9  C   UNK N   1      31.161  23.390  -3.278  0.00  0.00     0.125 C 
HETATM   10  N   UNK N   1      32.155  22.455  -3.521  0.00  0.00    -0.304 N 
HETATM   11  C   UNK N   1      32.729  22.547  -4.814  0.00  0.00     0.117 A 
HETATM   12  C   UNK N   1      32.872  21.459  -3.108  0.00  0.00     0.233 A 
HETATM   13  C   UNK N   1      32.691  24.080  -4.886  0.00  0.00     0.048 C 
HETATM   14  C   UNK N   1      33.734  21.358  -4.320  0.00  0.00     0.130 A 
HETATM   15  C   UNK N   1      32.852  24.632  -6.291  0.00  0.00     0.018 C 
HETATM   16  O   UNK N   1      32.832  20.894  -2.028  0.00  0.00    -0.272 OA
BRANCH   9  17
HETATM   17  C   UNK N   1      30.100  23.150  -2.279  0.00  0.00     0.195 C 
HETATM   18  O   UNK N   1      30.352  23.063  -1.098  0.00  0.00    -0.645 OA
BRANCH  17  19
HETATM   19  O   UNK N   1      28.831  22.968  -2.694  0.00  0.00    -0.772 OA
HETATM   20  H   UNK N   1      28.266  22.353  -2.269  0.00  0.00     0.167 HD
ENDBRANCH  17  19
ENDBRANCH   9  17
BRANCH  14  21
HETATM   21  C   UNK N   1      33.488  20.067  -5.110  0.00  0.00     0.129 C 
HETATM   22  C   UNK N   1      34.214  18.878  -4.515  0.00  0.00     0.040 C 
BRANCH  21  23
HETATM   23  O   UNK N   1      33.880  20.241  -6.438  0.00  0.00    -0.395 OA
HETATM   24  H   UNK N   1      33.582  19.647  -7.145  0.00  0.00     0.210 HD
ENDBRANCH  21  23
ENDBRANCH  14  21
ENDBRANCH   7   8
ENDBRANCH   1   7
BRANCH   4  25
HETATM   25  C   UNK N   1      25.905  24.156  -7.031  0.00  0.00     0.244 C 
HETATM   26  O   UNK N   1      25.245  23.358  -7.677  0.00  0.00    -0.271 OA
HETATM   27  N   UNK N   1      25.853  25.467  -7.430  0.00  0.00    -0.325 N 
HETATM   28  H   UNK N   1      25.303  25.601  -8.236  0.00  0.00     0.169 HD
BRANCH  27  29
HETATM   29  C   UNK N   1      26.417  26.678  -6.936  0.00  0.00     0.035 A 
HETATM   30  C   UNK N   1      27.437  27.375  -7.598  0.00  0.00     0.029 A 
HETATM   31  C   UNK N   1      27.940  28.566  -7.064  0.00  0.00     0.003 A 
HETATM   32  C   UNK N   1      27.450  29.052  -5.850  0.00  0.00     0.018 A 
HETATM   33  C   UNK N   1      26.463  28.342  -5.156  0.00  0.00     0.039 A 
HETATM   34  C   UNK N   1      25.958  27.157  -5.704  0.00  0.00     0.047 A 
BRANCH  33  35
HETATM   35  C   UNK N   1      25.952  28.829  -3.859  0.00  0.00     0.176 C 
HETATM   36  O   UNK N   1      25.458  28.050  -3.058  0.00  0.00    -0.646 OA
BRANCH  35  37
HETATM   37  O   UNK N   1      26.022  30.140  -3.551  0.00  0.00    -0.773 OA
HETATM   38  H   UNK N   1      26.392  30.845  -4.044  0.00  0.00     0.167 HD
ENDBRANCH  35  37
ENDBRANCH  33  35
ENDBRANCH  27  29
ENDBRANCH   4  25
TORSDOF 10
ENDMDL
MODEL 6
REMARK VINA RESULT:      -7.1      2.578      3.759
REMARK  10 active torsions:
REMARK  status: ('A' for Active; 'I' for Inactive)
REMARK    1  A    between atoms: C_12  and  C_1 
REMARK    2  A    between atoms: S_16  and  C_2 
REMARK    3  A    between atoms: C_8  and  C_6 
REMARK    4  A    between atoms: C_8  and  O_9 
REMARK    5  A    between atoms: O_14  and  C_12 
REMARK    6  A    between atoms: C_17  and  S_16 
REMARK    7  A    between atoms: C_20  and  C_22 
REMARK       I    between atoms: N_24  and  C_22 
REMARK    8  A    between atoms: C_25  and  N_24 
REMARK    9  A    between atoms: C_31  and  C_29 
REMARK   10  A    between atoms: O_32  and  C_31 
ROOT
HETATM    1  C   UNK N   1      34.314  11.293   8.453  0.00  0.00     0.072 C 
HETATM    2  C   UNK N   1      34.345  10.095   7.541  0.00  0.00     0.130 C 
HETATM    3  N   UNK N   1      34.191  10.601   6.174  0.00  0.00    -0.408 N 
HETATM    4  C   UNK N   1      34.034  12.056   6.280  0.00  0.00     0.171 C 
HETATM    5  C   UNK N   1      33.526  12.302   7.689  0.00  0.00     0.051 C 
HETATM    6  H   UNK N   1      34.193  10.049   5.317  0.00  0.00     0.154 HD
ENDROOT
BRANCH   1   7
HETATM    7  S   UNK N   1      33.819  10.926  10.168  0.00  0.00    -0.125 SA
BRANCH   7   8
HETATM    8  C   UNK N   1      34.870  11.758  11.410  0.00  0.00     0.018 C 
HETATM    9  C   UNK N   1      35.009  13.068  11.688  0.00  0.00     0.125 C 
HETATM   10  N   UNK N   1      35.469  13.130  12.994  0.00  0.00    -0.304 N 
HETATM   11  C   UNK N   1      35.260  11.941  13.738  0.00  0.00     0.117 A 
HETATM   12  C   UNK N   1      36.045  13.801  13.941  0.00  0.00     0.233 A 
HETATM   13  C   UNK N   1      35.542  10.984  12.571  0.00  0.00     0.048 C 
HETATM   14  C   UNK N   1      36.068  12.695  14.940  0.00  0.00     0.130 A 
HETATM   15  C   UNK N   1      35.042   9.570  12.804  0.00  0.00     0.018 C 
HETATM   16  O   UNK N   1      36.464  14.945  13.910  0.00  0.00    -0.272 OA
BRANCH   9  17
HETATM   17  C   UNK N   1      34.631  14.284  10.941  0.00  0.00     0.195 C 
HETATM   18  O   UNK N   1      35.352  14.751  10.088  0.00  0.00    -0.645 OA
BRANCH  17  19
HETATM   19  O   UNK N   1      33.484  14.920  11.250  0.00  0.00    -0.772 OA
HETATM   20  H   UNK N   1      33.474  15.839  11.432  0.00  0.00     0.167 HD
ENDBRANCH  17  19
ENDBRANCH   9  17
BRANCH  14  21
HETATM   21  C   UNK N   1      35.147  12.965  16.135  0.00  0.00     0.129 C 
HETATM   22  C   UNK N   1      35.758  13.933  17.128  0.00  0.00     0.040 C 
BRANCH  21  23
HETATM   23  O   UNK N   1      34.839  11.765  16.779  0.00  0.00    -0.395 OA
HETATM   24  H   UNK N   1      35.464  11.023  16.813  0.00  0.00     0.210 HD
ENDBRANCH  21  23
ENDBRANCH  14  21
ENDBRANCH   7   8
ENDBRANCH   1   7
BRANCH   4  25
HETATM   25  C   UNK N   1      35.344  12.702   5.802  0.00  0.00     0.244 C 
HETATM   26  O   UNK N   1      36.265  11.931   5.580  0.00  0.00    -0.271 OA
HETATM   27  N   UNK N   1      35.615  14.040   5.673  0.00  0.00    -0.325 N 
HETATM   28  H   UNK N   1      36.557  14.220   5.449  0.00  0.00     0.169 HD
BRANCH  27  29
HETATM   29  C   UNK N   1      34.836  15.225   5.792  0.00  0.00     0.035 A 
HETATM   30  C   UNK N   1      33.980  15.686   4.783  0.00  0.00     0.029 A 
HETATM   31  C   UNK N   1      33.233  16.854   4.968  0.00  0.00     0.003 A 
HETATM   32  C   UNK N   1      33.360  17.587   6.150  0.00  0.00     0.018 A 
HETATM   33  C   UNK N   1      34.246  17.163   7.149  0.00  0.00     0.039 A 
HETATM   34  C   UNK N   1      34.981  15.987   6.958  0.00  0.00     0.047 A 
BRANCH  33  35
HETATM   35  C   UNK N   1      34.410  17.940   8.394  0.00  0.00     0.176 C 
HETATM   36  O   UNK N   1      34.961  19.030   8.373  0.00  0.00    -0.646 OA
BRANCH  35  37
HETATM   37  O   UNK N   1      33.958  17.449   9.565  0.00  0.00    -0.773 OA
HETATM   38  H   UNK N   1      33.987  16.571   9.890  0.00  0.00     0.167 HD
ENDBRANCH  35  37
ENDBRANCH  33  35
ENDBRANCH  27  29
ENDBRANCH   4  25
TORSDOF 10
ENDMDL
MODEL 7
REMARK VINA RESULT:      -7.1      4.946      6.505
REMARK  10 active torsions:
REMARK  status: ('A' for Active; 'I' for Inactive)
REMARK    1  A    between atoms: C_12  and  C_1 
REMARK    2  A    between atoms: S_16  and  C_2 
REMARK    3  A    between atoms: C_8  and  C_6 
REMARK    4  A    between atoms: C_8  and  O_9 
REMARK    5  A    between atoms: O_14  and  C_12 
REMARK    6  A    between atoms: C_17  and  S_16 
REMARK    7  A    between atoms: C_20  and  C_22 
REMARK       I    between atoms: N_24  and  C_22 
REMARK    8  A    between atoms: C_25  and  N_24 
REMARK    9  A    between atoms: C_31  and  C_29 
REMARK   10  A    between atoms: O_32  and  C_31 
ROOT
HETATM    1  C   UNK N   1      30.756  16.132   6.221  0.00  0.00     0.072 C 
HETATM    2  C   UNK N   1      31.202  17.137   5.191  0.00  0.00     0.130 C 
HETATM    3  N   UNK N   1      29.989  17.777   4.675  0.00  0.00    -0.408 N 
HETATM    4  C   UNK N   1      28.855  17.139   5.353  0.00  0.00     0.171 C 
HETATM    5  C   UNK N   1      29.369  15.783   5.801  0.00  0.00     0.051 C 
HETATM    6  H   UNK N   1      29.942  18.521   3.979  0.00  0.00     0.154 HD
ENDROOT
BRANCH   1   7
HETATM    7  S   UNK N   1      31.939  14.777   6.516  0.00  0.00    -0.125 SA
BRANCH   7   8
HETATM    8  C   UNK N   1      33.327  15.262   7.602  0.00  0.00     0.018 C 
HETATM    9  C   UNK N   1      33.475  16.347   8.383  0.00  0.00     0.125 C 
HETATM   10  N   UNK N   1      34.392  15.989   9.358  0.00  0.00    -0.304 N 
HETATM   11  C   UNK N   1      34.559  14.589   9.507  0.00  0.00     0.117 A 
HETATM   12  C   UNK N   1      35.239  16.341  10.273  0.00  0.00     0.233 A 
HETATM   13  C   UNK N   1      34.438  14.264   8.011  0.00  0.00     0.048 C 
HETATM   14  C   UNK N   1      35.712  14.965  10.601  0.00  0.00     0.130 A 
HETATM   15  C   UNK N   1      34.158  12.801   7.722  0.00  0.00     0.018 C 
HETATM   16  O   UNK N   1      35.539  17.465  10.634  0.00  0.00    -0.272 OA
BRANCH   9  17
HETATM   17  C   UNK N   1      32.763  17.640   8.427  0.00  0.00     0.195 C 
HETATM   18  O   UNK N   1      33.269  18.655   8.003  0.00  0.00    -0.645 OA
BRANCH  17  19
HETATM   19  O   UNK N   1      31.545  17.705   8.999  0.00  0.00    -0.772 OA
HETATM   20  H   UNK N   1      31.102  16.931   9.284  0.00  0.00     0.167 HD
ENDBRANCH  17  19
ENDBRANCH   9  17
BRANCH  14  21
HETATM   21  C   UNK N   1      35.300  14.522  12.009  0.00  0.00     0.129 C 
HETATM   22  C   UNK N   1      36.427  13.835  12.752  0.00  0.00     0.040 C 
BRANCH  21  23
HETATM   23  O   UNK N   1      34.197  13.669  11.935  0.00  0.00    -0.395 OA
HETATM   24  H   UNK N   1      33.287  14.004  11.900  0.00  0.00     0.210 HD
ENDBRANCH  21  23
ENDBRANCH  14  21
ENDBRANCH   7   8
ENDBRANCH   1   7
BRANCH   4  25
HETATM   25  C   UNK N   1      28.304  18.140   6.380  0.00  0.00     0.244 C 
HETATM   26  O   UNK N   1      28.767  18.053   7.507  0.00  0.00    -0.271 OA
HETATM   27  N   UNK N   1      27.303  19.058   6.194  0.00  0.00    -0.325 N 
HETATM   28  H   UNK N   1      27.047  19.521   7.025  0.00  0.00     0.169 HD
BRANCH  27  29
HETATM   29  C   UNK N   1      26.551  19.491   5.065  0.00  0.00     0.035 A 
HETATM   30  C   UNK N   1      27.077  20.317   4.063  0.00  0.00     0.029 A 
HETATM   31  C   UNK N   1      26.288  20.697   2.972  0.00  0.00     0.003 A 
HETATM   32  C   UNK N   1      24.957  20.281   2.892  0.00  0.00     0.018 A 
HETATM   33  C   UNK N   1      24.405  19.492   3.908  0.00  0.00     0.039 A 
HETATM   34  C   UNK N   1      25.207  19.109   4.990  0.00  0.00     0.047 A 
BRANCH  33  35
HETATM   35  C   UNK N   1      22.992  19.064   3.851  0.00  0.00     0.176 C 
HETATM   36  O   UNK N   1      22.684  17.913   4.120  0.00  0.00    -0.646 OA
BRANCH  35  37
HETATM   37  O   UNK N   1      22.032  19.941   3.495  0.00  0.00    -0.773 OA
HETATM   38  H   UNK N   1      22.054  20.877   3.499  0.00  0.00     0.167 HD
ENDBRANCH  35  37
ENDBRANCH  33  35
ENDBRANCH  27  29
ENDBRANCH   4  25
TORSDOF 10
ENDMDL
MODEL 8
REMARK VINA RESULT:      -7.0      2.398      3.386
REMARK  10 active torsions:
REMARK  status: ('A' for Active; 'I' for Inactive)
REMARK    1  A    between atoms: C_12  and  C_1 
REMARK    2  A    between atoms: S_16  and  C_2 
REMARK    3  A    between atoms: C_8  and  C_6 
REMARK    4  A    between atoms: C_8  and  O_9 
REMARK    5  A    between atoms: O_14  and  C_12 
REMARK    6  A    between atoms: C_17  and  S_16 
REMARK    7  A    between atoms: C_20  and  C_22 
REMARK       I    between atoms: N_24  and  C_22 
REMARK    8  A    between atoms: C_25  and  N_24 
REMARK    9  A    between atoms: C_31  and  C_29 
REMARK   10  A    between atoms: O_32  and  C_31 
ROOT
HETATM    1  C   UNK N   1      33.659  14.619   4.758  0.00  0.00     0.072 C 
HETATM    2  C   UNK N   1      33.952  14.453   3.289  0.00  0.00     0.130 C 
HETATM    3  N   UNK N   1      32.744  14.866   2.569  0.00  0.00    -0.408 N 
HETATM    4  C   UNK N   1      31.751  15.227   3.586  0.00  0.00     0.171 C 
HETATM    5  C   UNK N   1      32.176  14.488   4.842  0.00  0.00     0.051 C 
HETATM    6  H   UNK N   1      32.619  14.895   1.558  0.00  0.00     0.154 HD
ENDROOT
BRANCH   1   7
HETATM    7  S   UNK N   1      34.684  13.586   5.855  0.00  0.00    -0.125 SA
BRANCH   7   8
HETATM    8  C   UNK N   1      35.333  14.500   7.298  0.00  0.00     0.018 C 
HETATM    9  C   UNK N   1      34.920  15.657   7.846  0.00  0.00     0.125 C 
HETATM   10  N   UNK N   1      35.359  15.631   9.160  0.00  0.00    -0.304 N 
HETATM   11  C   UNK N   1      35.695  14.337   9.631  0.00  0.00     0.117 A 
HETATM   12  C   UNK N   1      35.634  16.267  10.255  0.00  0.00     0.233 A 
HETATM   13  C   UNK N   1      36.310  13.853   8.310  0.00  0.00     0.048 C 
HETATM   14  C   UNK N   1      36.156  15.088  11.006  0.00  0.00     0.130 A 
HETATM   15  C   UNK N   1      36.459  12.345   8.219  0.00  0.00     0.018 C 
HETATM   16  O   UNK N   1      35.533  17.459  10.484  0.00  0.00    -0.272 OA
BRANCH   9  17
HETATM   17  C   UNK N   1      34.039  16.731   7.345  0.00  0.00     0.195 C 
HETATM   18  O   UNK N   1      34.452  17.591   6.600  0.00  0.00    -0.645 OA
BRANCH  17  19
HETATM   19  O   UNK N   1      32.761  16.789   7.767  0.00  0.00    -0.772 OA
HETATM   20  H   UNK N   1      32.481  17.443   8.378  0.00  0.00     0.167 HD
ENDBRANCH  17  19
ENDBRANCH   9  17
BRANCH  14  21
HETATM   21  C   UNK N   1      35.252  14.692  12.178  0.00  0.00     0.129 C 
HETATM   22  C   UNK N   1      36.040  14.329  13.420  0.00  0.00     0.040 C 
BRANCH  21  23
HETATM   23  O   UNK N   1      34.438  13.620  11.809  0.00  0.00    -0.395 OA
HETATM   24  H   UNK N   1      34.070  13.536  10.915  0.00  0.00     0.210 HD
ENDBRANCH  21  23
ENDBRANCH  14  21
ENDBRANCH   7   8
ENDBRANCH   1   7
BRANCH   4  25
HETATM   25  C   UNK N   1      31.626  16.759   3.591  0.00  0.00     0.244 C 
HETATM   26  O   UNK N   1      32.487  17.363   2.969  0.00  0.00    -0.271 OA
HETATM   27  N   UNK N   1      30.711  17.519   4.274  0.00  0.00    -0.325 N 
HETATM   28  H   UNK N   1      30.889  18.485   4.207  0.00  0.00     0.169 HD
BRANCH  27  29
HETATM   29  C   UNK N   1      29.561  17.219   5.057  0.00  0.00     0.035 A 
HETATM   30  C   UNK N   1      28.384  16.682   4.519  0.00  0.00     0.029 A 
HETATM   31  C   UNK N   1      27.292  16.400   5.346  0.00  0.00     0.003 A 
HETATM   32  C   UNK N   1      27.357  16.682   6.713  0.00  0.00     0.018 A 
HETATM   33  C   UNK N   1      28.511  17.259   7.257  0.00  0.00     0.039 A 
HETATM   34  C   UNK N   1      29.602  17.528   6.421  0.00  0.00     0.047 A 
BRANCH  33  35
HETATM   35  C   UNK N   1      28.587  17.586   8.695  0.00  0.00     0.176 C 
HETATM   36  O   UNK N   1      29.652  17.516   9.289  0.00  0.00    -0.646 OA
BRANCH  35  37
HETATM   37  O   UNK N   1      27.479  17.960   9.365  0.00  0.00    -0.773 OA
HETATM   38  H   UNK N   1      26.580  17.890   9.109  0.00  0.00     0.167 HD
ENDBRANCH  35  37
ENDBRANCH  33  35
ENDBRANCH  27  29
ENDBRANCH   4  25
TORSDOF 10
ENDMDL
MODEL 9
REMARK VINA RESULT:      -7.0     14.651     18.729
REMARK  10 active torsions:
REMARK  status: ('A' for Active; 'I' for Inactive)
REMARK    1  A    between atoms: C_12  and  C_1 
REMARK    2  A    between atoms: S_16  and  C_2 
REMARK    3  A    between atoms: C_8  and  C_6 
REMARK    4  A    between atoms: C_8  and  O_9 
REMARK    5  A    between atoms: O_14  and  C_12 
REMARK    6  A    between atoms: C_17  and  S_16 
REMARK    7  A    between atoms: C_20  and  C_22 
REMARK       I    between atoms: N_24  and  C_22 
REMARK    8  A    between atoms: C_25  and  N_24 
REMARK    9  A    between atoms: C_31  and  C_29 
REMARK   10  A    between atoms: O_32  and  C_31 
ROOT
HETATM    1  C   UNK N   1      27.165  21.971  -7.411  0.00  0.00     0.072 C 
HETATM    2  C   UNK N   1      26.798  21.140  -8.613  0.00  0.00     0.130 C 
HETATM    3  N   UNK N   1      28.046  20.575  -9.132  0.00  0.00    -0.408 N 
HETATM    4  C   UNK N   1      29.126  21.091  -8.284  0.00  0.00     0.171 C 
HETATM    5  C   UNK N   1      28.579  22.367  -7.672  0.00  0.00     0.051 C 
HETATM    6  H   UNK N   1      28.145  19.945  -9.928  0.00  0.00     0.154 HD
ENDROOT
BRANCH   1   7
HETATM    7  S   UNK N   1      25.962  23.277  -6.999  0.00  0.00    -0.125 SA
BRANCH   7   8
HETATM    8  C   UNK N   1      26.752  24.872  -6.586  0.00  0.00     0.018 C 
HETATM    9  C   UNK N   1      26.831  26.009  -7.302  0.00  0.00     0.125 C 
HETATM   10  N   UNK N   1      27.030  27.024  -6.379  0.00  0.00    -0.304 N 
HETATM   11  C   UNK N   1      26.684  26.672  -5.050  0.00  0.00     0.117 A 
HETATM   12  C   UNK N   1      27.411  28.235  -6.120  0.00  0.00     0.233 A 
HETATM   13  C   UNK N   1      27.189  25.224  -5.142  0.00  0.00     0.048 C 
HETATM   14  C   UNK N   1      27.243  28.151  -4.641  0.00  0.00     0.130 A 
HETATM   15  C   UNK N   1      26.657  24.319  -4.047  0.00  0.00     0.018 C 
HETATM   16  O   UNK N   1      27.825  29.079  -6.895  0.00  0.00    -0.272 OA
BRANCH   9  17
HETATM   17  C   UNK N   1      26.601  26.297  -8.731  0.00  0.00     0.195 C 
HETATM   18  O   UNK N   1      25.609  25.905  -9.304  0.00  0.00    -0.645 OA
BRANCH  17  19
HETATM   19  O   UNK N   1      27.540  26.964  -9.431  0.00  0.00    -0.772 OA
HETATM   20  H   UNK N   1      28.040  27.652  -9.037  0.00  0.00     0.167 HD
ENDBRANCH  17  19
ENDBRANCH   9  17
BRANCH  14  21
HETATM   21  C   UNK N   1      26.108  29.044  -4.127  0.00  0.00     0.129 C 
HETATM   22  C   UNK N   1      26.602  30.404  -3.675  0.00  0.00     0.040 C 
BRANCH  21  23
HETATM   23  O   UNK N   1      25.445  28.411  -3.074  0.00  0.00    -0.395 OA
HETATM   24  H   UNK N   1      24.532  28.094  -3.157  0.00  0.00     0.210 HD
ENDBRANCH  21  23
ENDBRANCH  14  21
ENDBRANCH   7   8
ENDBRANCH   1   7
BRANCH   4  25
HETATM   25  C   UNK N   1      29.603  19.939  -7.385  0.00  0.00     0.244 C 
HETATM   26  O   UNK N   1      29.133  18.841  -7.637  0.00  0.00    -0.271 OA
HETATM   27  N   UNK N   1      30.428  20.021  -6.293  0.00  0.00    -0.325 N 
HETATM   28  H   UNK N   1      30.512  19.167  -5.811  0.00  0.00     0.169 HD
BRANCH  27  29
HETATM   29  C   UNK N   1      31.191  21.069  -5.703  0.00  0.00     0.035 A 
HETATM   30  C   UNK N   1      32.474  21.425  -6.140  0.00  0.00     0.029 A 
HETATM   31  C   UNK N   1      33.166  22.473  -5.524  0.00  0.00     0.003 A 
HETATM   32  C   UNK N   1      32.594  23.151  -4.445  0.00  0.00     0.018 A 
HETATM   33  C   UNK N   1      31.331  22.776  -3.968  0.00  0.00     0.039 A 
HETATM   34  C   UNK N   1      30.643  21.733  -4.600  0.00  0.00     0.047 A 
BRANCH  33  35
HETATM   35  C   UNK N   1      30.723  23.467  -2.813  0.00  0.00     0.176 C 
HETATM   36  O   UNK N   1      30.283  24.600  -2.932  0.00  0.00    -0.646 OA
BRANCH  35  37
HETATM   37  O   UNK N   1      30.655  22.852  -1.615  0.00  0.00    -0.773 OA
HETATM   38  H   UNK N   1      31.283  22.297  -1.197  0.00  0.00     0.167 HD
ENDBRANCH  35  37
ENDBRANCH  33  35
ENDBRANCH  27  29
ENDBRANCH   4  25
TORSDOF 10
ENDMDL
