MODEL 1
REMARK VINA RESULT:      -6.9      0.000      0.000
REMARK  4 active torsions:
REMARK  status: ('A' for Active; 'I' for Inactive)
REMARK    1  A    between atoms: C_2  and  O_10 
REMARK    2  A    between atoms: C_9  and  C_11 
REMARK    3  A    between atoms: C_9  and  C_12 
REMARK    4  A    between atoms: O_10  and  C_9 
ROOT
HETATM    1  C   UNK N   1      27.218  24.085  -5.628  0.00  0.00     0.188 C 
ENDROOT
BRANCH   1   2
HETATM    2  C   UNK N   1      28.152  23.696  -4.487  0.00  0.00    -0.025 A 
HETATM    3  C   UNK N   1      29.502  23.365  -4.688  0.00  0.00     0.010 A 
HETATM    4  C   UNK N   1      30.321  23.024  -3.606  0.00  0.00     0.001 A 
HETATM    5  C   UNK N   1      29.797  23.007  -2.312  0.00  0.00     0.000 A 
HETATM    6  C   UNK N   1      28.455  23.328  -2.099  0.00  0.00     0.001 A 
HETATM    7  C   UNK N   1      27.641  23.669  -3.181  0.00  0.00     0.010 A 
ENDBRANCH   1   2
BRANCH   1   8
HETATM    8  C   UNK N   1      26.677  23.008  -6.556  0.00  0.00    -0.025 A 
HETATM    9  C   UNK N   1      27.551  22.411  -7.475  0.00  0.00     0.010 A 
HETATM   10  C   UNK N   1      27.102  21.397  -8.329  0.00  0.00     0.001 A 
HETATM   11  C   UNK N   1      25.774  20.966  -8.268  0.00  0.00     0.000 A 
HETATM   12  C   UNK N   1      24.895  21.549  -7.353  0.00  0.00     0.001 A 
HETATM   13  C   UNK N   1      25.346  22.561  -6.502  0.00  0.00     0.010 A 
ENDBRANCH   1   8
BRANCH   1  14
HETATM   14  O   UNK N   1      26.177  24.925  -5.164  0.00  0.00    -0.371 OA
BRANCH  14  15
HETATM   15  C   UNK N   1      26.054  26.046  -6.025  0.00  0.00     0.127 C 
HETATM   16  C   UNK N   1      27.427  26.735  -6.153  0.00  0.00     0.067 C 
HETATM   17  C   UNK N   1      27.666  27.814  -5.081  0.00  0.00     0.225 C 
HETATM   18  N   UNK N   1      26.583  28.792  -5.204  0.00  0.00     0.093 N 
HETATM   19  C   UNK N   1      27.548  27.218  -3.677  0.00  0.00     0.038 C 
HETATM   20  C   UNK N   1      25.481  28.081  -4.551  0.00  0.00     0.225 C 
HETATM   21  C   UNK N   1      26.912  30.016  -4.470  0.00  0.00     0.310 C 
HETATM   22  C   UNK N   1      26.078  27.406  -3.318  0.00  0.00     0.038 C 
HETATM   23  C   UNK N   1      24.959  27.022  -5.539  0.00  0.00     0.067 C 
ENDBRANCH  14  15
ENDBRANCH   1  14
TORSDOF 4
ENDMDL
MODEL 2
REMARK VINA RESULT:      -6.7      2.237      5.231
REMARK  4 active torsions:
REMARK  status: ('A' for Active; 'I' for Inactive)
REMARK    1  A    between atoms: C_2  and  O_10 
REMARK    2  A    between atoms: C_9  and  C_11 
REMARK    3  A    between atoms: C_9  and  C_12 
REMARK    4  A    between atoms: O_10  and  C_9 
ROOT
HETATM    1  C   UNK N   1      27.639  24.289  -5.043  0.00  0.00     0.188 C 
ENDROOT
BRANCH   1   2
HETATM    2  C   UNK N   1      26.988  25.650  -4.830  0.00  0.00    -0.025 A 
HETATM    3  C   UNK N   1      26.453  26.053  -3.595  0.00  0.00     0.010 A 
HETATM    4  C   UNK N   1      25.873  27.317  -3.447  0.00  0.00     0.001 A 
HETATM    5  C   UNK N   1      25.819  28.192  -4.534  0.00  0.00     0.000 A 
HETATM    6  C   UNK N   1      26.342  27.803  -5.768  0.00  0.00     0.001 A 
HETATM    7  C   UNK N   1      26.920  26.539  -5.912  0.00  0.00     0.010 A 
ENDBRANCH   1   2
BRANCH   1   8
HETATM    8  C   UNK N   1      27.068  23.338  -6.085  0.00  0.00    -0.025 A 
HETATM    9  C   UNK N   1      27.945  22.728  -6.992  0.00  0.00     0.010 A 
HETATM   10  C   UNK N   1      27.465  21.827  -7.949  0.00  0.00     0.001 A 
HETATM   11  C   UNK N   1      26.102  21.523  -8.006  0.00  0.00     0.000 A 
HETATM   12  C   UNK N   1      25.219  22.121  -7.104  0.00  0.00     0.001 A 
HETATM   13  C   UNK N   1      25.701  23.020  -6.150  0.00  0.00     0.010 A 
ENDBRANCH   1   8
BRANCH   1  14
HETATM   14  O   UNK N   1      29.042  24.418  -5.189  0.00  0.00    -0.371 OA
BRANCH  14  15
HETATM   15  C   UNK N   1      29.649  24.457  -3.907  0.00  0.00     0.127 C 
HETATM   16  C   UNK N   1      31.173  24.623  -4.078  0.00  0.00     0.067 C 
HETATM   17  C   UNK N   1      31.920  23.282  -4.191  0.00  0.00     0.225 C 
HETATM   18  N   UNK N   1      31.615  22.515  -2.981  0.00  0.00     0.093 N 
HETATM   19  C   UNK N   1      31.383  22.461  -5.364  0.00  0.00     0.038 C 
HETATM   20  C   UNK N   1      30.264  22.034  -3.279  0.00  0.00     0.225 C 
HETATM   21  C   UNK N   1      32.542  21.390  -2.839  0.00  0.00     0.310 C 
HETATM   22  C   UNK N   1      30.274  21.614  -4.748  0.00  0.00     0.038 C 
HETATM   23  C   UNK N   1      29.293  23.210  -3.067  0.00  0.00     0.067 C 
ENDBRANCH  14  15
ENDBRANCH   1  14
TORSDOF 4
ENDMDL
MODEL 3
REMARK VINA RESULT:      -6.7     11.060     14.145
REMARK  4 active torsions:
REMARK  status: ('A' for Active; 'I' for Inactive)
REMARK    1  A    between atoms: C_2  and  O_10 
REMARK    2  A    between atoms: C_9  and  C_11 
REMARK    3  A    between atoms: C_9  and  C_12 
REMARK    4  A    between atoms: O_10  and  C_9 
ROOT
HETATM    1  C   UNK N   1      29.087  17.512   5.522  0.00  0.00     0.188 C 
ENDROOT
BRANCH   1   2
HETATM    2  C   UNK N   1      29.228  17.721   7.026  0.00  0.00    -0.025 A 
HETATM    3  C   UNK N   1      30.470  17.911   7.655  0.00  0.00     0.010 A 
HETATM    4  C   UNK N   1      30.546  18.108   9.037  0.00  0.00     0.001 A 
HETATM    5  C   UNK N   1      29.381  18.114   9.807  0.00  0.00     0.000 A 
HETATM    6  C   UNK N   1      28.141  17.920   9.196  0.00  0.00     0.001 A 
HETATM    7  C   UNK N   1      28.069  17.724   7.815  0.00  0.00     0.010 A 
ENDBRANCH   1   2
BRANCH   1   8
HETATM    8  C   UNK N   1      27.980  18.231   4.766  0.00  0.00    -0.025 A 
HETATM    9  C   UNK N   1      26.916  17.478   4.253  0.00  0.00     0.010 A 
HETATM   10  C   UNK N   1      25.863  18.103   3.573  0.00  0.00     0.001 A 
HETATM   11  C   UNK N   1      25.864  19.490   3.404  0.00  0.00     0.000 A 
HETATM   12  C   UNK N   1      26.916  20.252   3.914  0.00  0.00     0.001 A 
HETATM   13  C   UNK N   1      27.965  19.626   4.592  0.00  0.00     0.010 A 
ENDBRANCH   1   8
BRANCH   1  14
HETATM   14  O   UNK N   1      30.334  17.671   4.872  0.00  0.00    -0.371 OA
BRANCH  14  15
HETATM   15  C   UNK N   1      30.501  16.642   3.910  0.00  0.00     0.127 C 
HETATM   16  C   UNK N   1      30.721  15.302   4.640  0.00  0.00     0.067 C 
HETATM   17  C   UNK N   1      32.202  15.012   4.940  0.00  0.00     0.225 C 
HETATM   18  N   UNK N   1      32.913  15.027   3.660  0.00  0.00     0.093 N 
HETATM   19  C   UNK N   1      32.813  16.133   5.782  0.00  0.00     0.038 C 
HETATM   20  C   UNK N   1      33.023  16.465   3.410  0.00  0.00     0.225 C 
HETATM   21  C   UNK N   1      34.241  14.426   3.805  0.00  0.00     0.310 C 
HETATM   22  C   UNK N   1      33.373  17.107   4.751  0.00  0.00     0.038 C 
HETATM   23  C   UNK N   1      31.648  16.960   2.925  0.00  0.00     0.067 C 
ENDBRANCH  14  15
ENDBRANCH   1  14
TORSDOF 4
ENDMDL
MODEL 4
REMARK VINA RESULT:      -6.6      2.258      6.122
REMARK  4 active torsions:
REMARK  status: ('A' for Active; 'I' for Inactive)
REMARK    1  A    between atoms: C_2  and  O_10 
REMARK    2  A    between atoms: C_9  and  C_11 
REMARK    3  A    between atoms: C_9  and  C_12 
REMARK    4  A    between atoms: O_10  and  C_9 
ROOT
HETATM    1  C   UNK N   1      27.841  24.246  -5.544  0.00  0.00     0.188 C 
ENDROOT
BRANCH   1   2
HETATM    2  C   UNK N   1      27.097  23.206  -6.373  0.00  0.00    -0.025 A 
HETATM    3  C   UNK N   1      25.717  22.976  -6.245  0.00  0.00     0.010 A 
HETATM    4  C   UNK N   1      25.078  22.015  -7.035  0.00  0.00     0.001 A 
HETATM    5  C   UNK N   1      25.813  21.272  -7.961  0.00  0.00     0.000 A 
HETATM    6  C   UNK N   1      27.186  21.485  -8.094  0.00  0.00     0.001 A 
HETATM    7  C   UNK N   1      27.820  22.446  -7.303  0.00  0.00     0.010 A 
ENDBRANCH   1   2
BRANCH   1   8
HETATM    8  C   UNK N   1      27.120  25.512  -5.105  0.00  0.00    -0.025 A 
HETATM    9  C   UNK N   1      26.792  26.470  -6.073  0.00  0.00     0.010 A 
HETATM   10  C   UNK N   1      26.104  27.636  -5.717  0.00  0.00     0.001 A 
HETATM   11  C   UNK N   1      25.734  27.853  -4.387  0.00  0.00     0.000 A 
HETATM   12  C   UNK N   1      26.051  26.904  -3.414  0.00  0.00     0.001 A 
HETATM   13  C   UNK N   1      26.737  25.741  -3.772  0.00  0.00     0.010 A 
ENDBRANCH   1   8
BRANCH   1  14
HETATM   14  O   UNK N   1      28.510  23.639  -4.454  0.00  0.00    -0.371 OA
BRANCH  14  15
HETATM   15  C   UNK N   1      29.806  24.201  -4.321  0.00  0.00     0.127 C 
HETATM   16  C   UNK N   1      30.655  23.803  -5.545  0.00  0.00     0.067 C 
HETATM   17  C   UNK N   1      31.410  22.475  -5.354  0.00  0.00     0.225 C 
HETATM   18  N   UNK N   1      32.253  22.626  -4.165  0.00  0.00     0.093 N 
HETATM   19  C   UNK N   1      30.434  21.338  -5.044  0.00  0.00     0.038 C 
HETATM   20  C   UNK N   1      31.267  22.470  -3.093  0.00  0.00     0.225 C 
HETATM   21  C   UNK N   1      33.252  21.556  -4.107  0.00  0.00     0.310 C 
HETATM   22  C   UNK N   1      30.346  21.330  -3.522  0.00  0.00     0.038 C 
HETATM   23  C   UNK N   1      30.476  23.786  -2.992  0.00  0.00     0.067 C 
ENDBRANCH  14  15
ENDBRANCH   1  14
TORSDOF 4
ENDMDL
MODEL 5
REMARK VINA RESULT:      -6.6     11.284     13.640
REMARK  4 active torsions:
REMARK  status: ('A' for Active; 'I' for Inactive)
REMARK    1  A    between atoms: C_2  and  O_10 
REMARK    2  A    between atoms: C_9  and  C_11 
REMARK    3  A    between atoms: C_9  and  C_12 
REMARK    4  A    between atoms: O_10  and  C_9 
ROOT
HETATM    1  C   UNK N   1      29.165  17.343   4.969  0.00  0.00     0.188 C 
ENDROOT
BRANCH   1   2
HETATM    2  C   UNK N   1      30.674  17.358   5.186  0.00  0.00    -0.025 A 
HETATM    3  C   UNK N   1      31.588  17.635   4.156  0.00  0.00     0.010 A 
HETATM    4  C   UNK N   1      32.964  17.646   4.407  0.00  0.00     0.001 A 
HETATM    5  C   UNK N   1      33.441  17.376   5.691  0.00  0.00     0.000 A 
HETATM    6  C   UNK N   1      32.544  17.092   6.722  0.00  0.00     0.001 A 
HETATM    7  C   UNK N   1      31.171  17.083   6.468  0.00  0.00     0.010 A 
ENDBRANCH   1   2
BRANCH   1   8
HETATM    8  C   UNK N   1      28.354  18.599   5.255  0.00  0.00    -0.025 A 
HETATM    9  C   UNK N   1      27.777  19.286   4.178  0.00  0.00     0.010 A 
HETATM   10  C   UNK N   1      27.001  20.431   4.398  0.00  0.00     0.001 A 
HETATM   11  C   UNK N   1      26.790  20.896   5.698  0.00  0.00     0.000 A 
HETATM   12  C   UNK N   1      27.355  20.217   6.780  0.00  0.00     0.001 A 
HETATM   13  C   UNK N   1      28.129  19.075   6.558  0.00  0.00     0.010 A 
ENDBRANCH   1   8
BRANCH   1  14
HETATM   14  O   UNK N   1      28.842  16.809   3.699  0.00  0.00    -0.371 OA
BRANCH  14  15
HETATM   15  C   UNK N   1      28.758  15.395   3.788  0.00  0.00     0.127 C 
HETATM   16  C   UNK N   1      28.319  14.831   2.421  0.00  0.00     0.067 C 
HETATM   17  C   UNK N   1      26.791  14.731   2.268  0.00  0.00     0.225 C 
HETATM   18  N   UNK N   1      26.303  13.884   3.359  0.00  0.00     0.093 N 
HETATM   19  C   UNK N   1      26.137  16.100   2.464  0.00  0.00     0.038 C 
HETATM   20  C   UNK N   1      26.345  14.817   4.487  0.00  0.00     0.225 C 
HETATM   21  C   UNK N   1      24.927  13.455   3.098  0.00  0.00     0.310 C 
HETATM   22  C   UNK N   1      25.829  16.154   3.957  0.00  0.00     0.038 C 
HETATM   23  C   UNK N   1      27.815  14.949   4.928  0.00  0.00     0.067 C 
ENDBRANCH  14  15
ENDBRANCH   1  14
TORSDOF 4
ENDMDL
MODEL 6
REMARK VINA RESULT:      -6.6     21.122     25.016
REMARK  4 active torsions:
REMARK  status: ('A' for Active; 'I' for Inactive)
REMARK    1  A    between atoms: C_2  and  O_10 
REMARK    2  A    between atoms: C_9  and  C_11 
REMARK    3  A    between atoms: C_9  and  C_12 
REMARK    4  A    between atoms: O_10  and  C_9 
ROOT
HETATM    1  C   UNK N   1      36.341  12.655  14.763  0.00  0.00     0.188 C 
ENDROOT
BRANCH   1   2
HETATM    2  C   UNK N   1      37.004  11.308  15.029  0.00  0.00    -0.025 A 
HETATM    3  C   UNK N   1      36.513  10.392  15.974  0.00  0.00     0.010 A 
HETATM    4  C   UNK N   1      37.152   9.164  16.175  0.00  0.00     0.001 A 
HETATM    5  C   UNK N   1      38.291   8.840  15.436  0.00  0.00     0.000 A 
HETATM    6  C   UNK N   1      38.794   9.745  14.498  0.00  0.00     0.001 A 
HETATM    7  C   UNK N   1      38.152  10.969  14.300  0.00  0.00     0.010 A 
ENDBRANCH   1   2
BRANCH   1   8
HETATM    8  C   UNK N   1      36.338  13.718  15.852  0.00  0.00    -0.025 A 
HETATM    9  C   UNK N   1      35.473  13.562  16.943  0.00  0.00     0.010 A 
HETATM   10  C   UNK N   1      35.456  14.502  17.979  0.00  0.00     0.001 A 
HETATM   11  C   UNK N   1      36.311  15.607  17.937  0.00  0.00     0.000 A 
HETATM   12  C   UNK N   1      37.181  15.772  16.857  0.00  0.00     0.001 A 
HETATM   13  C   UNK N   1      37.195  14.832  15.824  0.00  0.00     0.010 A 
ENDBRANCH   1   8
BRANCH   1  14
HETATM   14  O   UNK N   1      36.773  13.194  13.528  0.00  0.00    -0.371 OA
BRANCH  14  15
HETATM   15  C   UNK N   1      35.644  13.553  12.747  0.00  0.00     0.127 C 
HETATM   16  C   UNK N   1      35.101  12.295  12.040  0.00  0.00     0.067 C 
HETATM   17  C   UNK N   1      35.745  12.047  10.664  0.00  0.00     0.225 C 
HETATM   18  N   UNK N   1      35.503  13.242   9.853  0.00  0.00     0.093 N 
HETATM   19  C   UNK N   1      37.264  11.918  10.794  0.00  0.00     0.038 C 
HETATM   20  C   UNK N   1      36.504  14.164  10.396  0.00  0.00     0.225 C 
HETATM   21  C   UNK N   1      35.771  12.965   8.440  0.00  0.00     0.310 C 
HETATM   22  C   UNK N   1      37.774  13.342  10.604  0.00  0.00     0.038 C 
HETATM   23  C   UNK N   1      35.976  14.682  11.746  0.00  0.00     0.067 C 
ENDBRANCH  14  15
ENDBRANCH   1  14
TORSDOF 4
ENDMDL
MODEL 7
REMARK VINA RESULT:      -6.4     20.776     24.486
REMARK  4 active torsions:
REMARK  status: ('A' for Active; 'I' for Inactive)
REMARK    1  A    between atoms: C_2  and  O_10 
REMARK    2  A    between atoms: C_9  and  C_11 
REMARK    3  A    between atoms: C_9  and  C_12 
REMARK    4  A    between atoms: O_10  and  C_9 
ROOT
HETATM    1  C   UNK N   1      36.266  12.833  14.346  0.00  0.00     0.188 C 
ENDROOT
BRANCH   1   2
HETATM    2  C   UNK N   1      36.334  13.763  15.552  0.00  0.00    -0.025 A 
HETATM    3  C   UNK N   1      37.191  14.875  15.608  0.00  0.00     0.010 A 
HETATM    4  C   UNK N   1      37.210  15.704  16.734  0.00  0.00     0.001 A 
HETATM    5  C   UNK N   1      36.374  15.429  17.818  0.00  0.00     0.000 A 
HETATM    6  C   UNK N   1      35.522  14.324  17.779  0.00  0.00     0.001 A 
HETATM    7  C   UNK N   1      35.506  13.498  16.652  0.00  0.00     0.010 A 
ENDBRANCH   1   2
BRANCH   1   8
HETATM    8  C   UNK N   1      36.307  11.326  14.557  0.00  0.00    -0.025 A 
HETATM    9  C   UNK N   1      37.529  10.727  14.890  0.00  0.00     0.010 A 
HETATM   10  C   UNK N   1      37.607   9.348  15.119  0.00  0.00     0.001 A 
HETATM   11  C   UNK N   1      36.460   8.555  15.022  0.00  0.00     0.000 A 
HETATM   12  C   UNK N   1      35.236   9.142  14.695  0.00  0.00     0.001 A 
HETATM   13  C   UNK N   1      35.161  10.518  14.467  0.00  0.00     0.010 A 
ENDBRANCH   1   8
BRANCH   1  14
HETATM   14  O   UNK N   1      35.200  13.196  13.488  0.00  0.00    -0.371 OA
BRANCH  14  15
HETATM   15  C   UNK N   1      35.666  14.122  12.520  0.00  0.00     0.127 C 
HETATM   16  C   UNK N   1      34.564  14.342  11.463  0.00  0.00     0.067 C 
HETATM   17  C   UNK N   1      34.643  13.350  10.289  0.00  0.00     0.225 C 
HETATM   18  N   UNK N   1      35.972  13.497   9.690  0.00  0.00     0.093 N 
HETATM   19  C   UNK N   1      34.557  11.908  10.791  0.00  0.00     0.038 C 
HETATM   20  C   UNK N   1      36.800  12.761  10.648  0.00  0.00     0.225 C 
HETATM   21  C   UNK N   1      36.014  12.855   8.374  0.00  0.00     0.310 C 
HETATM   22  C   UNK N   1      36.011  11.510  11.025  0.00  0.00     0.038 C 
HETATM   23  C   UNK N   1      36.996  13.661  11.882  0.00  0.00     0.067 C 
ENDBRANCH  14  15
ENDBRANCH   1  14
TORSDOF 4
ENDMDL
MODEL 8
REMARK VINA RESULT:      -6.3     11.014     14.590
REMARK  4 active torsions:
REMARK  status: ('A' for Active; 'I' for Inactive)
REMARK    1  A    between atoms: C_2  and  O_10 
REMARK    2  A    between atoms: C_9  and  C_11 
REMARK    3  A    between atoms: C_9  and  C_12 
REMARK    4  A    between atoms: O_10  and  C_9 
ROOT
HETATM    1  C   UNK N   1      29.234  17.849   5.393  0.00  0.00     0.188 C 
ENDROOT
BRANCH   1   2
HETATM    2  C   UNK N   1      27.995  18.402   4.698  0.00  0.00    -0.025 A 
HETATM    3  C   UNK N   1      26.939  17.586   4.261  0.00  0.00     0.010 A 
HETATM    4  C   UNK N   1      25.818  18.143   3.636  0.00  0.00     0.001 A 
HETATM    5  C   UNK N   1      25.743  19.522   3.438  0.00  0.00     0.000 A 
HETATM    6  C   UNK N   1      26.788  20.345   3.861  0.00  0.00     0.001 A 
HETATM    7  C   UNK N   1      27.905  19.785   4.485  0.00  0.00     0.010 A 
ENDBRANCH   1   2
BRANCH   1   8
HETATM    8  C   UNK N   1      29.301  17.843   6.913  0.00  0.00    -0.025 A 
HETATM    9  C   UNK N   1      28.159  18.207   7.639  0.00  0.00     0.010 A 
HETATM   10  C   UNK N   1      28.169  18.190   9.038  0.00  0.00     0.001 A 
HETATM   11  C   UNK N   1      29.322  17.804   9.726  0.00  0.00     0.000 A 
HETATM   12  C   UNK N   1      30.465  17.434   9.015  0.00  0.00     0.001 A 
HETATM   13  C   UNK N   1      30.453  17.452   7.618  0.00  0.00     0.010 A 
ENDBRANCH   1   8
BRANCH   1  14
HETATM   14  O   UNK N   1      29.586  16.584   4.864  0.00  0.00    -0.371 OA
BRANCH  14  15
HETATM   15  C   UNK N   1      30.366  16.762   3.692  0.00  0.00     0.127 C 
HETATM   16  C   UNK N   1      30.413  15.432   2.913  0.00  0.00     0.067 C 
HETATM   17  C   UNK N   1      31.583  14.524   3.334  0.00  0.00     0.225 C 
HETATM   18  N   UNK N   1      32.816  15.288   3.131  0.00  0.00     0.093 N 
HETATM   19  C   UNK N   1      31.515  14.213   4.830  0.00  0.00     0.038 C 
HETATM   20  C   UNK N   1      32.800  16.173   4.297  0.00  0.00     0.225 C 
HETATM   21  C   UNK N   1      33.981  14.401   3.173  0.00  0.00     0.310 C 
HETATM   22  C   UNK N   1      32.342  15.319   5.477  0.00  0.00     0.038 C 
HETATM   23  C   UNK N   1      31.780  17.292   4.020  0.00  0.00     0.067 C 
ENDBRANCH  14  15
ENDBRANCH   1  14
TORSDOF 4
ENDMDL
MODEL 9
REMARK VINA RESULT:      -6.3     25.279     28.262
REMARK  4 active torsions:
REMARK  status: ('A' for Active; 'I' for Inactive)
REMARK    1  A    between atoms: C_2  and  O_10 
REMARK    2  A    between atoms: C_9  and  C_11 
REMARK    3  A    between atoms: C_9  and  C_12 
REMARK    4  A    between atoms: O_10  and  C_9 
ROOT
HETATM    1  C   UNK N   1      35.207  11.879  16.870  0.00  0.00     0.188 C 
ENDROOT
BRANCH   1   2
HETATM    2  C   UNK N   1      35.838  13.266  16.821  0.00  0.00    -0.025 A 
HETATM    3  C   UNK N   1      35.703  14.201  17.860  0.00  0.00     0.010 A 
HETATM    4  C   UNK N   1      36.310  15.458  17.772  0.00  0.00     0.001 A 
HETATM    5  C   UNK N   1      37.057  15.795  16.641  0.00  0.00     0.000 A 
HETATM    6  C   UNK N   1      37.195  14.877  15.599  0.00  0.00     0.001 A 
HETATM    7  C   UNK N   1      36.588  13.623  15.691  0.00  0.00     0.010 A 
ENDBRANCH   1   2
BRANCH   1   8
HETATM    8  C   UNK N   1      35.023  11.092  15.581  0.00  0.00    -0.025 A 
HETATM    9  C   UNK N   1      35.983  10.132  15.236  0.00  0.00     0.010 A 
HETATM   10  C   UNK N   1      35.839   9.367  14.073  0.00  0.00     0.001 A 
HETATM   11  C   UNK N   1      34.729   9.552  13.244  0.00  0.00     0.000 A 
HETATM   12  C   UNK N   1      33.763  10.503  13.579  0.00  0.00     0.001 A 
HETATM   13  C   UNK N   1      33.909  11.265  14.741  0.00  0.00     0.010 A 
ENDBRANCH   1   8
BRANCH   1  14
HETATM   14  O   UNK N   1      35.817  11.082  17.869  0.00  0.00    -0.371 OA
BRANCH  14  15
HETATM   15  C   UNK N   1      34.832  10.641  18.789  0.00  0.00     0.127 C 
HETATM   16  C   UNK N   1      35.298  10.973  20.222  0.00  0.00     0.067 C 
HETATM   17  C   UNK N   1      36.137   9.852  20.861  0.00  0.00     0.225 C 
HETATM   18  N   UNK N   1      35.316   8.639  20.852  0.00  0.00     0.093 N 
HETATM   19  C   UNK N   1      37.367   9.542  20.006  0.00  0.00     0.038 C 
HETATM   20  C   UNK N   1      35.434   8.224  19.452  0.00  0.00     0.225 C 
HETATM   21  C   UNK N   1      35.889   7.625  21.740  0.00  0.00     0.310 C 
HETATM   22  C   UNK N   1      36.895   8.440  19.064  0.00  0.00     0.038 C 
HETATM   23  C   UNK N   1      34.519   9.138  18.616  0.00  0.00     0.067 C 
ENDBRANCH  14  15
ENDBRANCH   1  14
TORSDOF 4
ENDMDL
