REMARK  10 active torsions:
REMARK  status: ('A' for Active; 'I' for Inactive)
REMARK    1  A    between atoms: C_4  and  C_9 
REMARK    2  A    between atoms: C_5  and  C_28 
REMARK    3  A    between atoms: C_7  and  N_12 
REMARK    4  A    between atoms: C_9  and  O_11 
REMARK       I    between atoms: N_12  and  C_13 
REMARK    5  A    between atoms: C_13  and  C_14 
REMARK    6  A    between atoms: C_14  and  C_25 
REMARK    7  A    between atoms: N_16  and  O_18 
REMARK    8  A    between atoms: C_22  and  N_26 
REMARK    9  A    between atoms: C_28  and  S_29 
REMARK   10  A    between atoms: S_29  and  C_31 
ROOT
HETATM    1  S   UNK N   1      21.026   0.912  -0.046  0.00  0.00    -0.136 SA
HETATM    2  C   UNK N   1      19.322   0.389  -0.392  0.00  0.00     0.187 A 
HETATM    3  N   UNK N   1      19.196  -0.993  -0.007  0.00  0.00    -0.293 N 
HETATM    4  C   UNK N   1      20.157  -2.058  -0.142  0.00  0.00     0.116 C 
HETATM    5  C   UNK N   1      21.361  -1.751  -0.719  0.00  0.00    -0.027 C 
HETATM    6  C   UNK N   1      21.614  -0.344  -1.216  0.00  0.00     0.113 C 
HETATM    7  C   UNK N   1      17.742   0.533  -0.052  0.00  0.00     0.211 A 
HETATM    8  C   UNK N   1      17.942  -0.896   0.333  0.00  0.00     0.251 A 
HETATM    9  O   UNK N   1      17.172  -1.765   0.706  0.00  0.00    -0.271 OA
ENDROOT
BRANCH   7  10
HETATM   10  N   UNK N   1      16.945   0.535  -1.266  0.00  0.00    -0.340 N 
HETATM   11  C   UNK N   1      15.587   0.430  -1.263  0.00  0.00     0.273 C 
HETATM   12  O   UNK N   1      15.020   0.119  -2.298  0.00  0.00    -0.266 OA
HETATM   13  H   UNK N   1      17.408   0.617  -2.131  0.00  0.00     0.163 HD
BRANCH  11  14
HETATM   14  C   UNK N   1      14.808   0.503   0.008  0.00  0.00     0.149 C 
HETATM   15  N   UNK N   1      15.055   1.395   0.910  0.00  0.00    -0.260 N 
ATOM     16  HN  UNK N   1      14.568   1.346   1.805  1.00  0.00     0.194 HD
BRANCH  14  17
HETATM   17  C   UNK N   1      13.730  -0.464   0.247  0.00  0.00     0.075 A 
HETATM   18  C   UNK N   1      13.730  -1.312   1.374  0.00  0.00     0.085 A 
HETATM   19  S   UNK N   1      12.359  -2.229   1.214  0.00  0.00    -0.064 SA
HETATM   20  C   UNK N   1      11.802  -1.558  -0.180  0.00  0.00     0.142 A 
HETATM   21  N   UNK N   1      12.662  -0.610  -0.616  0.00  0.00    -0.335 N 
ATOM     22  HN  UNK N   1      12.538  -0.070  -1.472  1.00  0.00     0.168 HD
BRANCH  20  23
HETATM   23  N   UNK N   1      10.579  -1.865  -0.807  0.00  0.00    -0.380 N 
HETATM   24  H   UNK N   1       9.966  -1.232  -1.246  0.00  0.00     0.158 HD
HETATM   25  H   UNK N   1      10.309  -2.811  -0.807  0.00  0.00     0.158 HD
ENDBRANCH  20  23
ENDBRANCH  14  17
BRANCH  15  26
HETATM   26  O   UNK N   1      15.922   2.366   0.702  0.00  0.00    -0.285 OA
HETATM   27  C   UNK N   1      16.004   3.423   1.570  0.00  0.00     0.237 C 
ENDBRANCH  15  26
ENDBRANCH  11  14
ENDBRANCH   7  10
BRANCH   4  28
HETATM   28  C   UNK N   1      19.830  -3.461   0.316  0.00  0.00     0.194 C 
HETATM   29  O   UNK N   1      18.759  -3.707   0.838  0.00  0.00    -0.645 OA
BRANCH  28  30
HETATM   30  O   UNK N   1      20.706  -4.471   0.159  0.00  0.00    -0.772 OA
HETATM   31  H   UNK N   1      20.402  -5.351   0.050  0.00  0.00     0.167 HD
ENDBRANCH  28  30
ENDBRANCH   4  28
BRANCH   5  32
HETATM   32  C   UNK N   1      22.426  -2.798  -0.942  0.00  0.00     0.120 C 
BRANCH  32  33
HETATM   33  S   UNK N   1      23.920  -2.210  -1.807  0.00  0.00    -0.087 SA
BRANCH  33  34
HETATM   34  C   UNK N   1      24.895  -2.355  -0.317  0.00  0.00     0.175 A 
HETATM   35  N   UNK N   1      25.364  -1.336   0.413  0.00  0.00    -0.262 N 
HETATM   36  N   UNK N   1      26.021  -1.867   1.427  0.00  0.00    -0.223 N 
HETATM   37  C   UNK N   1      25.208   0.088   0.175  0.00  0.00     0.181 C 
HETATM   38  N   UNK N   1      25.959  -3.189   1.326  0.00  0.00    -0.005 NA
ATOM     39  HN  UNK N   1      26.497  -1.347   2.164  1.00  0.00     0.206 HD
HETATM   40  N   UNK N   1      25.263  -3.519   0.246  0.00  0.00    -0.261 N 
ATOM     41  HN  UNK N   1      25.051  -4.460  -0.088  1.00  0.00     0.186 HD
ENDBRANCH  33  34
ENDBRANCH  32  33
ENDBRANCH   5  32
TORSDOF 10
