REMARK  6 active torsions:
REMARK  status: ('A' for Active; 'I' for Inactive)
REMARK    1  A    between atoms: C_2  and  O_10 
REMARK    2  A    between atoms: O_10  and  C_11 
REMARK    3  A    between atoms: C_11  and  C_12 
REMARK    4  A    between atoms: C_12  and  O_14 
REMARK    5  A    between atoms: C_12  and  C_15 
REMARK    6  A    between atoms: C_12  and  C_16 
ROOT
HETATM    1  C   UNK N   1       7.391  -2.600   0.434  0.00  0.00     0.201 C 
ENDROOT
BRANCH   1   2
HETATM    2  C   UNK N   1       7.044  -3.974  -0.150  0.00  0.00     0.303 C 
HETATM    3  O   UNK N   1       7.890  -4.846  -0.189  0.00  0.00    -0.261 OA
BRANCH   2   4
HETATM    4  O   UNK N   1       5.777  -4.277  -0.540  0.00  0.00    -0.311 OA
BRANCH   4   5
HETATM    5  C   UNK N   1       4.788  -4.485   0.399  0.00  0.00     0.162 C 
HETATM    6  C   UNK N   1       4.226  -5.920   0.265  0.00  0.00     0.269 C 
HETATM    7  N   UNK N   1       2.763  -5.895   0.087  0.00  0.00    -0.068 N 
HETATM    8  C   UNK N   1       2.267  -7.255  -0.009  0.00  0.00     0.272 C 
HETATM    9  C   UNK N   1       2.429  -5.172  -1.153  0.00  0.00     0.237 C 
HETATM   10  C   UNK N   1       2.129  -5.227   1.237  0.00  0.00     0.237 C 
HETATM   11  C   UNK N   1       2.938  -3.715  -1.093  0.00  0.00     0.035 C 
HETATM   12  C   UNK N   1       3.638  -3.472   0.251  0.00  0.00     0.020 C 
HETATM   13  C   UNK N   1       2.624  -3.769   1.364  0.00  0.00     0.035 C 
ENDBRANCH   4   5
ENDBRANCH   2   4
ENDBRANCH   1   2
BRANCH   1  14
HETATM   14  O   UNK N   1       7.647  -2.788   1.798  0.00  0.00    -0.371 OA
HETATM   15  H   UNK N   1       7.624  -3.007   2.743  0.00  0.00     0.212 HD
ENDBRANCH   1  14
BRANCH   1  16
HETATM   16  C   UNK N   1       6.223  -1.637   0.249  0.00  0.00    -0.009 A 
HETATM   17  C   UNK N   1       5.775  -1.328  -1.052  0.00  0.00     0.011 A 
HETATM   18  C   UNK N   1       4.717  -0.439  -1.248  0.00  0.00     0.001 A 
HETATM   19  C   UNK N   1       4.095   0.155  -0.148  0.00  0.00     0.000 A 
HETATM   20  C   UNK N   1       4.530  -0.141   1.147  0.00  0.00     0.001 A 
HETATM   21  C   UNK N   1       5.590  -1.033   1.347  0.00  0.00     0.011 A 
ENDBRANCH   1  16
BRANCH   1  22
HETATM   22  C   UNK N   1       8.668  -2.016  -0.185  0.00  0.00    -0.009 A 
HETATM   23  C   UNK N   1       9.855  -2.768  -0.197  0.00  0.00     0.011 A 
HETATM   24  C   UNK N   1      11.039  -2.227  -0.710  0.00  0.00     0.001 A 
HETATM   25  C   UNK N   1      11.059  -0.917  -1.192  0.00  0.00     0.000 A 
HETATM   26  C   UNK N   1       9.896  -0.148  -1.170  0.00  0.00     0.001 A 
HETATM   27  C   UNK N   1       8.710  -0.693  -0.673  0.00  0.00     0.011 A 
ENDBRANCH   1  22
TORSDOF 6
