MODEL 1
REMARK VINA RESULT:      -4.9      0.000      0.000
REMARK  3 active torsions:
REMARK  status: ('A' for Active; 'I' for Inactive)
REMARK    1  A    between atoms: C_4  and  C_7 
REMARK    2  A    between atoms: C_5  and  N_10 
REMARK       I    between atoms: C_7  and  N_9 
REMARK    3  A    between atoms: N_12  and  N_14 
ROOT
HETATM    1  C   UNK N   1      30.241  17.158   7.939  0.00  0.00     0.182 A 
HETATM    2  N   UNK N   1      31.008  17.458   6.863  0.00  0.00    -0.345 N 
ATOM      3  HN  UNK N   1      30.689  17.725   5.931  1.00  0.00     0.167 HD
HETATM    4  C   UNK N   1      32.277  17.329   7.286  0.00  0.00     0.147 A 
HETATM    5  C   UNK N   1      32.261  16.955   8.602  0.00  0.00     0.155 A 
HETATM    6  N   UNK N   1      30.990  16.844   9.024  0.00  0.00    -0.335 N 
HETATM    7  H   UNK N   1      30.674  16.591   9.921  0.00  0.00     0.168 HD
ENDROOT
BRANCH   5   8
HETATM    8  N   UNK N   1      33.405  16.721   9.399  0.00  0.00    -0.269 N 
HETATM    9  N   UNK N   1      33.533  15.678  10.067  0.00  0.00    -0.244 N 
ATOM     10  HN  UNK N   1      32.799  14.970  10.045  1.00  0.00     0.208 HD
ATOM     11  HN  UNK N   1      34.143  17.424   9.427  1.00  0.00     0.190 HD
BRANCH   9  12
HETATM   12  N   UNK N   1      34.657  15.474  10.836  0.00  0.00    -0.322 N 
HETATM   13  C   UNK N   1      34.819  14.269  11.614  0.00  0.00     0.172 C 
HETATM   14  C   UNK N   1      35.688  16.472  10.868  0.00  0.00     0.172 C 
ENDBRANCH   9  12
ENDBRANCH   5   8
BRANCH   4  15
HETATM   15  C   UNK N   1      33.467  17.560   6.448  0.00  0.00     0.269 C 
HETATM   16  O   UNK N   1      34.497  17.992   6.945  0.00  0.00    -0.266 OA
HETATM   17  N   UNK N   1      33.427  17.295   5.128  0.00  0.00    -0.365 N 
HETATM   18  H   UNK N   1      34.223  17.450   4.570  0.00  0.00     0.159 HD
HETATM   19  H   UNK N   1      32.601  16.947   4.721  0.00  0.00     0.159 HD
ENDBRANCH   4  15
TORSDOF 3
ENDMDL
MODEL 2
REMARK VINA RESULT:      -4.8      9.748     12.106
REMARK  3 active torsions:
REMARK  status: ('A' for Active; 'I' for Inactive)
REMARK    1  A    between atoms: C_4  and  C_7 
REMARK    2  A    between atoms: C_5  and  N_10 
REMARK       I    between atoms: C_7  and  N_9 
REMARK    3  A    between atoms: N_12  and  N_14 
ROOT
HETATM    1  C   UNK N   1      22.599  11.644  12.594  0.00  0.00     0.182 A 
HETATM    2  N   UNK N   1      23.807  12.000  12.097  0.00  0.00    -0.345 N 
ATOM      3  HN  UNK N   1      24.717  11.902  12.548  1.00  0.00     0.167 HD
HETATM    4  C   UNK N   1      23.552  12.511  10.880  0.00  0.00     0.147 A 
HETATM    5  C   UNK N   1      22.202  12.457  10.660  0.00  0.00     0.155 A 
HETATM    6  N   UNK N   1      21.593  11.915  11.728  0.00  0.00    -0.335 N 
HETATM    7  H   UNK N   1      20.630  11.752  11.853  0.00  0.00     0.168 HD
ENDROOT
BRANCH   5   8
HETATM    8  N   UNK N   1      21.547  12.903   9.490  0.00  0.00    -0.269 N 
HETATM    9  N   UNK N   1      21.350  14.113   9.271  0.00  0.00    -0.244 N 
ATOM     10  HN  UNK N   1      21.668  14.807   9.948  1.00  0.00     0.208 HD
ATOM     11  HN  UNK N   1      21.226  12.216   8.808  1.00  0.00     0.190 HD
BRANCH   9  12
HETATM   12  N   UNK N   1      20.709  14.521   8.123  0.00  0.00    -0.322 N 
HETATM   13  C   UNK N   1      20.715  13.703   6.934  0.00  0.00     0.172 C 
HETATM   14  C   UNK N   1      20.020  15.780   8.103  0.00  0.00     0.172 C 
ENDBRANCH   9  12
ENDBRANCH   5   8
BRANCH   4  15
HETATM   15  C   UNK N   1      24.576  13.035   9.959  0.00  0.00     0.269 C 
HETATM   16  O   UNK N   1      24.397  12.994   8.750  0.00  0.00    -0.266 OA
HETATM   17  N   UNK N   1      25.717  13.562  10.443  0.00  0.00    -0.365 N 
HETATM   18  H   UNK N   1      26.400  13.911   9.826  0.00  0.00     0.159 HD
HETATM   19  H   UNK N   1      25.868  13.598  11.416  0.00  0.00     0.159 HD
ENDBRANCH   4  15
TORSDOF 3
ENDMDL
MODEL 3
REMARK VINA RESULT:      -4.8      1.842      4.396
REMARK  3 active torsions:
REMARK  status: ('A' for Active; 'I' for Inactive)
REMARK    1  A    between atoms: C_4  and  C_7 
REMARK    2  A    between atoms: C_5  and  N_10 
REMARK       I    between atoms: C_7  and  N_9 
REMARK    3  A    between atoms: N_12  and  N_14 
ROOT
HETATM    1  C   UNK N   1      34.511  15.216  10.607  0.00  0.00     0.182 A 
HETATM    2  N   UNK N   1      35.195  16.153   9.907  0.00  0.00    -0.345 N 
ATOM      3  HN  UNK N   1      36.192  16.360   9.959  1.00  0.00     0.167 HD
HETATM    4  C   UNK N   1      34.277  16.752   9.130  0.00  0.00     0.147 A 
HETATM    5  C   UNK N   1      33.060  16.174   9.368  0.00  0.00     0.155 A 
HETATM    6  N   UNK N   1      33.193  15.208  10.293  0.00  0.00    -0.335 N 
HETATM    7  H   UNK N   1      32.490  14.625  10.660  0.00  0.00     0.168 HD
ENDROOT
BRANCH   5   8
HETATM    8  N   UNK N   1      31.847  16.534   8.739  0.00  0.00    -0.269 N 
HETATM    9  N   UNK N   1      31.097  17.407   9.216  0.00  0.00    -0.244 N 
ATOM     10  HN  UNK N   1      31.359  17.879  10.082  1.00  0.00     0.208 HD
ATOM     11  HN  UNK N   1      31.578  16.068   7.873  1.00  0.00     0.190 HD
BRANCH   9  12
HETATM   12  N   UNK N   1      29.920  17.740   8.584  0.00  0.00    -0.322 N 
HETATM   13  C   UNK N   1      28.824  18.332   9.313  0.00  0.00     0.172 C 
HETATM   14  C   UNK N   1      29.775  17.497   7.177  0.00  0.00     0.172 C 
ENDBRANCH   9  12
ENDBRANCH   5   8
BRANCH   4  15
HETATM   15  C   UNK N   1      34.564  17.849   8.187  0.00  0.00     0.269 C 
HETATM   16  O   UNK N   1      34.383  17.693   6.988  0.00  0.00    -0.266 OA
HETATM   17  N   UNK N   1      35.027  19.029   8.641  0.00  0.00    -0.365 N 
HETATM   18  H   UNK N   1      35.219  19.759   8.010  0.00  0.00     0.159 HD
HETATM   19  H   UNK N   1      35.175  19.160   9.606  0.00  0.00     0.159 HD
ENDBRANCH   4  15
TORSDOF 3
ENDMDL
MODEL 4
REMARK VINA RESULT:      -4.8      2.355      2.856
REMARK  3 active torsions:
REMARK  status: ('A' for Active; 'I' for Inactive)
REMARK    1  A    between atoms: C_4  and  C_7 
REMARK    2  A    between atoms: C_5  and  N_10 
REMARK       I    between atoms: C_7  and  N_9 
REMARK    3  A    between atoms: N_12  and  N_14 
ROOT
HETATM    1  C   UNK N   1      28.420  17.883   9.444  0.00  0.00     0.182 A 
HETATM    2  N   UNK N   1      28.408  17.491   8.147  0.00  0.00    -0.345 N 
ATOM      3  HN  UNK N   1      27.598  17.225   7.588  1.00  0.00     0.167 HD
HETATM    4  C   UNK N   1      29.693  17.527   7.755  0.00  0.00     0.147 A 
HETATM    5  C   UNK N   1      30.460  17.938   8.812  0.00  0.00     0.155 A 
HETATM    6  N   UNK N   1      29.673  18.164   9.877  0.00  0.00    -0.335 N 
HETATM    7  H   UNK N   1      29.946  18.467  10.774  0.00  0.00     0.168 HD
ENDROOT
BRANCH   5   8
HETATM    8  N   UNK N   1      31.863  18.099   8.789  0.00  0.00    -0.269 N 
HETATM    9  N   UNK N   1      32.634  17.160   9.062  0.00  0.00    -0.244 N 
ATOM     10  HN  UNK N   1      32.251  16.247   9.309  1.00  0.00     0.208 HD
ATOM     11  HN  UNK N   1      32.255  19.008   8.544  1.00  0.00     0.190 HD
BRANCH   9  12
HETATM   12  N   UNK N   1      33.998  17.343   9.033  0.00  0.00    -0.322 N 
HETATM   13  C   UNK N   1      34.877  16.537   9.846  0.00  0.00     0.172 C 
HETATM   14  C   UNK N   1      34.563  18.352   8.182  0.00  0.00     0.172 C 
ENDBRANCH   9  12
ENDBRANCH   5   8
BRANCH   4  15
HETATM   15  C   UNK N   1      30.168  17.178   6.404  0.00  0.00     0.269 C 
HETATM   16  O   UNK N   1      31.286  16.711   6.245  0.00  0.00    -0.266 OA
HETATM   17  N   UNK N   1      29.371  17.371   5.335  0.00  0.00    -0.365 N 
HETATM   18  H   UNK N   1      29.689  17.136   4.434  0.00  0.00     0.159 HD
HETATM   19  H   UNK N   1      28.469  17.747   5.456  0.00  0.00     0.159 HD
ENDBRANCH   4  15
TORSDOF 3
ENDMDL
MODEL 5
REMARK VINA RESULT:      -4.7      2.112      4.582
REMARK  3 active torsions:
REMARK  status: ('A' for Active; 'I' for Inactive)
REMARK    1  A    between atoms: C_4  and  C_7 
REMARK    2  A    between atoms: C_5  and  N_10 
REMARK       I    between atoms: C_7  and  N_9 
REMARK    3  A    between atoms: N_12  and  N_14 
ROOT
HETATM    1  C   UNK N   1      35.984  16.110  10.981  0.00  0.00     0.182 A 
HETATM    2  N   UNK N   1      36.110  15.237   9.953  0.00  0.00    -0.345 N 
ATOM      3  HN  UNK N   1      36.791  14.483   9.860  1.00  0.00     0.167 HD
HETATM    4  C   UNK N   1      35.145  15.576   9.081  0.00  0.00     0.147 A 
HETATM    5  C   UNK N   1      34.453  16.642   9.589  0.00  0.00     0.155 A 
HETATM    6  N   UNK N   1      34.970  16.986  10.781  0.00  0.00    -0.335 N 
HETATM    7  H   UNK N   1      34.677  17.714  11.377  0.00  0.00     0.168 HD
ENDROOT
BRANCH   5   8
HETATM    8  N   UNK N   1      33.363  17.284   8.961  0.00  0.00    -0.269 N 
HETATM    9  N   UNK N   1      32.197  16.866   9.086  0.00  0.00    -0.244 N 
ATOM     10  HN  UNK N   1      32.015  16.039   9.657  1.00  0.00     0.208 HD
ATOM     11  HN  UNK N   1      33.535  18.111   8.389  1.00  0.00     0.190 HD
BRANCH   9  12
HETATM   12  N   UNK N   1      31.151  17.510   8.463  0.00  0.00    -0.322 N 
HETATM   13  C   UNK N   1      30.410  18.551   9.135  0.00  0.00     0.172 C 
HETATM   14  C   UNK N   1      30.788  17.144   7.124  0.00  0.00     0.172 C 
ENDBRANCH   9  12
ENDBRANCH   5   8
BRANCH   4  15
HETATM   15  C   UNK N   1      34.897  14.895   7.797  0.00  0.00     0.269 C 
HETATM   16  O   UNK N   1      33.765  14.834   7.340  0.00  0.00    -0.266 OA
HETATM   17  N   UNK N   1      35.917  14.334   7.121  0.00  0.00    -0.365 N 
HETATM   18  H   UNK N   1      35.750  13.879   6.264  0.00  0.00     0.159 HD
HETATM   19  H   UNK N   1      36.832  14.379   7.483  0.00  0.00     0.159 HD
ENDBRANCH   4  15
TORSDOF 3
ENDMDL
MODEL 6
REMARK VINA RESULT:      -4.6     11.914     13.546
REMARK  3 active torsions:
REMARK  status: ('A' for Active; 'I' for Inactive)
REMARK    1  A    between atoms: C_4  and  C_7 
REMARK    2  A    between atoms: C_5  and  N_10 
REMARK       I    between atoms: C_7  and  N_9 
REMARK    3  A    between atoms: N_12  and  N_14 
ROOT
HETATM    1  C   UNK N   1      19.983  17.307   0.819  0.00  0.00     0.182 A 
HETATM    2  N   UNK N   1      20.228  18.624   1.016  0.00  0.00    -0.345 N 
ATOM      3  HN  UNK N   1      20.288  19.356   0.308  1.00  0.00     0.167 HD
HETATM    4  C   UNK N   1      20.373  18.761   2.346  0.00  0.00     0.147 A 
HETATM    5  C   UNK N   1      20.216  17.533   2.929  0.00  0.00     0.155 A 
HETATM    6  N   UNK N   1      19.971  16.612   1.982  0.00  0.00    -0.335 N 
HETATM    7  H   UNK N   1      19.816  15.648   2.106  0.00  0.00     0.168 HD
ENDROOT
BRANCH   5   8
HETATM    8  N   UNK N   1      20.298  17.271   4.315  0.00  0.00    -0.269 N 
HETATM    9  N   UNK N   1      21.383  17.011   4.869  0.00  0.00    -0.244 N 
ATOM     10  HN  UNK N   1      22.240  16.986   4.314  1.00  0.00     0.208 HD
ATOM     11  HN  UNK N   1      19.447  17.294   4.877  1.00  0.00     0.190 HD
BRANCH   9  12
HETATM   12  N   UNK N   1      21.437  16.759   6.221  0.00  0.00    -0.322 N 
HETATM   13  C   UNK N   1      22.208  15.657   6.744  0.00  0.00     0.172 C 
HETATM   14  C   UNK N   1      20.715  17.603   7.131  0.00  0.00     0.172 C 
ENDBRANCH   9  12
ENDBRANCH   5   8
BRANCH   4  15
HETATM   15  C   UNK N   1      20.655  20.035   3.031  0.00  0.00     0.269 C 
HETATM   16  O   UNK N   1      20.715  20.078   4.251  0.00  0.00    -0.266 OA
HETATM   17  N   UNK N   1      20.848  21.160   2.317  0.00  0.00    -0.365 N 
HETATM   18  H   UNK N   1      21.036  22.010   2.777  0.00  0.00     0.159 HD
HETATM   19  H   UNK N   1      20.801  21.132   1.334  0.00  0.00     0.159 HD
ENDBRANCH   4  15
TORSDOF 3
ENDMDL
MODEL 7
REMARK VINA RESULT:      -4.6      5.467      7.742
REMARK  3 active torsions:
REMARK  status: ('A' for Active; 'I' for Inactive)
REMARK    1  A    between atoms: C_4  and  C_7 
REMARK    2  A    between atoms: C_5  and  N_10 
REMARK       I    between atoms: C_7  and  N_9 
REMARK    3  A    between atoms: N_12  and  N_14 
ROOT
HETATM    1  C   UNK N   1      36.846  14.474  15.902  0.00  0.00     0.182 A 
HETATM    2  N   UNK N   1      35.988  13.435  15.759  0.00  0.00    -0.345 N 
ATOM      3  HN  UNK N   1      35.612  12.837  16.495  1.00  0.00     0.167 HD
HETATM    4  C   UNK N   1      35.740  13.360  14.440  0.00  0.00     0.147 A 
HETATM    5  C   UNK N   1      36.445  14.348  13.808  0.00  0.00     0.155 A 
HETATM    6  N   UNK N   1      37.143  15.054  14.714  0.00  0.00    -0.335 N 
HETATM    7  H   UNK N   1      37.737  15.821  14.550  0.00  0.00     0.168 HD
ENDROOT
BRANCH   5   8
HETATM    8  N   UNK N   1      36.442  14.591  12.416  0.00  0.00    -0.269 N 
HETATM    9  N   UNK N   1      37.254  14.035  11.653  0.00  0.00    -0.244 N 
ATOM     10  HN  UNK N   1      37.943  13.385  12.035  1.00  0.00     0.208 HD
ATOM     11  HN  UNK N   1      35.757  15.238  12.026  1.00  0.00     0.190 HD
BRANCH   9  12
HETATM   12  N   UNK N   1      37.231  14.288  10.300  0.00  0.00    -0.322 N 
HETATM   13  C   UNK N   1      36.037  14.778   9.654  0.00  0.00     0.172 C 
HETATM   14  C   UNK N   1      38.411  14.064   9.514  0.00  0.00     0.172 C 
ENDBRANCH   9  12
ENDBRANCH   5   8
BRANCH   4  15
HETATM   15  C   UNK N   1      34.851  12.368  13.810  0.00  0.00     0.269 C 
HETATM   16  O   UNK N   1      34.842  12.232  12.595  0.00  0.00    -0.266 OA
HETATM   17  N   UNK N   1      34.043  11.604  14.569  0.00  0.00    -0.365 N 
HETATM   18  H   UNK N   1      33.450  10.942  14.146  0.00  0.00     0.159 HD
HETATM   19  H   UNK N   1      34.045  11.708  15.548  0.00  0.00     0.159 HD
ENDBRANCH   4  15
TORSDOF 3
ENDMDL
MODEL 8
REMARK VINA RESULT:      -4.6      3.904      6.025
REMARK  3 active torsions:
REMARK  status: ('A' for Active; 'I' for Inactive)
REMARK    1  A    between atoms: C_4  and  C_7 
REMARK    2  A    between atoms: C_5  and  N_10 
REMARK       I    between atoms: C_7  and  N_9 
REMARK    3  A    between atoms: N_12  and  N_14 
ROOT
HETATM    1  C   UNK N   1      37.738  13.690  10.023  0.00  0.00     0.182 A 
HETATM    2  N   UNK N   1      36.782  14.566   9.634  0.00  0.00    -0.345 N 
ATOM      3  HN  UNK N   1      36.582  14.884   8.685  1.00  0.00     0.167 HD
HETATM    4  C   UNK N   1      36.152  14.927  10.765  0.00  0.00     0.147 A 
HETATM    5  C   UNK N   1      36.731  14.269  11.815  0.00  0.00     0.155 A 
HETATM    6  N   UNK N   1      37.728  13.489  11.363  0.00  0.00    -0.335 N 
HETATM    7  H   UNK N   1      38.319  12.903  11.889  0.00  0.00     0.168 HD
ENDROOT
BRANCH   5   8
HETATM    8  N   UNK N   1      36.343  14.389  13.169  0.00  0.00    -0.269 N 
HETATM    9  N   UNK N   1      37.155  14.222  14.099  0.00  0.00    -0.244 N 
ATOM     10  HN  UNK N   1      38.127  13.994  13.886  1.00  0.00     0.208 HD
ATOM     11  HN  UNK N   1      35.374  14.617  13.390  1.00  0.00     0.190 HD
BRANCH   9  12
HETATM   12  N   UNK N   1      36.752  14.344  15.409  0.00  0.00    -0.322 N 
HETATM   13  C   UNK N   1      35.792  13.432  15.982  0.00  0.00     0.172 C 
HETATM   14  C   UNK N   1      37.293  15.395  16.224  0.00  0.00     0.172 C 
ENDBRANCH   9  12
ENDBRANCH   5   8
BRANCH   4  15
HETATM   15  C   UNK N   1      35.026  15.877  10.831  0.00  0.00     0.269 C 
HETATM   16  O   UNK N   1      35.233  17.081  10.792  0.00  0.00    -0.266 OA
HETATM   17  N   UNK N   1      33.762  15.423  10.934  0.00  0.00    -0.365 N 
HETATM   18  H   UNK N   1      33.012  16.059  10.978  0.00  0.00     0.159 HD
HETATM   19  H   UNK N   1      33.589  14.454  10.966  0.00  0.00     0.159 HD
ENDBRANCH   4  15
TORSDOF 3
ENDMDL
MODEL 9
REMARK VINA RESULT:      -4.5      2.265      4.409
REMARK  3 active torsions:
REMARK  status: ('A' for Active; 'I' for Inactive)
REMARK    1  A    between atoms: C_4  and  C_7 
REMARK    2  A    between atoms: C_5  and  N_10 
REMARK       I    between atoms: C_7  and  N_9 
REMARK    3  A    between atoms: N_12  and  N_14 
ROOT
HETATM    1  C   UNK N   1      30.463  17.494   8.492  0.00  0.00     0.182 A 
HETATM    2  N   UNK N   1      31.700  17.805   8.950  0.00  0.00    -0.345 N 
ATOM      3  HN  UNK N   1      31.954  18.106   9.890  1.00  0.00     0.167 HD
HETATM    4  C   UNK N   1      32.519  17.632   7.898  0.00  0.00     0.147 A 
HETATM    5  C   UNK N   1      31.773  17.222   6.827  0.00  0.00     0.155 A 
HETATM    6  N   UNK N   1      30.481  17.132   7.187  0.00  0.00    -0.335 N 
HETATM    7  H   UNK N   1      29.718  16.862   6.626  0.00  0.00     0.168 HD
ENDROOT
BRANCH   5   8
HETATM    8  N   UNK N   1      32.279  16.936   5.539  0.00  0.00    -0.269 N 
HETATM    9  N   UNK N   1      32.870  15.869   5.291  0.00  0.00    -0.244 N 
ATOM     10  HN  UNK N   1      32.997  15.177   6.032  1.00  0.00     0.208 HD
ATOM     11  HN  UNK N   1      32.158  17.621   4.794  1.00  0.00     0.190 HD
BRANCH   9  12
HETATM   12  N   UNK N   1      33.355  15.614   4.028  0.00  0.00    -0.322 N 
HETATM   13  C   UNK N   1      34.233  14.497   3.778  0.00  0.00     0.172 C 
HETATM   14  C   UNK N   1      32.983  16.470   2.938  0.00  0.00     0.172 C 
ENDBRANCH   9  12
ENDBRANCH   5   8
BRANCH   4  15
HETATM   15  C   UNK N   1      33.976  17.855   7.926  0.00  0.00     0.269 C 
HETATM   16  O   UNK N   1      34.583  18.090   6.891  0.00  0.00    -0.266 OA
HETATM   17  N   UNK N   1      34.647  17.800   9.092  0.00  0.00    -0.365 N 
HETATM   18  H   UNK N   1      35.620  17.950   9.108  0.00  0.00     0.159 HD
HETATM   19  H   UNK N   1      34.165  17.611   9.929  0.00  0.00     0.159 HD
ENDBRANCH   4  15
TORSDOF 3
ENDMDL
