MODEL 1
REMARK VINA RESULT:      -0.8      0.000      0.000
REMARK  7 active torsions:
REMARK  status: ('A' for Active; 'I' for Inactive)
REMARK    1  A    between atoms: Br_1  and  Br_1 
REMARK    2  A    between atoms: C_12  and  O_13 
REMARK    3  A    between atoms: O_13  and  C_14 
REMARK    4  A    between atoms: C_14  and  C_16 
REMARK    5  A    between atoms: C_16  and  C_17 
REMARK    6  A    between atoms: C_16  and  C_18 
REMARK    7  A    between atoms: C_18  and  O_19 
ROOT
HETATM    1 Br   UNK N   1      18.864  27.442 -11.952  0.00  0.00     0.000 Br
ENDROOT
TORSDOF 7
ENDMDL
MODEL 2
REMARK VINA RESULT:      -0.8      8.761      8.761
REMARK  7 active torsions:
REMARK  status: ('A' for Active; 'I' for Inactive)
REMARK    1  A    between atoms: Br_1  and  Br_1 
REMARK    2  A    between atoms: C_12  and  O_13 
REMARK    3  A    between atoms: O_13  and  C_14 
REMARK    4  A    between atoms: C_14  and  C_16 
REMARK    5  A    between atoms: C_16  and  C_17 
REMARK    6  A    between atoms: C_16  and  C_18 
REMARK    7  A    between atoms: C_18  and  O_19 
ROOT
HETATM    1 Br   UNK N   1      24.938  27.052  -5.651  0.00  0.00     0.000 Br
ENDROOT
TORSDOF 7
ENDMDL
MODEL 3
REMARK VINA RESULT:      -0.8     39.469     39.469
REMARK  7 active torsions:
REMARK  status: ('A' for Active; 'I' for Inactive)
REMARK    1  A    between atoms: Br_1  and  Br_1 
REMARK    2  A    between atoms: C_12  and  O_13 
REMARK    3  A    between atoms: O_13  and  C_14 
REMARK    4  A    between atoms: C_14  and  C_16 
REMARK    5  A    between atoms: C_16  and  C_17 
REMARK    6  A    between atoms: C_16  and  C_18 
REMARK    7  A    between atoms: C_18  and  O_19 
ROOT
HETATM    1 Br   UNK N   1      30.715   7.763  20.144  0.00  0.00     0.000 Br
ENDROOT
TORSDOF 7
ENDMDL
MODEL 4
REMARK VINA RESULT:      -0.8     34.722     34.722
REMARK  7 active torsions:
REMARK  status: ('A' for Active; 'I' for Inactive)
REMARK    1  A    between atoms: Br_1  and  Br_1 
REMARK    2  A    between atoms: C_12  and  O_13 
REMARK    3  A    between atoms: O_13  and  C_14 
REMARK    4  A    between atoms: C_14  and  C_16 
REMARK    5  A    between atoms: C_16  and  C_17 
REMARK    6  A    between atoms: C_16  and  C_18 
REMARK    7  A    between atoms: C_18  and  O_19 
ROOT
HETATM    1 Br   UNK N   1      33.792  10.781  14.603  0.00  0.00     0.000 Br
ENDROOT
TORSDOF 7
ENDMDL
MODEL 5
REMARK VINA RESULT:      -0.8     20.839     20.839
REMARK  7 active torsions:
REMARK  status: ('A' for Active; 'I' for Inactive)
REMARK    1  A    between atoms: Br_1  and  Br_1 
REMARK    2  A    between atoms: C_12  and  O_13 
REMARK    3  A    between atoms: O_13  and  C_14 
REMARK    4  A    between atoms: C_14  and  C_16 
REMARK    5  A    between atoms: C_16  and  C_17 
REMARK    6  A    between atoms: C_16  and  C_18 
REMARK    7  A    between atoms: C_18  and  O_19 
ROOT
HETATM    1 Br   UNK N   1      27.062  21.453   6.247  0.00  0.00     0.000 Br
ENDROOT
TORSDOF 7
ENDMDL
MODEL 6
REMARK VINA RESULT:      -0.7     36.684     36.684
REMARK  7 active torsions:
REMARK  status: ('A' for Active; 'I' for Inactive)
REMARK    1  A    between atoms: Br_1  and  Br_1 
REMARK    2  A    between atoms: C_12  and  O_13 
REMARK    3  A    between atoms: O_13  and  C_14 
REMARK    4  A    between atoms: C_14  and  C_16 
REMARK    5  A    between atoms: C_16  and  C_17 
REMARK    6  A    between atoms: C_16  and  C_18 
REMARK    7  A    between atoms: C_18  and  O_19 
ROOT
HETATM    1 Br   UNK N   1      35.125  13.311  17.740  0.00  0.00     0.000 Br
ENDROOT
TORSDOF 7
ENDMDL
MODEL 7
REMARK VINA RESULT:      -0.7     10.711     10.711
REMARK  7 active torsions:
REMARK  status: ('A' for Active; 'I' for Inactive)
REMARK    1  A    between atoms: Br_1  and  Br_1 
REMARK    2  A    between atoms: C_12  and  O_13 
REMARK    3  A    between atoms: O_13  and  C_14 
REMARK    4  A    between atoms: C_14  and  C_16 
REMARK    5  A    between atoms: C_16  and  C_17 
REMARK    6  A    between atoms: C_16  and  C_18 
REMARK    7  A    between atoms: C_18  and  O_19 
ROOT
HETATM    1 Br   UNK N   1      25.764  27.914  -3.772  0.00  0.00     0.000 Br
ENDROOT
TORSDOF 7
ENDMDL
MODEL 8
REMARK VINA RESULT:      -0.7     26.872     26.872
REMARK  7 active torsions:
REMARK  status: ('A' for Active; 'I' for Inactive)
REMARK    1  A    between atoms: Br_1  and  Br_1 
REMARK    2  A    between atoms: C_12  and  O_13 
REMARK    3  A    between atoms: O_13  and  C_14 
REMARK    4  A    between atoms: C_14  and  C_16 
REMARK    5  A    between atoms: C_16  and  C_17 
REMARK    6  A    between atoms: C_16  and  C_18 
REMARK    7  A    between atoms: C_18  and  O_19 
ROOT
HETATM    1 Br   UNK N   1      34.201  18.151   8.062  0.00  0.00     0.000 Br
ENDROOT
TORSDOF 7
ENDMDL
MODEL 9
REMARK VINA RESULT:      -0.7     25.674     25.674
REMARK  7 active torsions:
REMARK  status: ('A' for Active; 'I' for Inactive)
REMARK    1  A    between atoms: Br_1  and  Br_1 
REMARK    2  A    between atoms: C_12  and  O_13 
REMARK    3  A    between atoms: O_13  and  C_14 
REMARK    4  A    between atoms: C_14  and  C_16 
REMARK    5  A    between atoms: C_16  and  C_17 
REMARK    6  A    between atoms: C_16  and  C_18 
REMARK    7  A    between atoms: C_18  and  O_19 
ROOT
HETATM    1 Br   UNK N   1      29.575  18.467   9.586  0.00  0.00     0.000 Br
ENDROOT
TORSDOF 7
ENDMDL
