MODEL 1
REMARK VINA RESULT:      -7.2      0.000      0.000
REMARK  3 active torsions:
REMARK  status: ('A' for Active; 'I' for Inactive)
REMARK    1  A    between atoms: C_24  and  C_15 
REMARK    2  A    between atoms: O_28  and  C_16 
REMARK    3  A    between atoms: C_24  and  O_28 
ROOT
HETATM    1  C   UNK N   1      26.162  18.159   3.755  0.00  0.00     0.048 C 
HETATM    2  C   UNK N   1      22.003  16.614   3.300  0.00  0.00     0.021 C 
HETATM    3  C   UNK N   1      21.584  13.217   4.570  0.00  0.00     0.019 C 
HETATM    4  C   UNK N   1      21.085  19.592   3.071  0.00  0.00     0.084 C 
HETATM    5  C   UNK N   1      21.175  16.511   6.370  0.00  0.00     0.007 C 
HETATM    6  C   UNK N   1      24.130  13.925   6.678  0.00  0.00     0.009 C 
HETATM    7  C   UNK N   1      21.076  18.711   4.310  0.00  0.00     0.022 C 
HETATM    8  C   UNK N   1      20.855  15.226   5.631  0.00  0.00     0.013 C 
HETATM    9  C   UNK N   1      23.100  13.919   7.821  0.00  0.00     0.048 C 
HETATM   10  C   UNK N   1      24.868  16.706   5.236  0.00  0.00    -0.014 C 
HETATM   11  C   UNK N   1      23.625  19.610   3.392  0.00  0.00     0.058 C 
HETATM   12  C   UNK N   1      24.860  17.707   4.334  0.00  0.00    -0.058 C 
HETATM   13  C   UNK N   1      22.387  20.323   3.035  0.00  0.00     0.149 C 
HETATM   14  C   UNK N   1      23.618  16.210   5.951  0.00  0.00     0.018 C 
HETATM   15  C   UNK N   1      22.417  17.164   5.765  0.00  0.00     0.006 C 
HETATM   16  C   UNK N   1      23.377  14.692   5.598  0.00  0.00     0.005 C 
HETATM   17  C   UNK N   1      23.587  18.390   3.967  0.00  0.00    -0.040 C 
HETATM   18  C   UNK N   1      22.260  17.715   4.326  0.00  0.00    -0.012 C 
HETATM   19  C   UNK N   1      21.923  14.121   5.750  0.00  0.00    -0.001 C 
HETATM   20  C   UNK N   1      21.889  13.335   7.124  0.00  0.00     0.138 C 
HETATM   21  O   UNK N   1      22.421  21.504   2.734  0.00  0.00    -0.293 OA
ENDROOT
BRANCH  20  22
HETATM   22  C   UNK N   1      22.181  11.821   7.181  0.00  0.00     0.158 C 
HETATM   23  C   UNK N   1      23.200  11.202   8.081  0.00  0.00     0.094 C 
HETATM   24  O   UNK N   1      21.516  11.071   6.480  0.00  0.00    -0.295 OA
ENDBRANCH  20  22
BRANCH  20  25
HETATM   25  O   UNK N   1      20.709  13.591   7.820  0.00  0.00    -0.302 OA
BRANCH  25  26
HETATM   26  C   UNK N   1      20.631  14.006   9.120  0.00  0.00     0.256 C 
HETATM   27  C   UNK N   1      20.748  13.055  10.271  0.00  0.00     0.126 C 
HETATM   28  O   UNK N   1      20.465  15.191   9.358  0.00  0.00    -0.266 OA
ENDBRANCH  25  26
ENDBRANCH  20  25
TORSDOF 3
ENDMDL
MODEL 2
REMARK VINA RESULT:      -7.2     14.331     16.234
REMARK  3 active torsions:
REMARK  status: ('A' for Active; 'I' for Inactive)
REMARK    1  A    between atoms: C_24  and  C_15 
REMARK    2  A    between atoms: O_28  and  C_16 
REMARK    3  A    between atoms: C_24  and  O_28 
ROOT
HETATM    1  C   UNK N   1      30.372  19.883  -7.737  0.00  0.00     0.048 C 
HETATM    2  C   UNK N   1      31.526  23.547  -5.472  0.00  0.00     0.021 C 
HETATM    3  C   UNK N   1      29.274  26.362  -6.046  0.00  0.00     0.019 C 
HETATM    4  C   UNK N   1      33.149  21.674  -3.569  0.00  0.00     0.084 C 
HETATM    5  C   UNK N   1      29.093  23.651  -3.425  0.00  0.00     0.007 C 
HETATM    6  C   UNK N   1      26.891  24.047  -6.666  0.00  0.00     0.009 C 
HETATM    7  C   UNK N   1      31.745  22.216  -3.360  0.00  0.00     0.022 C 
HETATM    8  C   UNK N   1      29.351  24.983  -4.100  0.00  0.00     0.013 C 
HETATM    9  C   UNK N   1      26.231  24.465  -5.341  0.00  0.00     0.048 C 
HETATM   10  C   UNK N   1      28.956  21.578  -6.688  0.00  0.00    -0.014 C 
HETATM   11  C   UNK N   1      32.057  20.183  -5.340  0.00  0.00     0.058 C 
HETATM   12  C   UNK N   1      30.120  20.899  -6.670  0.00  0.00    -0.058 C 
HETATM   13  C   UNK N   1      33.037  20.352  -4.254  0.00  0.00     0.149 C 
HETATM   14  C   UNK N   1      28.552  22.581  -5.615  0.00  0.00     0.018 C 
HETATM   15  C   UNK N   1      29.464  22.508  -4.370  0.00  0.00     0.006 C 
HETATM   16  C   UNK N   1      28.361  24.003  -6.270  0.00  0.00     0.005 C 
HETATM   17  C   UNK N   1      31.108  21.114  -5.575  0.00  0.00    -0.040 C 
HETATM   18  C   UNK N   1      30.970  22.357  -4.692  0.00  0.00    -0.012 C 
HETATM   19  C   UNK N   1      28.484  25.264  -5.343  0.00  0.00    -0.001 C 
HETATM   20  C   UNK N   1      27.005  25.723  -5.009  0.00  0.00     0.138 C 
HETATM   21  O   UNK N   1      33.734  19.415  -3.902  0.00  0.00    -0.293 OA
ENDROOT
BRANCH  20  22
HETATM   22  C   UNK N   1      26.288  26.782  -5.871  0.00  0.00     0.158 C 
HETATM   23  C   UNK N   1      24.804  26.938  -5.938  0.00  0.00     0.094 C 
HETATM   24  O   UNK N   1      26.968  27.571  -6.513  0.00  0.00    -0.295 OA
ENDBRANCH  20  22
BRANCH  20  25
HETATM   25  O   UNK N   1      26.880  26.078  -3.668  0.00  0.00    -0.302 OA
BRANCH  25  26
HETATM   26  C   UNK N   1      26.727  27.351  -3.196  0.00  0.00     0.256 C 
HETATM   27  C   UNK N   1      27.834  28.360  -3.243  0.00  0.00     0.126 C 
HETATM   28  O   UNK N   1      25.653  27.687  -2.724  0.00  0.00    -0.266 OA
ENDBRANCH  25  26
ENDBRANCH  20  25
TORSDOF 3
ENDMDL
MODEL 3
REMARK VINA RESULT:      -7.2      7.525     10.122
REMARK  3 active torsions:
REMARK  status: ('A' for Active; 'I' for Inactive)
REMARK    1  A    between atoms: C_24  and  C_15 
REMARK    2  A    between atoms: O_28  and  C_16 
REMARK    3  A    between atoms: C_24  and  O_28 
ROOT
HETATM    1  C   UNK N   1      26.319  17.837   5.310  0.00  0.00     0.048 C 
HETATM    2  C   UNK N   1      30.062  16.612   3.218  0.00  0.00     0.021 C 
HETATM    3  C   UNK N   1      33.094  17.641   4.972  0.00  0.00     0.019 C 
HETATM    4  C   UNK N   1      28.346  14.466   1.730  0.00  0.00     0.084 C 
HETATM    5  C   UNK N   1      31.108  14.447   5.301  0.00  0.00     0.007 C 
HETATM    6  C   UNK N   1      31.248  17.488   7.799  0.00  0.00     0.009 C 
HETATM    7  C   UNK N   1      29.200  14.272   2.972  0.00  0.00     0.022 C 
HETATM    8  C   UNK N   1      32.181  15.437   4.894  0.00  0.00     0.013 C 
HETATM    9  C   UNK N   1      32.069  16.248   8.192  0.00  0.00     0.048 C 
HETATM   10  C   UNK N   1      28.458  17.102   6.242  0.00  0.00    -0.014 C 
HETATM   11  C   UNK N   1      26.770  15.733   3.300  0.00  0.00     0.058 C 
HETATM   12  C   UNK N   1      27.571  17.024   5.230  0.00  0.00    -0.058 C 
HETATM   13  C   UNK N   1      26.961  14.807   2.171  0.00  0.00     0.149 C 
HETATM   14  C   UNK N   1      29.729  16.267   6.311  0.00  0.00     0.018 C 
HETATM   15  C   UNK N   1      29.737  15.123   5.273  0.00  0.00     0.006 C 
HETATM   16  C   UNK N   1      30.985  17.220   6.323  0.00  0.00     0.005 C 
HETATM   17  C   UNK N   1      27.805  16.100   4.084  0.00  0.00    -0.040 C 
HETATM   18  C   UNK N   1      29.210  15.528   3.875  0.00  0.00    -0.012 C 
HETATM   19  C   UNK N   1      32.362  16.633   5.851  0.00  0.00    -0.001 C 
HETATM   20  C   UNK N   1      33.180  16.292   7.163  0.00  0.00     0.138 C 
HETATM   21  O   UNK N   1      25.998  14.304   1.618  0.00  0.00    -0.293 OA
ENDROOT
BRANCH  20  22
HETATM   22  C   UNK N   1      34.154  17.315   7.781  0.00  0.00     0.158 C 
HETATM   23  C   UNK N   1      34.629  17.265   9.197  0.00  0.00     0.094 C 
HETATM   24  O   UNK N   1      34.600  18.202   7.067  0.00  0.00    -0.295 OA
ENDBRANCH  20  22
BRANCH  20  25
HETATM   25  O   UNK N   1      33.832  15.066   7.044  0.00  0.00    -0.302 OA
BRANCH  25  26
HETATM   26  C   UNK N   1      35.165  14.900   6.789  0.00  0.00     0.256 C 
HETATM   27  C   UNK N   1      36.082  14.204   7.748  0.00  0.00     0.126 C 
HETATM   28  O   UNK N   1      35.629  15.324   5.743  0.00  0.00    -0.266 OA
ENDBRANCH  25  26
ENDBRANCH  20  25
TORSDOF 3
ENDMDL
MODEL 4
REMARK VINA RESULT:      -7.2     13.921     15.923
REMARK  3 active torsions:
REMARK  status: ('A' for Active; 'I' for Inactive)
REMARK    1  A    between atoms: C_24  and  C_15 
REMARK    2  A    between atoms: O_28  and  C_16 
REMARK    3  A    between atoms: C_24  and  O_28 
ROOT
HETATM    1  C   UNK N   1      25.368  22.518  -7.095  0.00  0.00     0.048 C 
HETATM    2  C   UNK N   1      27.592  24.098  -3.566  0.00  0.00     0.021 C 
HETATM    3  C   UNK N   1      30.497  22.075  -2.673  0.00  0.00     0.019 C 
HETATM    4  C   UNK N   1      26.239  26.855  -4.141  0.00  0.00     0.084 C 
HETATM    5  C   UNK N   1      30.262  25.013  -5.034  0.00  0.00     0.007 C 
HETATM    6  C   UNK N   1      30.613  21.195  -5.935  0.00  0.00     0.009 C 
HETATM    7  C   UNK N   1      27.622  26.394  -4.569  0.00  0.00     0.022 C 
HETATM    8  C   UNK N   1      30.528  24.182  -3.794  0.00  0.00     0.013 C 
HETATM    9  C   UNK N   1      31.893  22.041  -6.051  0.00  0.00     0.048 C 
HETATM   10  C   UNK N   1      27.772  22.530  -6.644  0.00  0.00    -0.014 C 
HETATM   11  C   UNK N   1      25.400  25.220  -5.923  0.00  0.00     0.058 C 
HETATM   12  C   UNK N   1      26.581  23.139  -6.479  0.00  0.00    -0.058 C 
HETATM   13  C   UNK N   1      25.280  26.516  -5.234  0.00  0.00     0.149 C 
HETATM   14  C   UNK N   1      29.086  23.103  -6.131  0.00  0.00     0.018 C 
HETATM   15  C   UNK N   1      28.949  24.576  -5.682  0.00  0.00     0.006 C 
HETATM   16  C   UNK N   1      29.727  22.104  -5.093  0.00  0.00     0.005 C 
HETATM   17  C   UNK N   1      26.484  24.435  -5.749  0.00  0.00    -0.040 C 
HETATM   18  C   UNK N   1      27.662  24.878  -4.877  0.00  0.00    -0.012 C 
HETATM   19  C   UNK N   1      30.750  22.678  -4.051  0.00  0.00    -0.001 C 
HETATM   20  C   UNK N   1      32.194  22.322  -4.594  0.00  0.00     0.138 C 
HETATM   21  O   UNK N   1      24.421  27.314  -5.569  0.00  0.00    -0.293 OA
ENDROOT
BRANCH  20  22
HETATM   22  C   UNK N   1      32.912  21.029  -4.156  0.00  0.00     0.158 C 
HETATM   23  C   UNK N   1      33.812  20.937  -2.967  0.00  0.00     0.094 C 
HETATM   24  O   UNK N   1      32.708  20.004  -4.791  0.00  0.00    -0.295 OA
ENDBRANCH  20  22
BRANCH  20  25
HETATM   25  O   UNK N   1      33.069  23.396  -4.437  0.00  0.00    -0.302 OA
BRANCH  25  26
HETATM   26  C   UNK N   1      33.977  23.819  -5.366  0.00  0.00     0.256 C 
HETATM   27  C   UNK N   1      33.737  25.020  -6.229  0.00  0.00     0.126 C 
HETATM   28  O   UNK N   1      35.024  23.207  -5.499  0.00  0.00    -0.266 OA
ENDBRANCH  25  26
ENDBRANCH  20  25
TORSDOF 3
ENDMDL
MODEL 5
REMARK VINA RESULT:      -6.9     12.472     15.357
REMARK  3 active torsions:
REMARK  status: ('A' for Active; 'I' for Inactive)
REMARK    1  A    between atoms: C_24  and  C_15 
REMARK    2  A    between atoms: O_28  and  C_16 
REMARK    3  A    between atoms: C_24  and  O_28 
ROOT
HETATM    1  C   UNK N   1      34.332   9.538  12.291  0.00  0.00     0.048 C 
HETATM    2  C   UNK N   1      37.224  12.889  11.752  0.00  0.00     0.021 C 
HETATM    3  C   UNK N   1      37.634  13.889   8.265  0.00  0.00     0.019 C 
HETATM    4  C   UNK N   1      36.763  13.569  14.767  0.00  0.00     0.084 C 
HETATM    5  C   UNK N   1      35.188  15.159  10.846  0.00  0.00     0.007 C 
HETATM    6  C   UNK N   1      34.481  12.765   7.800  0.00  0.00     0.009 C 
HETATM    7  C   UNK N   1      36.091  14.204  13.560  0.00  0.00     0.022 C 
HETATM    8  C   UNK N   1      36.398  15.059   9.939  0.00  0.00     0.013 C 
HETATM    9  C   UNK N   1      34.052  14.232   7.625  0.00  0.00     0.048 C 
HETATM   10  C   UNK N   1      34.281  11.402  10.709  0.00  0.00    -0.014 C 
HETATM   11  C   UNK N   1      35.297  11.543  14.220  0.00  0.00     0.058 C 
HETATM   12  C   UNK N   1      34.646  10.953  11.926  0.00  0.00    -0.058 C 
HETATM   13  C   UNK N   1      35.911  12.430  15.222  0.00  0.00     0.149 C 
HETATM   14  C   UNK N   1      34.478  12.841  10.251  0.00  0.00     0.018 C 
HETATM   15  C   UNK N   1      34.850  13.783  11.418  0.00  0.00     0.006 C 
HETATM   16  C   UNK N   1      35.425  12.867   8.991  0.00  0.00     0.005 C 
HETATM   17  C   UNK N   1      35.296  11.866  12.909  0.00  0.00    -0.040 C 
HETATM   18  C   UNK N   1      35.879  13.190  12.410  0.00  0.00    -0.012 C 
HETATM   19  C   UNK N   1      36.198  14.197   8.676  0.00  0.00    -0.001 C 
HETATM   20  C   UNK N   1      35.396  14.922   7.519  0.00  0.00     0.138 C 
HETATM   21  O   UNK N   1      35.708  12.250  16.411  0.00  0.00    -0.293 OA
ENDROOT
BRANCH  20  22
HETATM   22  C   UNK N   1      35.761  14.697   6.038  0.00  0.00     0.158 C 
HETATM   23  C   UNK N   1      34.783  14.264   4.995  0.00  0.00     0.094 C 
HETATM   24  O   UNK N   1      36.908  14.921   5.678  0.00  0.00    -0.295 OA
ENDBRANCH  20  22
BRANCH  20  25
HETATM   25  O   UNK N   1      35.302  16.292   7.755  0.00  0.00    -0.302 OA
BRANCH  25  26
HETATM   26  C   UNK N   1      34.274  17.097   7.351  0.00  0.00     0.256 C 
HETATM   27  C   UNK N   1      33.101  17.399   8.233  0.00  0.00     0.126 C 
HETATM   28  O   UNK N   1      34.309  17.595   6.238  0.00  0.00    -0.266 OA
ENDBRANCH  25  26
ENDBRANCH  20  25
TORSDOF 3
ENDMDL
MODEL 6
REMARK VINA RESULT:      -6.8     11.353     14.174
REMARK  3 active torsions:
REMARK  status: ('A' for Active; 'I' for Inactive)
REMARK    1  A    between atoms: C_24  and  C_15 
REMARK    2  A    between atoms: O_28  and  C_16 
REMARK    3  A    between atoms: C_24  and  O_28 
ROOT
HETATM    1  C   UNK N   1      39.089  12.695   9.270  0.00  0.00     0.048 C 
HETATM    2  C   UNK N   1      36.054  15.589  10.789  0.00  0.00     0.021 C 
HETATM    3  C   UNK N   1      34.563  17.627   8.152  0.00  0.00     0.019 C 
HETATM    4  C   UNK N   1      35.817  13.775  13.322  0.00  0.00     0.084 C 
HETATM    5  C   UNK N   1      33.447  14.286   9.513  0.00  0.00     0.007 C 
HETATM    6  C   UNK N   1      35.223  15.039   6.080  0.00  0.00     0.009 C 
HETATM    7  C   UNK N   1      34.923  13.772  12.093  0.00  0.00     0.022 C 
HETATM    8  C   UNK N   1      33.541  15.779   9.264  0.00  0.00     0.013 C 
HETATM    9  C   UNK N   1      33.707  14.784   6.020  0.00  0.00     0.048 C 
HETATM   10  C   UNK N   1      37.002  13.450   8.241  0.00  0.00    -0.014 C 
HETATM   11  C   UNK N   1      37.544  12.688  11.778  0.00  0.00     0.058 C 
HETATM   12  C   UNK N   1      37.680  13.184   9.375  0.00  0.00    -0.058 C 
HETATM   13  C   UNK N   1      36.907  12.779  13.102  0.00  0.00     0.149 C 
HETATM   14  C   UNK N   1      35.541  13.879   8.217  0.00  0.00     0.018 C 
HETATM   15  C   UNK N   1      34.848  13.681   9.584  0.00  0.00     0.006 C 
HETATM   16  C   UNK N   1      35.424  15.310   7.566  0.00  0.00     0.005 C 
HETATM   17  C   UNK N   1      37.018  13.315  10.705  0.00  0.00    -0.040 C 
HETATM   18  C   UNK N   1      35.708  14.101  10.800  0.00  0.00    -0.012 C 
HETATM   19  C   UNK N   1      34.161  16.176   7.909  0.00  0.00    -0.001 C 
HETATM   20  C   UNK N   1      33.171  16.037   6.681  0.00  0.00     0.138 C 
HETATM   21  O   UNK N   1      37.250  12.033  14.003  0.00  0.00    -0.293 OA
ENDROOT
BRANCH  20  22
HETATM   22  C   UNK N   1      33.197  17.052   5.520  0.00  0.00     0.158 C 
HETATM   23  C   UNK N   1      32.543  16.823   4.196  0.00  0.00     0.094 C 
HETATM   24  O   UNK N   1      33.749  18.129   5.698  0.00  0.00    -0.295 OA
ENDBRANCH  20  22
BRANCH  20  25
HETATM   25  O   UNK N   1      31.855  15.880   7.111  0.00  0.00    -0.302 OA
BRANCH  25  26
HETATM   26  C   UNK N   1      30.938  16.885   7.237  0.00  0.00     0.256 C 
HETATM   27  C   UNK N   1      31.040  17.932   8.304  0.00  0.00     0.126 C 
HETATM   28  O   UNK N   1      30.004  16.942   6.453  0.00  0.00    -0.266 OA
ENDBRANCH  25  26
ENDBRANCH  20  25
TORSDOF 3
ENDMDL
MODEL 7
REMARK VINA RESULT:      -6.8     14.303     17.244
REMARK  3 active torsions:
REMARK  status: ('A' for Active; 'I' for Inactive)
REMARK    1  A    between atoms: C_24  and  C_15 
REMARK    2  A    between atoms: O_28  and  C_16 
REMARK    3  A    between atoms: C_24  and  O_28 
ROOT
HETATM    1  C   UNK N   1      36.781   8.697  18.369  0.00  0.00     0.048 C 
HETATM    2  C   UNK N   1      36.723  12.121  15.513  0.00  0.00     0.021 C 
HETATM    3  C   UNK N   1      37.218  11.107  12.041  0.00  0.00     0.019 C 
HETATM    4  C   UNK N   1      35.192  13.731  17.711  0.00  0.00     0.084 C 
HETATM    5  C   UNK N   1      34.007  11.454  13.996  0.00  0.00     0.007 C 
HETATM    6  C   UNK N   1      35.862   8.145  12.942  0.00  0.00     0.009 C 
HETATM    7  C   UNK N   1      34.599  12.979  16.529  0.00  0.00     0.022 C 
HETATM    8  C   UNK N   1      35.152  11.750  13.048  0.00  0.00     0.013 C 
HETATM    9  C   UNK N   1      34.629   8.528  12.106  0.00  0.00     0.048 C 
HETATM   10  C   UNK N   1      35.901   8.812  16.090  0.00  0.00    -0.014 C 
HETATM   11  C   UNK N   1      35.644  11.398  18.664  0.00  0.00     0.058 C 
HETATM   12  C   UNK N   1      36.152   9.458  17.246  0.00  0.00    -0.058 C 
HETATM   13  C   UNK N   1      35.237  12.797  18.875  0.00  0.00     0.149 C 
HETATM   14  C   UNK N   1      35.197   9.456  14.904  0.00  0.00     0.018 C 
HETATM   15  C   UNK N   1      34.541  10.806  15.273  0.00  0.00     0.006 C 
HETATM   16  C   UNK N   1      36.161   9.456  13.656  0.00  0.00     0.005 C 
HETATM   17  C   UNK N   1      35.757  10.884  17.421  0.00  0.00    -0.040 C 
HETATM   18  C   UNK N   1      35.412  11.710  16.179  0.00  0.00    -0.012 C 
HETATM   19  C   UNK N   1      35.900  10.509  12.522  0.00  0.00    -0.001 C 
HETATM   20  C   UNK N   1      35.143   9.742  11.361  0.00  0.00     0.138 C 
HETATM   21  O   UNK N   1      34.916  13.184  19.986  0.00  0.00    -0.293 OA
ENDROOT
BRANCH  20  22
HETATM   22  C   UNK N   1      35.919   9.101  10.193  0.00  0.00     0.158 C 
HETATM   23  C   UNK N   1      35.433   7.922   9.416  0.00  0.00     0.094 C 
HETATM   24  O   UNK N   1      36.979   9.605   9.850  0.00  0.00    -0.295 OA
ENDBRANCH  20  22
BRANCH  20  25
HETATM   25  O   UNK N   1      34.107  10.515  10.841  0.00  0.00    -0.302 OA
BRANCH  25  26
HETATM   26  C   UNK N   1      34.145  11.197   9.657  0.00  0.00     0.256 C 
HETATM   27  C   UNK N   1      34.939  12.455   9.484  0.00  0.00     0.126 C 
HETATM   28  O   UNK N   1      33.517  10.768   8.702  0.00  0.00    -0.266 OA
ENDBRANCH  25  26
ENDBRANCH  20  25
TORSDOF 3
ENDMDL
MODEL 8
REMARK VINA RESULT:      -6.8      1.843      3.548
REMARK  3 active torsions:
REMARK  status: ('A' for Active; 'I' for Inactive)
REMARK    1  A    between atoms: C_24  and  C_15 
REMARK    2  A    between atoms: O_28  and  C_16 
REMARK    3  A    between atoms: C_24  and  O_28 
ROOT
HETATM    1  C   UNK N   1      19.443  16.205   0.185  0.00  0.00     0.048 C 
HETATM    2  C   UNK N   1      19.981  18.104   4.185  0.00  0.00     0.021 C 
HETATM    3  C   UNK N   1      19.942  15.703   6.934  0.00  0.00     0.019 C 
HETATM    4  C   UNK N   1      21.235  20.543   2.688  0.00  0.00     0.084 C 
HETATM    5  C   UNK N   1      22.861  16.956   4.894  0.00  0.00     0.007 C 
HETATM    6  C   UNK N   1      21.085  13.447   4.691  0.00  0.00     0.009 C 
HETATM    7  C   UNK N   1      21.965  19.385   3.348  0.00  0.00     0.022 C 
HETATM    8  C   UNK N   1      21.866  16.783   6.023  0.00  0.00     0.013 C 
HETATM    9  C   UNK N   1      22.431  13.486   5.435  0.00  0.00     0.048 C 
HETATM   10  C   UNK N   1      20.630  15.378   2.157  0.00  0.00    -0.014 C 
HETATM   11  C   UNK N   1      20.596  18.817   0.909  0.00  0.00     0.058 C 
HETATM   12  C   UNK N   1      20.239  16.442   1.429  0.00  0.00    -0.058 C 
HETATM   13  C   UNK N   1      21.006  20.188   1.255  0.00  0.00     0.149 C 
HETATM   14  C   UNK N   1      21.507  15.487   3.397  0.00  0.00     0.018 C 
HETATM   15  C   UNK N   1      22.140  16.888   3.548  0.00  0.00     0.006 C 
HETATM   16  C   UNK N   1      20.724  14.926   4.646  0.00  0.00     0.005 C 
HETATM   17  C   UNK N   1      20.643  17.822   1.821  0.00  0.00    -0.040 C 
HETATM   18  C   UNK N   1      21.177  18.059   3.236  0.00  0.00    -0.012 C 
HETATM   19  C   UNK N   1      21.166  15.410   6.072  0.00  0.00    -0.001 C 
HETATM   20  C   UNK N   1      22.056  14.253   6.685  0.00  0.00     0.138 C 
HETATM   21  O   UNK N   1      21.180  21.018   0.380  0.00  0.00    -0.293 OA
ENDROOT
BRANCH  20  22
HETATM   22  C   UNK N   1      21.432  13.152   7.567  0.00  0.00     0.158 C 
HETATM   23  C   UNK N   1      21.438  13.177   9.061  0.00  0.00     0.094 C 
HETATM   24  O   UNK N   1      20.862  12.219   7.020  0.00  0.00    -0.295 OA
ENDBRANCH  20  22
BRANCH  20  25
HETATM   25  O   UNK N   1      23.173  14.771   7.338  0.00  0.00    -0.302 OA
BRANCH  25  26
HETATM   26  C   UNK N   1      24.450  14.300   7.216  0.00  0.00     0.256 C 
HETATM   27  C   UNK N   1      25.487  15.004   6.395  0.00  0.00     0.126 C 
HETATM   28  O   UNK N   1      24.767  13.275   7.797  0.00  0.00    -0.266 OA
ENDBRANCH  25  26
ENDBRANCH  20  25
TORSDOF 3
ENDMDL
MODEL 9
REMARK VINA RESULT:      -6.8     14.130     16.566
REMARK  3 active torsions:
REMARK  status: ('A' for Active; 'I' for Inactive)
REMARK    1  A    between atoms: C_24  and  C_15 
REMARK    2  A    between atoms: O_28  and  C_16 
REMARK    3  A    between atoms: C_24  and  O_28 
ROOT
HETATM    1  C   UNK N   1      31.237  20.527  -4.084  0.00  0.00     0.048 C 
HETATM    2  C   UNK N   1      31.043  24.160  -6.664  0.00  0.00     0.021 C 
HETATM    3  C   UNK N   1      27.645  25.405  -7.142  0.00  0.00     0.019 C 
HETATM    4  C   UNK N   1      34.062  24.608  -5.997  0.00  0.00     0.084 C 
HETATM    5  C   UNK N   1      30.159  26.282  -4.465  0.00  0.00     0.007 C 
HETATM    6  C   UNK N   1      26.950  24.024  -4.136  0.00  0.00     0.009 C 
HETATM    7  C   UNK N   1      32.859  25.251  -5.326  0.00  0.00     0.022 C 
HETATM    8  C   UNK N   1      29.313  26.350  -5.721  0.00  0.00     0.013 C 
HETATM    9  C   UNK N   1      26.836  25.452  -3.578  0.00  0.00     0.048 C 
HETATM   10  C   UNK N   1      29.762  22.472  -3.930  0.00  0.00    -0.014 C 
HETATM   11  C   UNK N   1      33.325  22.492  -4.760  0.00  0.00     0.058 C 
HETATM   12  C   UNK N   1      30.970  21.986  -4.278  0.00  0.00    -0.058 C 
HETATM   13  C   UNK N   1      34.406  23.369  -5.238  0.00  0.00     0.149 C 
HETATM   14  C   UNK N   1      29.397  23.949  -4.010  0.00  0.00     0.018 C 
HETATM   15  C   UNK N   1      30.634  24.848  -4.234  0.00  0.00     0.006 C 
HETATM   16  C   UNK N   1      28.193  24.140  -5.009  0.00  0.00     0.005 C 
HETATM   17  C   UNK N   1      32.036  22.892  -4.790  0.00  0.00    -0.040 C 
HETATM   18  C   UNK N   1      31.645  24.294  -5.267  0.00  0.00    -0.012 C 
HETATM   19  C   UNK N   1      27.996  25.552  -5.665  0.00  0.00    -0.001 C 
HETATM   20  C   UNK N   1      26.840  26.269  -4.853  0.00  0.00     0.138 C 
HETATM   21  O   UNK N   1      35.571  23.099  -4.997  0.00  0.00    -0.293 OA
ENDROOT
BRANCH  20  22
HETATM   22  C   UNK N   1      25.370  26.170  -5.307  0.00  0.00     0.158 C 
HETATM   23  C   UNK N   1      24.581  27.324  -5.836  0.00  0.00     0.094 C 
HETATM   24  O   UNK N   1      24.820  25.078  -5.273  0.00  0.00    -0.295 OA
ENDBRANCH  20  22
BRANCH  20  25
HETATM   25  O   UNK N   1      27.148  27.607  -4.617  0.00  0.00    -0.302 OA
BRANCH  25  26
HETATM   26  C   UNK N   1      27.059  28.239  -3.409  0.00  0.00     0.256 C 
HETATM   27  C   UNK N   1      28.251  28.850  -2.736  0.00  0.00     0.126 C 
HETATM   28  O   UNK N   1      25.975  28.319  -2.855  0.00  0.00    -0.266 OA
ENDBRANCH  25  26
ENDBRANCH  20  25
TORSDOF 3
ENDMDL
