MODEL 1
REMARK VINA RESULT:      -8.7      0.000      0.000
REMARK  21 active torsions:
REMARK  status: ('A' for Active; 'I' for Inactive)
REMARK       I    between atoms: C_2  and  N_1 
REMARK    1  A    between atoms: C_3  and  C_2 
REMARK    2  A    between atoms: N_4  and  C_3 
REMARK       I    between atoms: C_5  and  N_4 
REMARK    3  A    between atoms: C_6  and  C_5 
REMARK    4  A    between atoms: N_7  and  C_6 
REMARK    5  A    between atoms: C_6  and  C_12 
REMARK       I    between atoms: C_8  and  N_7 
REMARK    6  A    between atoms: C_16  and  C_8 
REMARK    7  A    between atoms: C_13  and  C_12 
REMARK    8  A    between atoms: C_14  and  C_13 
REMARK    9  A    between atoms: C_15  and  C_14 
REMARK   10  A    between atoms: N_72  and  C_15 
REMARK       I    between atoms: C_21  and  N_18 
REMARK   11  A    between atoms: C_22  and  C_21 
REMARK   12  A    between atoms: C_25  and  C_32 
REMARK   13  A    between atoms: C_33  and  C_32 
REMARK       I    between atoms: N_35  and  C_33 
REMARK   14  A    between atoms: C_37  and  C_39 
REMARK   15  A    between atoms: C_40  and  C_39 
REMARK   16  A    between atoms: C_41  and  C_40 
REMARK       I    between atoms: N_42  and  C_41 
REMARK   17  A    between atoms: C_47  and  C_45 
REMARK   18  A    between atoms: C_48  and  C_47 
REMARK   19  A    between atoms: C_56  and  N_70 
REMARK   20  A    between atoms: C_60  and  C_63 
REMARK   21  A    between atoms: C_65  and  C_63 
ROOT
HETATM    1  C   UNK N   1      23.598  12.454   3.555  0.00  0.00     0.186 C 
HETATM    2  N   UNK N   1      23.816  13.084   2.270  0.00  0.00    -0.345 N 
HETATM    3  C   UNK N   1      23.164  14.131   1.714  0.00  0.00     0.241 C 
HETATM    4  C   UNK N   1      22.097  14.920   2.410  0.00  0.00     0.185 C 
HETATM    5  N   UNK N   1      22.719  16.092   2.980  0.00  0.00    -0.346 N 
HETATM    6  C   UNK N   1      24.933  11.884   4.071  0.00  0.00     0.120 C 
HETATM    7  S   UNK N   1      26.451  12.823   3.749  0.00  0.00    -0.095 SA
HETATM    8  S   UNK N   1      26.562  12.337   1.666  0.00  0.00    -0.095 SA
HETATM    9  O   UNK N   1      23.519  14.508   0.609  0.00  0.00    -0.271 OA
HETATM   10  C   UNK N   1      23.513  16.036   4.075  0.00  0.00     0.241 C 
HETATM   11  C   UNK N   1      24.276  17.230   4.508  0.00  0.00     0.177 C 
HETATM   12  O   UNK N   1      23.613  15.010   4.726  0.00  0.00    -0.271 OA
HETATM   13  N   UNK N   1      25.516  17.439   3.798  0.00  0.00    -0.346 N 
HETATM   14  C   UNK N   1      27.958  17.114   3.699  0.00  0.00     0.180 C 
HETATM   15  C   UNK N   1      26.578  16.627   4.041  0.00  0.00     0.241 C 
HETATM   16  N   UNK N   1      29.450  13.093   1.866  0.00  0.00    -0.346 N 
HETATM   17  C   UNK N   1      29.783  11.780   1.796  0.00  0.00     0.241 C 
HETATM   18  C   UNK N   1      28.818  10.841   1.124  0.00  0.00     0.177 C 
HETATM   19  C   UNK N   1      27.500  10.794   1.891  0.00  0.00     0.120 C 
HETATM   20  C   UNK N   1      29.173  14.962   3.346  0.00  0.00     0.241 C 
HETATM   21  O   UNK N   1      28.810  14.517   4.426  0.00  0.00    -0.271 OA
HETATM   22  C   UNK N   1      30.148  14.186   2.510  0.00  0.00     0.180 C 
HETATM   23  N   UNK N   1      28.766  16.188   2.923  0.00  0.00    -0.346 N 
HETATM   24  O   UNK N   1      26.443  15.636   4.742  0.00  0.00    -0.271 OA
HETATM   25  O   UNK N   1      30.836  11.365   2.258  0.00  0.00    -0.271 OA
HETATM   26  H   UNK N   1      24.538  12.695   1.725  0.00  0.00     0.163 HD
HETATM   27  H   UNK N   1      22.559  16.966   2.555  0.00  0.00     0.163 HD
HETATM   28  H   UNK N   1      25.592  18.168   3.140  0.00  0.00     0.163 HD
HETATM   29  H   UNK N   1      28.612  13.340   1.412  0.00  0.00     0.163 HD
HETATM   30  H   UNK N   1      29.040  16.470   2.021  0.00  0.00     0.163 HD
ENDROOT
BRANCH   1  31
HETATM   31  C   UNK N   1      22.824  11.168   3.429  0.00  0.00     0.244 C 
HETATM   32  N   UNK N   1      22.134  10.634   4.476  0.00  0.00    -0.337 N 
HETATM   33  C   UNK N   1      22.238  11.117   5.826  0.00  0.00     0.179 C 
HETATM   34  C   UNK N   1      20.871  10.032   4.233  0.00  0.00     0.127 C 
HETATM   35  C   UNK N   1      20.818  11.522   6.160  0.00  0.00     0.037 C 
HETATM   36  C   UNK N   1      19.948  10.946   5.034  0.00  0.00     0.022 C 
HETATM   37  O   UNK N   1      22.589  10.756   2.292  0.00  0.00    -0.271 OA
BRANCH  33  38
HETATM   38  C   UNK N   1      22.958  10.096   6.713  0.00  0.00     0.241 C 
HETATM   39  N   UNK N   1      23.395  10.367   7.970  0.00  0.00    -0.346 N 
HETATM   40  H   UNK N   1      23.898   9.673   8.453  0.00  0.00     0.163 HD
HETATM   41  O   UNK N   1      23.134   8.973   6.272  0.00  0.00    -0.271 OA
BRANCH  39  42
HETATM   42  C   UNK N   1      23.157  11.625   8.624  0.00  0.00     0.176 C 
BRANCH  42  43
HETATM   43  C   UNK N   1      23.716  12.812   7.823  0.00  0.00     0.240 C 
HETATM   44  N   UNK N   1      23.127  14.030   7.705  0.00  0.00    -0.351 N 
HETATM   45  H   UNK N   1      23.591  14.690   7.141  0.00  0.00     0.163 HD
HETATM   46  O   UNK N   1      24.823  12.679   7.324  0.00  0.00    -0.271 OA
BRANCH  44  47
HETATM   47  C   UNK N   1      21.902  14.460   8.315  0.00  0.00     0.225 C 
BRANCH  47  48
HETATM   48  C   UNK N   1      21.051  15.143   7.304  0.00  0.00     0.233 C 
HETATM   49  N   UNK N   1      21.494  16.256   6.689  0.00  0.00    -0.369 N 
HETATM   50  H   UNK N   1      22.412  16.601   6.615  0.00  0.00     0.159 HD
HETATM   51  H   UNK N   1      20.800  16.803   6.253  0.00  0.00     0.159 HD
HETATM   52  O   UNK N   1      19.952  14.694   7.030  0.00  0.00    -0.272 OA
ENDBRANCH  47  48
ENDBRANCH  44  47
ENDBRANCH  42  43
BRANCH  42  53
HETATM   53  C   UNK N   1      22.366  11.426   9.938  0.00  0.00     0.035 C 
BRANCH  53  54
HETATM   54  C   UNK N   1      22.525  12.436  11.053  0.00  0.00     0.004 C 
BRANCH  54  55
HETATM   55  C   UNK N   1      23.653  12.083  12.005  0.00  0.00     0.019 C 
BRANCH  55  56
HETATM   56  C   UNK N   1      24.940  11.924  11.216  0.00  0.00     0.111 C 
BRANCH  56  57
HETATM   57  N   UNK N   1      25.486  13.225  10.881  0.00  0.00    -0.430 N 
HETATM   58  H   UNK N   1      25.811  13.849  11.618  0.00  0.00     0.149 HD
HETATM   59  H   UNK N   1      25.545  13.517   9.904  0.00  0.00     0.149 HD
ENDBRANCH  56  57
ENDBRANCH  55  56
ENDBRANCH  54  55
ENDBRANCH  53  54
ENDBRANCH  42  53
ENDBRANCH  39  42
ENDBRANCH  33  38
ENDBRANCH   1  31
BRANCH   4  60
HETATM   60  C   UNK N   1      21.193  14.137   3.370  0.00  0.00     0.137 C 
BRANCH  60  61
HETATM   61  C   UNK N   1      19.984  14.914   3.785  0.00  0.00     0.217 C 
HETATM   62  O   UNK N   1      19.994  16.131   3.716  0.00  0.00    -0.274 OA
HETATM   63  N   UNK N   1      18.870  14.276   4.194  0.00  0.00    -0.370 N 
HETATM   64  H   UNK N   1      18.814  13.292   4.193  0.00  0.00     0.159 HD
HETATM   65  H   UNK N   1      18.096  14.802   4.500  0.00  0.00     0.159 HD
ENDBRANCH  60  61
ENDBRANCH   4  60
BRANCH  18  66
HETATM   66  N   UNK N   1      29.367   9.500   1.029  0.00  0.00    -0.418 N 
HETATM   67  H   UNK N   1      29.444   8.845   1.808  0.00  0.00     0.150 HD
HETATM   68  H   UNK N   1      29.699   9.188   0.116  0.00  0.00     0.150 HD
ENDBRANCH  18  66
BRANCH  11  69
HETATM   69  C   UNK N   1      23.454  18.482   4.702  0.00  0.00     0.044 C 
BRANCH  69  70
HETATM   70  C   UNK N   1      23.937  19.477   3.664  0.00  0.00     0.105 C 
BRANCH  70  71
HETATM   71  C   UNK N   1      22.803  20.202   3.037  0.00  0.00     0.215 C 
HETATM   72  N   UNK N   1      21.645  19.558   2.808  0.00  0.00    -0.370 N 
HETATM   73  H   UNK N   1      21.344  18.725   3.239  0.00  0.00     0.159 HD
HETATM   74  H   UNK N   1      21.038  19.958   2.144  0.00  0.00     0.159 HD
HETATM   75  O   UNK N   1      22.932  21.367   2.698  0.00  0.00    -0.274 OA
ENDBRANCH  70  71
ENDBRANCH  69  70
ENDBRANCH  11  69
BRANCH  22  76
HETATM   76  C   UNK N   1      31.379  13.800   3.351  0.00  0.00     0.073 C 
BRANCH  76  77
HETATM   77  C   UNK N   1      32.017  15.045   3.871  0.00  0.00    -0.056 A 
HETATM   78  C   UNK N   1      32.161  15.227   5.253  0.00  0.00     0.007 A 
HETATM   79  C   UNK N   1      32.625  16.447   5.753  0.00  0.00     0.001 A 
HETATM   80  C   UNK N   1      32.944  17.485   4.873  0.00  0.00     0.000 A 
HETATM   81  C   UNK N   1      32.806  17.301   3.493  0.00  0.00     0.001 A 
HETATM   82  C   UNK N   1      32.332  16.086   2.994  0.00  0.00     0.007 A 
ENDBRANCH  76  77
ENDBRANCH  22  76
BRANCH  14  83
HETATM   83  C   UNK N   1      28.696  17.553   4.971  0.00  0.00     0.073 C 
BRANCH  83  84
HETATM   84  C   UNK N   1      28.135  18.843   5.483  0.00  0.00    -0.056 A 
HETATM   85  C   UNK N   1      27.785  19.847   4.578  0.00  0.00     0.007 A 
HETATM   86  C   UNK N   1      27.186  21.023   5.036  0.00  0.00     0.001 A 
HETATM   87  C   UNK N   1      26.927  21.196   6.400  0.00  0.00     0.000 A 
HETATM   88  C   UNK N   1      27.284  20.198   7.310  0.00  0.00     0.001 A 
HETATM   89  C   UNK N   1      27.889  19.025   6.853  0.00  0.00     0.007 A 
ENDBRANCH  83  84
ENDBRANCH  14  83
TORSDOF 21
ENDMDL
MODEL 2
REMARK VINA RESULT:      -7.8      4.291      7.334
REMARK  21 active torsions:
REMARK  status: ('A' for Active; 'I' for Inactive)
REMARK       I    between atoms: C_2  and  N_1 
REMARK    1  A    between atoms: C_3  and  C_2 
REMARK    2  A    between atoms: N_4  and  C_3 
REMARK       I    between atoms: C_5  and  N_4 
REMARK    3  A    between atoms: C_6  and  C_5 
REMARK    4  A    between atoms: N_7  and  C_6 
REMARK    5  A    between atoms: C_6  and  C_12 
REMARK       I    between atoms: C_8  and  N_7 
REMARK    6  A    between atoms: C_16  and  C_8 
REMARK    7  A    between atoms: C_13  and  C_12 
REMARK    8  A    between atoms: C_14  and  C_13 
REMARK    9  A    between atoms: C_15  and  C_14 
REMARK   10  A    between atoms: N_72  and  C_15 
REMARK       I    between atoms: C_21  and  N_18 
REMARK   11  A    between atoms: C_22  and  C_21 
REMARK   12  A    between atoms: C_25  and  C_32 
REMARK   13  A    between atoms: C_33  and  C_32 
REMARK       I    between atoms: N_35  and  C_33 
REMARK   14  A    between atoms: C_37  and  C_39 
REMARK   15  A    between atoms: C_40  and  C_39 
REMARK   16  A    between atoms: C_41  and  C_40 
REMARK       I    between atoms: N_42  and  C_41 
REMARK   17  A    between atoms: C_47  and  C_45 
REMARK   18  A    between atoms: C_48  and  C_47 
REMARK   19  A    between atoms: C_56  and  N_70 
REMARK   20  A    between atoms: C_60  and  C_63 
REMARK   21  A    between atoms: C_65  and  C_63 
ROOT
HETATM    1  C   UNK N   1      29.078  14.759   3.704  0.00  0.00     0.186 C 
HETATM    2  N   UNK N   1      30.299  15.422   3.298  0.00  0.00    -0.345 N 
HETATM    3  C   UNK N   1      30.663  16.715   3.469  0.00  0.00     0.241 C 
HETATM    4  C   UNK N   1      29.854  17.720   4.231  0.00  0.00     0.185 C 
HETATM    5  N   UNK N   1      30.382  17.783   5.573  0.00  0.00    -0.346 N 
HETATM    6  C   UNK N   1      29.380  13.277   3.994  0.00  0.00     0.120 C 
HETATM    7  S   UNK N   1      30.962  12.861   4.779  0.00  0.00    -0.095 SA
HETATM    8  S   UNK N   1      32.158  13.201   3.036  0.00  0.00    -0.095 SA
HETATM    9  O   UNK N   1      31.754  17.065   3.049  0.00  0.00    -0.271 OA
HETATM   10  C   UNK N   1      30.178  16.802   6.484  0.00  0.00     0.241 C 
HETATM   11  C   UNK N   1      30.894  16.824   7.780  0.00  0.00     0.177 C 
HETATM   12  O   UNK N   1      29.403  15.889   6.258  0.00  0.00    -0.271 OA
HETATM   13  N   UNK N   1      32.239  16.299   7.732  0.00  0.00    -0.346 N 
HETATM   14  C   UNK N   1      33.755  14.378   8.031  0.00  0.00     0.180 C 
HETATM   15  C   UNK N   1      32.438  14.962   7.603  0.00  0.00     0.241 C 
HETATM   16  N   UNK N   1      34.222  11.507   4.386  0.00  0.00    -0.346 N 
HETATM   17  C   UNK N   1      33.938  10.500   3.524  0.00  0.00     0.241 C 
HETATM   18  C   UNK N   1      33.349  10.859   2.187  0.00  0.00     0.177 C 
HETATM   19  C   UNK N   1      31.984  11.518   2.366  0.00  0.00     0.120 C 
HETATM   20  C   UNK N   1      33.875  12.327   6.615  0.00  0.00     0.241 C 
HETATM   21  O   UNK N   1      32.768  11.950   6.970  0.00  0.00    -0.271 OA
HETATM   22  C   UNK N   1      34.719  11.442   5.744  0.00  0.00     0.180 C 
HETATM   23  N   UNK N   1      34.389  13.504   7.060  0.00  0.00    -0.346 N 
HETATM   24  O   UNK N   1      31.492  14.222   7.379  0.00  0.00    -0.271 OA
HETATM   25  O   UNK N   1      34.156   9.333   3.814  0.00  0.00    -0.271 OA
HETATM   26  H   UNK N   1      30.953  14.855   2.831  0.00  0.00     0.163 HD
HETATM   27  H   UNK N   1      30.911  18.571   5.836  0.00  0.00     0.163 HD
HETATM   28  H   UNK N   1      33.009  16.910   7.792  0.00  0.00     0.163 HD
HETATM   29  H   UNK N   1      34.069  12.415   4.038  0.00  0.00     0.163 HD
HETATM   30  H   UNK N   1      35.259  13.786   6.694  0.00  0.00     0.163 HD
ENDROOT
BRANCH   1  31
HETATM   31  C   UNK N   1      28.121  14.584   2.554  0.00  0.00     0.244 C 
HETATM   32  N   UNK N   1      26.769  14.612   2.727  0.00  0.00    -0.337 N 
HETATM   33  C   UNK N   1      26.133  14.602   4.016  0.00  0.00     0.179 C 
HETATM   34  C   UNK N   1      25.962  15.255   1.751  0.00  0.00     0.127 C 
HETATM   35  C   UNK N   1      25.334  15.888   4.019  0.00  0.00     0.037 C 
HETATM   36  C   UNK N   1      25.359  16.393   2.569  0.00  0.00     0.022 C 
HETATM   37  O   UNK N   1      28.576  14.703   1.414  0.00  0.00    -0.271 OA
BRANCH  33  38
HETATM   38  C   UNK N   1      25.415  13.270   4.256  0.00  0.00     0.241 C 
HETATM   39  N   UNK N   1      24.566  13.049   5.293  0.00  0.00    -0.346 N 
HETATM   40  H   UNK N   1      24.188  12.147   5.407  0.00  0.00     0.163 HD
HETATM   41  O   UNK N   1      25.603  12.363   3.463  0.00  0.00    -0.271 OA
BRANCH  39  42
HETATM   42  C   UNK N   1      24.197  14.073   6.231  0.00  0.00     0.176 C 
BRANCH  42  43
HETATM   43  C   UNK N   1      25.203  14.190   7.389  0.00  0.00     0.240 C 
HETATM   44  N   UNK N   1      25.187  13.445   8.524  0.00  0.00    -0.351 N 
HETATM   45  H   UNK N   1      25.885  13.645   9.190  0.00  0.00     0.163 HD
HETATM   46  O   UNK N   1      26.145  14.952   7.236  0.00  0.00    -0.271 OA
BRANCH  44  47
HETATM   47  C   UNK N   1      24.265  12.399   8.858  0.00  0.00     0.225 C 
BRANCH  47  48
HETATM   48  C   UNK N   1      24.159  12.277  10.336  0.00  0.00     0.233 C 
HETATM   49  N   UNK N   1      25.184  12.661  11.121  0.00  0.00    -0.369 N 
HETATM   50  H   UNK N   1      25.947  13.243  10.906  0.00  0.00     0.159 HD
HETATM   51  H   UNK N   1      25.167  12.308  12.041  0.00  0.00     0.159 HD
HETATM   52  O   UNK N   1      23.143  11.830  10.839  0.00  0.00    -0.272 OA
ENDBRANCH  47  48
ENDBRANCH  44  47
ENDBRANCH  42  43
BRANCH  42  53
HETATM   53  C   UNK N   1      22.906  14.796   5.784  0.00  0.00     0.035 C 
BRANCH  53  54
HETATM   54  C   UNK N   1      21.997  15.395   6.835  0.00  0.00     0.004 C 
BRANCH  54  55
HETATM   55  C   UNK N   1      21.268  14.341   7.648  0.00  0.00     0.019 C 
BRANCH  55  56
HETATM   56  C   UNK N   1      21.123  14.826   9.079  0.00  0.00     0.111 C 
BRANCH  56  57
HETATM   57  N   UNK N   1      20.848  13.708   9.961  0.00  0.00    -0.430 N 
HETATM   58  H   UNK N   1      19.968  13.667  10.475  0.00  0.00     0.149 HD
HETATM   59  H   UNK N   1      21.536  12.962  10.068  0.00  0.00     0.149 HD
ENDBRANCH  56  57
ENDBRANCH  55  56
ENDBRANCH  54  55
ENDBRANCH  53  54
ENDBRANCH  42  53
ENDBRANCH  39  42
ENDBRANCH  33  38
ENDBRANCH   1  31
BRANCH   4  60
HETATM   60  C   UNK N   1      28.330  17.570   4.142  0.00  0.00     0.137 C 
BRANCH  60  61
HETATM   61  C   UNK N   1      27.605  18.814   4.550  0.00  0.00     0.217 C 
HETATM   62  O   UNK N   1      27.258  18.958   5.710  0.00  0.00    -0.274 OA
HETATM   63  N   UNK N   1      27.371  19.792   3.655  0.00  0.00    -0.370 N 
HETATM   64  H   UNK N   1      27.701  19.728   2.729  0.00  0.00     0.159 HD
HETATM   65  H   UNK N   1      26.859  20.587   3.930  0.00  0.00     0.159 HD
ENDBRANCH  60  61
ENDBRANCH   4  60
BRANCH  18  66
HETATM   66  N   UNK N   1      33.209   9.688   1.339  0.00  0.00    -0.418 N 
HETATM   67  H   UNK N   1      33.692   9.551   0.451  0.00  0.00     0.150 HD
HETATM   68  H   UNK N   1      32.582   8.947   1.654  0.00  0.00     0.150 HD
ENDBRANCH  18  66
BRANCH  11  69
HETATM   69  C   UNK N   1      30.757  18.105   8.569  0.00  0.00     0.044 C 
BRANCH  69  70
HETATM   70  C   UNK N   1      29.813  17.803   9.717  0.00  0.00     0.105 C 
BRANCH  70  71
HETATM   71  C   UNK N   1      28.395  17.827   9.276  0.00  0.00     0.215 C 
HETATM   72  N   UNK N   1      27.913  18.910   8.640  0.00  0.00    -0.370 N 
HETATM   73  H   UNK N   1      28.443  19.604   8.185  0.00  0.00     0.159 HD
HETATM   74  H   UNK N   1      26.935  19.019   8.628  0.00  0.00     0.159 HD
HETATM   75  O   UNK N   1      27.661  16.885   9.521  0.00  0.00    -0.274 OA
ENDBRANCH  70  71
ENDBRANCH  69  70
ENDBRANCH  11  69
BRANCH  22  76
HETATM   76  C   UNK N   1      34.824  10.035   6.359  0.00  0.00     0.073 C 
BRANCH  76  77
HETATM   77  C   UNK N   1      35.642  10.113   7.605  0.00  0.00    -0.056 A 
HETATM   78  C   UNK N   1      36.991  10.486   7.528  0.00  0.00     0.007 A 
HETATM   79  C   UNK N   1      37.799  10.424   8.667  0.00  0.00     0.001 A 
HETATM   80  C   UNK N   1      37.260   9.990   9.881  0.00  0.00     0.000 A 
HETATM   81  C   UNK N   1      35.912   9.625   9.960  0.00  0.00     0.001 A 
HETATM   82  C   UNK N   1      35.107   9.676   8.820  0.00  0.00     0.007 A 
ENDBRANCH  76  77
ENDBRANCH  22  76
BRANCH  14  83
HETATM   83  C   UNK N   1      33.607  13.675   9.388  0.00  0.00     0.073 C 
BRANCH  83  84
HETATM   84  C   UNK N   1      34.946  13.496  10.033  0.00  0.00    -0.056 A 
HETATM   85  C   UNK N   1      36.091  13.950   9.376  0.00  0.00     0.007 A 
HETATM   86  C   UNK N   1      37.337  13.862  10.002  0.00  0.00     0.001 A 
HETATM   87  C   UNK N   1      37.442  13.326  11.290  0.00  0.00     0.000 A 
HETATM   88  C   UNK N   1      36.299  12.861  11.947  0.00  0.00     0.001 A 
HETATM   89  C   UNK N   1      35.054  12.943  11.319  0.00  0.00     0.007 A 
ENDBRANCH  83  84
ENDBRANCH  14  83
TORSDOF 21
ENDMDL
MODEL 3
REMARK VINA RESULT:      -7.7     10.048     14.621
REMARK  21 active torsions:
REMARK  status: ('A' for Active; 'I' for Inactive)
REMARK       I    between atoms: C_2  and  N_1 
REMARK    1  A    between atoms: C_3  and  C_2 
REMARK    2  A    between atoms: N_4  and  C_3 
REMARK       I    between atoms: C_5  and  N_4 
REMARK    3  A    between atoms: C_6  and  C_5 
REMARK    4  A    between atoms: N_7  and  C_6 
REMARK    5  A    between atoms: C_6  and  C_12 
REMARK       I    between atoms: C_8  and  N_7 
REMARK    6  A    between atoms: C_16  and  C_8 
REMARK    7  A    between atoms: C_13  and  C_12 
REMARK    8  A    between atoms: C_14  and  C_13 
REMARK    9  A    between atoms: C_15  and  C_14 
REMARK   10  A    between atoms: N_72  and  C_15 
REMARK       I    between atoms: C_21  and  N_18 
REMARK   11  A    between atoms: C_22  and  C_21 
REMARK   12  A    between atoms: C_25  and  C_32 
REMARK   13  A    between atoms: C_33  and  C_32 
REMARK       I    between atoms: N_35  and  C_33 
REMARK   14  A    between atoms: C_37  and  C_39 
REMARK   15  A    between atoms: C_40  and  C_39 
REMARK   16  A    between atoms: C_41  and  C_40 
REMARK       I    between atoms: N_42  and  C_41 
REMARK   17  A    between atoms: C_47  and  C_45 
REMARK   18  A    between atoms: C_48  and  C_47 
REMARK   19  A    between atoms: C_56  and  N_70 
REMARK   20  A    between atoms: C_60  and  C_63 
REMARK   21  A    between atoms: C_65  and  C_63 
ROOT
HETATM    1  C   UNK N   1      37.950  10.005   7.850  0.00  0.00     0.186 C 
HETATM    2  N   UNK N   1      39.194  10.399   8.475  0.00  0.00    -0.345 N 
HETATM    3  C   UNK N   1      39.827  11.595   8.432  0.00  0.00     0.241 C 
HETATM    4  C   UNK N   1      39.273  12.813   7.759  0.00  0.00     0.185 C 
HETATM    5  N   UNK N   1      38.624  13.616   8.768  0.00  0.00    -0.346 N 
HETATM    6  C   UNK N   1      37.266   8.930   8.716  0.00  0.00     0.120 C 
HETATM    7  S   UNK N   1      37.386   9.077  10.520  0.00  0.00    -0.095 SA
HETATM    8  S   UNK N   1      39.438   8.477  10.645  0.00  0.00    -0.095 SA
HETATM    9  O   UNK N   1      40.876  11.712   9.045  0.00  0.00    -0.271 OA
HETATM   10  C   UNK N   1      37.435  13.274   9.319  0.00  0.00     0.241 C 
HETATM   11  C   UNK N   1      36.903  14.026  10.478  0.00  0.00     0.177 C 
HETATM   12  O   UNK N   1      36.780  12.349   8.871  0.00  0.00    -0.271 OA
HETATM   13  N   UNK N   1      37.446  13.621  11.755  0.00  0.00    -0.346 N 
HETATM   14  C   UNK N   1      37.228  12.239  13.785  0.00  0.00     0.180 C 
HETATM   15  C   UNK N   1      37.070  12.437  12.304  0.00  0.00     0.241 C 
HETATM   16  N   UNK N   1      38.862   7.880  13.520  0.00  0.00    -0.346 N 
HETATM   17  C   UNK N   1      38.892   6.554  13.234  0.00  0.00     0.241 C 
HETATM   18  C   UNK N   1      39.686   6.106  12.038  0.00  0.00     0.177 C 
HETATM   19  C   UNK N   1      39.097   6.693  10.758  0.00  0.00     0.120 C 
HETATM   20  C   UNK N   1      37.425   9.756  13.938  0.00  0.00     0.241 C 
HETATM   21  O   UNK N   1      36.403   9.580  13.291  0.00  0.00    -0.271 OA
HETATM   22  C   UNK N   1      38.130   8.581  14.553  0.00  0.00     0.180 C 
HETATM   23  N   UNK N   1      37.895  11.009  14.176  0.00  0.00    -0.346 N 
HETATM   24  O   UNK N   1      36.395  11.650  11.657  0.00  0.00    -0.271 OA
HETATM   25  O   UNK N   1      38.298   5.740  13.927  0.00  0.00    -0.271 OA
HETATM   26  H   UNK N   1      39.641   9.700   9.005  0.00  0.00     0.163 HD
HETATM   27  H   UNK N   1      39.064  14.444   9.068  0.00  0.00     0.163 HD
HETATM   28  H   UNK N   1      38.086  14.203  12.226  0.00  0.00     0.163 HD
HETATM   29  H   UNK N   1      39.420   8.447  12.941  0.00  0.00     0.163 HD
HETATM   30  H   UNK N   1      38.753  11.089  14.652  0.00  0.00     0.163 HD
ENDROOT
BRANCH   1  31
HETATM   31  C   UNK N   1      38.179   9.192   6.602  0.00  0.00     0.244 C 
HETATM   32  N   UNK N   1      37.251   9.119   5.606  0.00  0.00    -0.337 N 
HETATM   33  C   UNK N   1      35.912   9.626   5.728  0.00  0.00     0.179 C 
HETATM   34  C   UNK N   1      37.689   9.123   4.255  0.00  0.00     0.127 C 
HETATM   35  C   UNK N   1      35.824  10.650   4.616  0.00  0.00     0.037 C 
HETATM   36  C   UNK N   1      37.068  10.422   3.746  0.00  0.00     0.022 C 
HETATM   37  O   UNK N   1      39.332   8.826   6.366  0.00  0.00    -0.271 OA
BRANCH  33  38
HETATM   38  C   UNK N   1      34.899   8.478   5.775  0.00  0.00     0.241 C 
HETATM   39  N   UNK N   1      33.704   8.553   6.416  0.00  0.00    -0.346 N 
HETATM   40  H   UNK N   1      33.134   7.751   6.445  0.00  0.00     0.163 HD
HETATM   41  O   UNK N   1      35.174   7.443   5.191  0.00  0.00    -0.271 OA
BRANCH  39  42
HETATM   42  C   UNK N   1      33.236   9.753   7.054  0.00  0.00     0.176 C 
BRANCH  42  43
HETATM   43  C   UNK N   1      32.450  10.656   6.089  0.00  0.00     0.240 C 
HETATM   44  N   UNK N   1      32.626  11.994   5.944  0.00  0.00    -0.351 N 
HETATM   45  H   UNK N   1      32.035  12.447   5.299  0.00  0.00     0.163 HD
HETATM   46  O   UNK N   1      31.666  10.111   5.326  0.00  0.00    -0.271 OA
BRANCH  44  47
HETATM   47  C   UNK N   1      33.579  12.819   6.626  0.00  0.00     0.225 C 
BRANCH  47  48
HETATM   48  C   UNK N   1      32.869  13.774   7.518  0.00  0.00     0.233 C 
HETATM   49  N   UNK N   1      32.728  15.063   7.153  0.00  0.00    -0.369 N 
HETATM   50  H   UNK N   1      32.817  15.469   6.261  0.00  0.00     0.159 HD
HETATM   51  H   UNK N   1      32.505  15.687   7.882  0.00  0.00     0.159 HD
HETATM   52  O   UNK N   1      32.412  13.391   8.581  0.00  0.00    -0.272 OA
ENDBRANCH  47  48
ENDBRANCH  44  47
ENDBRANCH  42  43
BRANCH  42  53
HETATM   53  C   UNK N   1      33.625   9.774   8.551  0.00  0.00     0.035 C 
BRANCH  53  54
HETATM   54  C   UNK N   1      33.680   8.469   9.314  0.00  0.00     0.004 C 
BRANCH  54  55
HETATM   55  C   UNK N   1      33.452   8.652  10.803  0.00  0.00     0.019 C 
BRANCH  55  56
HETATM   56  C   UNK N   1      33.384  10.136  11.119  0.00  0.00     0.111 C 
BRANCH  56  57
HETATM   57  N   UNK N   1      33.687  10.364  12.519  0.00  0.00    -0.430 N 
HETATM   58  H   UNK N   1      33.406   9.681  13.221  0.00  0.00     0.149 HD
HETATM   59  H   UNK N   1      34.184  11.210  12.801  0.00  0.00     0.149 HD
ENDBRANCH  56  57
ENDBRANCH  55  56
ENDBRANCH  54  55
ENDBRANCH  53  54
ENDBRANCH  42  53
ENDBRANCH  39  42
ENDBRANCH  33  38
ENDBRANCH   1  31
BRANCH   4  60
HETATM   60  C   UNK N   1      38.441  12.569   6.493  0.00  0.00     0.137 C 
BRANCH  60  61
HETATM   61  C   UNK N   1      38.165  13.827   5.733  0.00  0.00     0.217 C 
HETATM   62  O   UNK N   1      39.013  14.702   5.685  0.00  0.00    -0.274 OA
HETATM   63  N   UNK N   1      37.005  13.982   5.067  0.00  0.00    -0.370 N 
HETATM   64  H   UNK N   1      36.334  13.261   5.035  0.00  0.00     0.159 HD
HETATM   65  H   UNK N   1      36.823  14.831   4.603  0.00  0.00     0.159 HD
ENDBRANCH  60  61
ENDBRANCH   4  60
BRANCH  18  66
HETATM   66  N   UNK N   1      39.713   4.657  11.934  0.00  0.00    -0.418 N 
HETATM   67  H   UNK N   1      39.454   4.129  11.100  0.00  0.00     0.150 HD
HETATM   68  H   UNK N   1      40.014   4.130  12.753  0.00  0.00     0.150 HD
ENDBRANCH  18  66
BRANCH  11  69
HETATM   69  C   UNK N   1      36.815  15.522  10.289  0.00  0.00     0.044 C 
BRANCH  69  70
HETATM   70  C   UNK N   1      35.652  15.994  11.141  0.00  0.00     0.105 C 
BRANCH  70  71
HETATM   71  C   UNK N   1      34.358  15.834  10.431  0.00  0.00     0.215 C 
HETATM   72  N   UNK N   1      33.458  14.941  10.880  0.00  0.00    -0.370 N 
HETATM   73  H   UNK N   1      33.423  14.549  11.782  0.00  0.00     0.159 HD
HETATM   74  H   UNK N   1      32.765  14.651  10.243  0.00  0.00     0.159 HD
HETATM   75  O   UNK N   1      34.126  16.483   9.425  0.00  0.00    -0.274 OA
ENDBRANCH  70  71
ENDBRANCH  69  70
ENDBRANCH  11  69
BRANCH  22  76
HETATM   76  C   UNK N   1      37.137   7.736  15.371  0.00  0.00     0.073 C 
BRANCH  76  77
HETATM   77  C   UNK N   1      36.575   8.580  16.467  0.00  0.00    -0.056 A 
HETATM   78  C   UNK N   1      37.369   8.896  17.577  0.00  0.00     0.007 A 
HETATM   79  C   UNK N   1      36.810   9.563  18.670  0.00  0.00     0.001 A 
HETATM   80  C   UNK N   1      35.456   9.913  18.654  0.00  0.00     0.000 A 
HETATM   81  C   UNK N   1      34.665   9.603  17.543  0.00  0.00     0.001 A 
HETATM   82  C   UNK N   1      35.222   8.927  16.456  0.00  0.00     0.007 A 
ENDBRANCH  76  77
ENDBRANCH  22  76
BRANCH  14  83
HETATM   83  C   UNK N   1      35.869  12.374  14.486  0.00  0.00     0.073 C 
BRANCH  83  84
HETATM   84  C   UNK N   1      35.960  13.349  15.619  0.00  0.00    -0.056 A 
HETATM   85  C   UNK N   1      35.177  13.152  16.759  0.00  0.00     0.007 A 
HETATM   86  C   UNK N   1      35.310  14.008  17.855  0.00  0.00     0.001 A 
HETATM   87  C   UNK N   1      36.233  15.059  17.819  0.00  0.00     0.000 A 
HETATM   88  C   UNK N   1      37.011  15.266  16.677  0.00  0.00     0.001 A 
HETATM   89  C   UNK N   1      36.873  14.414  15.578  0.00  0.00     0.007 A 
ENDBRANCH  83  84
ENDBRANCH  14  83
TORSDOF 21
ENDMDL
MODEL 4
REMARK VINA RESULT:      -7.6      1.704      2.400
REMARK  21 active torsions:
REMARK  status: ('A' for Active; 'I' for Inactive)
REMARK       I    between atoms: C_2  and  N_1 
REMARK    1  A    between atoms: C_3  and  C_2 
REMARK    2  A    between atoms: N_4  and  C_3 
REMARK       I    between atoms: C_5  and  N_4 
REMARK    3  A    between atoms: C_6  and  C_5 
REMARK    4  A    between atoms: N_7  and  C_6 
REMARK    5  A    between atoms: C_6  and  C_12 
REMARK       I    between atoms: C_8  and  N_7 
REMARK    6  A    between atoms: C_16  and  C_8 
REMARK    7  A    between atoms: C_13  and  C_12 
REMARK    8  A    between atoms: C_14  and  C_13 
REMARK    9  A    between atoms: C_15  and  C_14 
REMARK   10  A    between atoms: N_72  and  C_15 
REMARK       I    between atoms: C_21  and  N_18 
REMARK   11  A    between atoms: C_22  and  C_21 
REMARK   12  A    between atoms: C_25  and  C_32 
REMARK   13  A    between atoms: C_33  and  C_32 
REMARK       I    between atoms: N_35  and  C_33 
REMARK   14  A    between atoms: C_37  and  C_39 
REMARK   15  A    between atoms: C_40  and  C_39 
REMARK   16  A    between atoms: C_41  and  C_40 
REMARK       I    between atoms: N_42  and  C_41 
REMARK   17  A    between atoms: C_47  and  C_45 
REMARK   18  A    between atoms: C_48  and  C_47 
REMARK   19  A    between atoms: C_56  and  N_70 
REMARK   20  A    between atoms: C_60  and  C_63 
REMARK   21  A    between atoms: C_65  and  C_63 
ROOT
HETATM    1  C   UNK N   1      23.596  11.507   2.584  0.00  0.00     0.186 C 
HETATM    2  N   UNK N   1      23.968  12.154   1.344  0.00  0.00    -0.345 N 
HETATM    3  C   UNK N   1      23.328  13.138   0.672  0.00  0.00     0.241 C 
HETATM    4  C   UNK N   1      22.095  13.828   1.170  0.00  0.00     0.185 C 
HETATM    5  N   UNK N   1      22.507  15.051   1.818  0.00  0.00    -0.346 N 
HETATM    6  C   UNK N   1      24.871  11.058   3.323  0.00  0.00     0.120 C 
HETATM    7  S   UNK N   1      26.332  12.130   3.243  0.00  0.00    -0.095 SA
HETATM    8  S   UNK N   1      26.832  11.657   1.215  0.00  0.00    -0.095 SA
HETATM    9  O   UNK N   1      23.827  13.546  -0.364  0.00  0.00    -0.271 OA
HETATM   10  C   UNK N   1      23.109  15.067   3.030  0.00  0.00     0.241 C 
HETATM   11  C   UNK N   1      23.680  16.324   3.566  0.00  0.00     0.177 C 
HETATM   12  O   UNK N   1      23.189  14.053   3.704  0.00  0.00    -0.271 OA
HETATM   13  N   UNK N   1      24.999  16.643   3.069  0.00  0.00    -0.346 N 
HETATM   14  C   UNK N   1      27.442  16.538   3.381  0.00  0.00     0.180 C 
HETATM   15  C   UNK N   1      26.073  15.930   3.496  0.00  0.00     0.241 C 
HETATM   16  N   UNK N   1      29.568  12.668   1.881  0.00  0.00    -0.346 N 
HETATM   17  C   UNK N   1      30.022  11.390   1.886  0.00  0.00     0.241 C 
HETATM   18  C   UNK N   1      29.270  10.369   1.078  0.00  0.00     0.177 C 
HETATM   19  C   UNK N   1      27.852  10.204   1.616  0.00  0.00     0.120 C 
HETATM   20  C   UNK N   1      28.883  14.505   3.267  0.00  0.00     0.241 C 
HETATM   21  O   UNK N   1      28.387  14.028   4.278  0.00  0.00    -0.271 OA
HETATM   22  C   UNK N   1      30.050  13.819   2.616  0.00  0.00     0.180 C 
HETATM   23  N   UNK N   1      28.446  15.689   2.764  0.00  0.00    -0.346 N 
HETATM   24  O   UNK N   1      25.911  14.930   4.180  0.00  0.00    -0.271 OA
HETATM   25  O   UNK N   1      31.016  11.071   2.523  0.00  0.00    -0.271 OA
HETATM   26  H   UNK N   1      24.802  11.831   0.932  0.00  0.00     0.163 HD
HETATM   27  H   UNK N   1      22.343  15.907   1.359  0.00  0.00     0.163 HD
HETATM   28  H   UNK N   1      25.118  17.376   2.422  0.00  0.00     0.163 HD
HETATM   29  H   UNK N   1      28.799  12.839   1.291  0.00  0.00     0.163 HD
HETATM   30  H   UNK N   1      28.840  15.995   1.915  0.00  0.00     0.163 HD
ENDROOT
BRANCH   1  31
HETATM   31  C   UNK N   1      22.971  10.156   2.350  0.00  0.00     0.244 C 
HETATM   32  N   UNK N   1      21.981   9.669   3.151  0.00  0.00    -0.337 N 
HETATM   33  C   UNK N   1      21.584  10.284   4.388  0.00  0.00     0.179 C 
HETATM   34  C   UNK N   1      20.910   8.948   2.560  0.00  0.00     0.127 C 
HETATM   35  C   UNK N   1      20.122  10.604   4.165  0.00  0.00     0.037 C 
HETATM   36  C   UNK N   1      19.727   9.856   2.883  0.00  0.00     0.022 C 
HETATM   37  O   UNK N   1      23.167   9.622   1.257  0.00  0.00    -0.271 OA
BRANCH  33  38
HETATM   38  C   UNK N   1      21.991   9.413   5.581  0.00  0.00     0.241 C 
HETATM   39  N   UNK N   1      22.570   9.902   6.708  0.00  0.00    -0.346 N 
HETATM   40  H   UNK N   1      22.851   9.268   7.406  0.00  0.00     0.163 HD
HETATM   41  O   UNK N   1      21.768   8.215   5.522  0.00  0.00    -0.271 OA
BRANCH  39  42
HETATM   42  C   UNK N   1      22.791  11.306   6.925  0.00  0.00     0.176 C 
BRANCH  42  43
HETATM   43  C   UNK N   1      21.571  11.996   7.556  0.00  0.00     0.240 C 
HETATM   44  N   UNK N   1      21.499  12.455   8.832  0.00  0.00    -0.351 N 
HETATM   45  H   UNK N   1      20.643  12.858   9.106  0.00  0.00     0.163 HD
HETATM   46  O   UNK N   1      20.620  12.230   6.825  0.00  0.00    -0.271 OA
BRANCH  44  47
HETATM   47  C   UNK N   1      22.533  12.418   9.823  0.00  0.00     0.225 C 
BRANCH  47  48
HETATM   48  C   UNK N   1      21.949  12.068  11.146  0.00  0.00     0.233 C 
HETATM   49  N   UNK N   1      22.725  11.528  12.105  0.00  0.00    -0.369 N 
HETATM   50  H   UNK N   1      23.706  11.521  12.180  0.00  0.00     0.159 HD
HETATM   51  H   UNK N   1      22.242  11.074  12.834  0.00  0.00     0.159 HD
HETATM   52  O   UNK N   1      20.768  12.272  11.364  0.00  0.00    -0.272 OA
ENDBRANCH  47  48
ENDBRANCH  44  47
ENDBRANCH  42  43
BRANCH  42  53
HETATM   53  C   UNK N   1      24.219  11.716   6.494  0.00  0.00     0.035 C 
BRANCH  53  54
HETATM   54  C   UNK N   1      24.598  13.180   6.505  0.00  0.00     0.004 C 
BRANCH  54  55
HETATM   55  C   UNK N   1      25.252  13.605   7.807  0.00  0.00     0.019 C 
BRANCH  55  56
HETATM   56  C   UNK N   1      25.849  14.991   7.636  0.00  0.00     0.111 C 
BRANCH  56  57
HETATM   57  N   UNK N   1      25.019  15.789   6.754  0.00  0.00    -0.430 N 
HETATM   58  H   UNK N   1      25.416  16.197   5.908  0.00  0.00     0.149 HD
HETATM   59  H   UNK N   1      24.035  15.941   6.979  0.00  0.00     0.149 HD
ENDBRANCH  56  57
ENDBRANCH  55  56
ENDBRANCH  54  55
ENDBRANCH  53  54
ENDBRANCH  42  53
ENDBRANCH  39  42
ENDBRANCH  33  38
ENDBRANCH   1  31
BRANCH   4  60
HETATM   60  C   UNK N   1      21.116  12.967   1.978  0.00  0.00     0.137 C 
BRANCH  60  61
HETATM   61  C   UNK N   1      19.702  13.445   1.868  0.00  0.00     0.217 C 
HETATM   62  O   UNK N   1      19.302  14.324   2.612  0.00  0.00    -0.274 OA
HETATM   63  N   UNK N   1      18.883  12.940   0.925  0.00  0.00    -0.370 N 
HETATM   64  H   UNK N   1      19.204  12.279   0.270  0.00  0.00     0.159 HD
HETATM   65  H   UNK N   1      17.945  13.238   0.890  0.00  0.00     0.159 HD
ENDBRANCH  60  61
ENDBRANCH   4  60
BRANCH  18  66
HETATM   66  N   UNK N   1      29.943   9.082   1.094  0.00  0.00    -0.418 N 
HETATM   67  H   UNK N   1      29.990   8.439   0.303  0.00  0.00     0.150 HD
HETATM   68  H   UNK N   1      30.403   8.799   1.960  0.00  0.00     0.150 HD
ENDBRANCH  18  66
BRANCH  11  69
HETATM   69  C   UNK N   1      22.731  17.497   3.602  0.00  0.00     0.044 C 
BRANCH  69  70
HETATM   70  C   UNK N   1      21.576  17.088   4.497  0.00  0.00     0.105 C 
BRANCH  70  71
HETATM   71  C   UNK N   1      20.269  17.474   3.909  0.00  0.00     0.215 C 
HETATM   72  N   UNK N   1      19.192  16.693   4.110  0.00  0.00    -0.370 N 
HETATM   73  H   UNK N   1      19.082  16.022   4.821  0.00  0.00     0.159 HD
HETATM   74  H   UNK N   1      18.440  16.805   3.485  0.00  0.00     0.159 HD
HETATM   75  O   UNK N   1      20.179  18.473   3.216  0.00  0.00    -0.274 OA
ENDBRANCH  70  71
ENDBRANCH  69  70
ENDBRANCH  11  69
BRANCH  22  76
HETATM   76  C   UNK N   1      31.152  13.544   3.655  0.00  0.00     0.073 C 
BRANCH  76  77
HETATM   77  C   UNK N   1      31.790  14.840   4.034  0.00  0.00    -0.056 A 
HETATM   78  C   UNK N   1      31.618  15.346   5.329  0.00  0.00     0.007 A 
HETATM   79  C   UNK N   1      32.090  16.621   5.649  0.00  0.00     0.001 A 
HETATM   80  C   UNK N   1      32.732  17.392   4.676  0.00  0.00     0.000 A 
HETATM   81  C   UNK N   1      32.909  16.884   3.384  0.00  0.00     0.001 A 
HETATM   82  C   UNK N   1      32.428  15.614   3.061  0.00  0.00     0.007 A 
ENDBRANCH  76  77
ENDBRANCH  22  76
BRANCH  14  83
HETATM   83  C   UNK N   1      27.916  17.042   4.752  0.00  0.00     0.073 C 
BRANCH  83  84
HETATM   84  C   UNK N   1      27.609  18.499   4.909  0.00  0.00    -0.056 A 
HETATM   85  C   UNK N   1      27.082  19.210   3.829  0.00  0.00     0.007 A 
HETATM   86  C   UNK N   1      26.717  20.549   3.986  0.00  0.00     0.001 A 
HETATM   87  C   UNK N   1      26.869  21.180   5.226  0.00  0.00     0.000 A 
HETATM   88  C   UNK N   1      27.405  20.474   6.307  0.00  0.00     0.001 A 
HETATM   89  C   UNK N   1      27.777  19.137   6.148  0.00  0.00     0.007 A 
ENDBRANCH  83  84
ENDBRANCH  14  83
TORSDOF 21
ENDMDL
MODEL 5
REMARK VINA RESULT:      -7.6      4.447      7.315
REMARK  21 active torsions:
REMARK  status: ('A' for Active; 'I' for Inactive)
REMARK       I    between atoms: C_2  and  N_1 
REMARK    1  A    between atoms: C_3  and  C_2 
REMARK    2  A    between atoms: N_4  and  C_3 
REMARK       I    between atoms: C_5  and  N_4 
REMARK    3  A    between atoms: C_6  and  C_5 
REMARK    4  A    between atoms: N_7  and  C_6 
REMARK    5  A    between atoms: C_6  and  C_12 
REMARK       I    between atoms: C_8  and  N_7 
REMARK    6  A    between atoms: C_16  and  C_8 
REMARK    7  A    between atoms: C_13  and  C_12 
REMARK    8  A    between atoms: C_14  and  C_13 
REMARK    9  A    between atoms: C_15  and  C_14 
REMARK   10  A    between atoms: N_72  and  C_15 
REMARK       I    between atoms: C_21  and  N_18 
REMARK   11  A    between atoms: C_22  and  C_21 
REMARK   12  A    between atoms: C_25  and  C_32 
REMARK   13  A    between atoms: C_33  and  C_32 
REMARK       I    between atoms: N_35  and  C_33 
REMARK   14  A    between atoms: C_37  and  C_39 
REMARK   15  A    between atoms: C_40  and  C_39 
REMARK   16  A    between atoms: C_41  and  C_40 
REMARK       I    between atoms: N_42  and  C_41 
REMARK   17  A    between atoms: C_47  and  C_45 
REMARK   18  A    between atoms: C_48  and  C_47 
REMARK   19  A    between atoms: C_56  and  N_70 
REMARK   20  A    between atoms: C_60  and  C_63 
REMARK   21  A    between atoms: C_65  and  C_63 
ROOT
HETATM    1  C   UNK N   1      29.308  14.630   3.898  0.00  0.00     0.186 C 
HETATM    2  N   UNK N   1      30.477  15.375   3.483  0.00  0.00    -0.345 N 
HETATM    3  C   UNK N   1      30.730  16.699   3.606  0.00  0.00     0.241 C 
HETATM    4  C   UNK N   1      29.827  17.664   4.312  0.00  0.00     0.185 C 
HETATM    5  N   UNK N   1      30.323  17.825   5.658  0.00  0.00    -0.346 N 
HETATM    6  C   UNK N   1      29.725  13.191   4.254  0.00  0.00     0.120 C 
HETATM    7  S   UNK N   1      31.322  12.940   5.079  0.00  0.00    -0.095 SA
HETATM    8  S   UNK N   1      32.518  13.308   3.341  0.00  0.00    -0.095 SA
HETATM    9  O   UNK N   1      31.796  17.122   3.187  0.00  0.00    -0.271 OA
HETATM   10  C   UNK N   1      30.184  16.868   6.606  0.00  0.00     0.241 C 
HETATM   11  C   UNK N   1      30.871  17.002   7.911  0.00  0.00     0.177 C 
HETATM   12  O   UNK N   1      29.491  15.885   6.407  0.00  0.00    -0.271 OA
HETATM   13  N   UNK N   1      32.256  16.589   7.905  0.00  0.00    -0.346 N 
HETATM   14  C   UNK N   1      33.919  14.815   8.307  0.00  0.00     0.180 C 
HETATM   15  C   UNK N   1      32.567  15.269   7.835  0.00  0.00     0.241 C 
HETATM   16  N   UNK N   1      34.689  11.848   4.793  0.00  0.00    -0.346 N 
HETATM   17  C   UNK N   1      34.505  10.786   3.969  0.00  0.00     0.241 C 
HETATM   18  C   UNK N   1      33.913  11.040   2.609  0.00  0.00     0.177 C 
HETATM   19  C   UNK N   1      32.496  11.590   2.740  0.00  0.00     0.120 C 
HETATM   20  C   UNK N   1      34.235  12.725   6.980  0.00  0.00     0.241 C 
HETATM   21  O   UNK N   1      33.156  12.271   7.334  0.00  0.00    -0.271 OA
HETATM   22  C   UNK N   1      35.165  11.879   6.160  0.00  0.00     0.180 C 
HETATM   23  N   UNK N   1      34.641  13.958   7.383  0.00  0.00    -0.346 N 
HETATM   24  O   UNK N   1      31.690  14.444   7.628  0.00  0.00    -0.271 OA
HETATM   25  O   UNK N   1      34.813   9.654   4.311  0.00  0.00    -0.271 OA
HETATM   26  H   UNK N   1      31.185  14.846   3.050  0.00  0.00     0.163 HD
HETATM   27  H   UNK N   1      30.780  18.664   5.896  0.00  0.00     0.163 HD
HETATM   28  H   UNK N   1      32.972  17.264   7.951  0.00  0.00     0.163 HD
HETATM   29  H   UNK N   1      34.468  12.725   4.405  0.00  0.00     0.163 HD
HETATM   30  H   UNK N   1      35.491  14.296   7.019  0.00  0.00     0.163 HD
ENDROOT
BRANCH   1  31
HETATM   31  C   UNK N   1      28.390  14.330   2.741  0.00  0.00     0.244 C 
HETATM   32  N   UNK N   1      27.042  14.204   2.902  0.00  0.00    -0.337 N 
HETATM   33  C   UNK N   1      26.397  14.139   4.184  0.00  0.00     0.179 C 
HETATM   34  C   UNK N   1      26.177  14.735   1.908  0.00  0.00     0.127 C 
HETATM   35  C   UNK N   1      25.456  15.325   4.161  0.00  0.00     0.037 C 
HETATM   36  C   UNK N   1      25.438  15.808   2.703  0.00  0.00     0.022 C 
HETATM   37  O   UNK N   1      28.840  14.484   1.605  0.00  0.00    -0.271 OA
BRANCH  33  38
HETATM   38  C   UNK N   1      25.835  12.737   4.438  0.00  0.00     0.241 C 
HETATM   39  N   UNK N   1      24.828  12.476   5.312  0.00  0.00    -0.346 N 
HETATM   40  H   UNK N   1      24.562  11.540   5.457  0.00  0.00     0.163 HD
HETATM   41  O   UNK N   1      26.305  11.805   3.808  0.00  0.00    -0.271 OA
BRANCH  39  42
HETATM   42  C   UNK N   1      24.136  13.508   6.036  0.00  0.00     0.176 C 
BRANCH  42  43
HETATM   43  C   UNK N   1      22.825  13.921   5.346  0.00  0.00     0.240 C 
HETATM   44  N   UNK N   1      22.159  15.085   5.555  0.00  0.00    -0.351 N 
HETATM   45  H   UNK N   1      21.318  15.205   5.057  0.00  0.00     0.163 HD
HETATM   46  O   UNK N   1      22.395  13.182   4.474  0.00  0.00    -0.271 OA
BRANCH  44  47
HETATM   47  C   UNK N   1      22.546  16.159   6.422  0.00  0.00     0.225 C 
BRANCH  47  48
HETATM   48  C   UNK N   1      22.490  17.448   5.682  0.00  0.00     0.233 C 
HETATM   49  N   UNK N   1      23.618  18.148   5.458  0.00  0.00    -0.369 N 
HETATM   50  H   UNK N   1      24.554  17.849   5.501  0.00  0.00     0.159 HD
HETATM   51  H   UNK N   1      23.487  19.095   5.219  0.00  0.00     0.159 HD
HETATM   52  O   UNK N   1      21.421  17.870   5.274  0.00  0.00    -0.272 OA
ENDBRANCH  47  48
ENDBRANCH  44  47
ENDBRANCH  42  43
BRANCH  42  53
HETATM   53  C   UNK N   1      24.894  13.882   7.331  0.00  0.00     0.035 C 
BRANCH  53  54
HETATM   54  C   UNK N   1      24.773  12.981   8.540  0.00  0.00     0.004 C 
BRANCH  54  55
HETATM   55  C   UNK N   1      23.364  12.944   9.102  0.00  0.00     0.019 C 
BRANCH  55  56
HETATM   56  C   UNK N   1      23.013  11.515   9.476  0.00  0.00     0.111 C 
BRANCH  56  57
HETATM   57  N   UNK N   1      22.806  11.409  10.908  0.00  0.00    -0.430 N 
HETATM   58  H   UNK N   1      22.417  12.195  11.429  0.00  0.00     0.149 HD
HETATM   59  H   UNK N   1      23.049  10.546  11.395  0.00  0.00     0.149 HD
ENDBRANCH  56  57
ENDBRANCH  55  56
ENDBRANCH  54  55
ENDBRANCH  53  54
ENDBRANCH  42  53
ENDBRANCH  39  42
ENDBRANCH  33  38
ENDBRANCH   1  31
BRANCH   4  60
HETATM   60  C   UNK N   1      28.322  17.385   4.206  0.00  0.00     0.137 C 
BRANCH  60  61
HETATM   61  C   UNK N   1      27.490  18.592   4.505  0.00  0.00     0.217 C 
HETATM   62  O   UNK N   1      26.720  18.577   5.450  0.00  0.00    -0.274 OA
HETATM   63  N   UNK N   1      27.618  19.708   3.762  0.00  0.00    -0.370 N 
HETATM   64  H   UNK N   1      28.282  19.767   3.037  0.00  0.00     0.159 HD
HETATM   65  H   UNK N   1      27.037  20.481   3.947  0.00  0.00     0.159 HD
ENDBRANCH  60  61
ENDBRANCH   4  60
BRANCH  18  66
HETATM   66  N   UNK N   1      33.886   9.829   1.809  0.00  0.00    -0.418 N 
HETATM   67  H   UNK N   1      33.038   9.349   1.507  0.00  0.00     0.150 HD
HETATM   68  H   UNK N   1      34.781   9.427   1.528  0.00  0.00     0.150 HD
ENDBRANCH  18  66
BRANCH  11  69
HETATM   69  C   UNK N   1      30.614  18.297   8.643  0.00  0.00     0.044 C 
BRANCH  69  70
HETATM   70  C   UNK N   1      29.628  17.977   9.750  0.00  0.00     0.105 C 
BRANCH  70  71
HETATM   71  C   UNK N   1      28.241  17.872   9.229  0.00  0.00     0.215 C 
HETATM   72  N   UNK N   1      27.726  18.877   8.498  0.00  0.00    -0.370 N 
HETATM   73  H   UNK N   1      28.233  19.578   8.030  0.00  0.00     0.159 HD
HETATM   74  H   UNK N   1      26.745  18.914   8.424  0.00  0.00     0.159 HD
HETATM   75  O   UNK N   1      27.559  16.895   9.492  0.00  0.00    -0.274 OA
ENDBRANCH  70  71
ENDBRANCH  69  70
ENDBRANCH  11  69
BRANCH  22  76
HETATM   76  C   UNK N   1      35.374  10.511   6.834  0.00  0.00     0.073 C 
BRANCH  76  77
HETATM   77  C   UNK N   1      36.687  10.520   7.544  0.00  0.00    -0.056 A 
HETATM   78  C   UNK N   1      37.631  11.511   7.246  0.00  0.00     0.007 A 
HETATM   79  C   UNK N   1      38.913  11.445   7.798  0.00  0.00     0.001 A 
HETATM   80  C   UNK N   1      39.252  10.387   8.647  0.00  0.00     0.000 A 
HETATM   81  C   UNK N   1      38.308   9.401   8.949  0.00  0.00     0.001 A 
HETATM   82  C   UNK N   1      37.031   9.461   8.389  0.00  0.00     0.007 A 
ENDBRANCH  76  77
ENDBRANCH  22  76
BRANCH  14  83
HETATM   83  C   UNK N   1      33.804  14.157   9.690  0.00  0.00     0.073 C 
BRANCH  83  84
HETATM   84  C   UNK N   1      35.151  13.715  10.172  0.00  0.00    -0.056 A 
HETATM   85  C   UNK N   1      35.305  12.430  10.698  0.00  0.00     0.007 A 
HETATM   86  C   UNK N   1      36.571  11.977  11.077  0.00  0.00     0.001 A 
HETATM   87  C   UNK N   1      37.689  12.804  10.925  0.00  0.00     0.000 A 
HETATM   88  C   UNK N   1      37.538  14.094  10.409  0.00  0.00     0.001 A 
HETATM   89  C   UNK N   1      36.271  14.550  10.036  0.00  0.00     0.007 A 
ENDBRANCH  83  84
ENDBRANCH  14  83
TORSDOF 21
ENDMDL
MODEL 6
REMARK VINA RESULT:      -7.4      6.661     11.453
REMARK  21 active torsions:
REMARK  status: ('A' for Active; 'I' for Inactive)
REMARK       I    between atoms: C_2  and  N_1 
REMARK    1  A    between atoms: C_3  and  C_2 
REMARK    2  A    between atoms: N_4  and  C_3 
REMARK       I    between atoms: C_5  and  N_4 
REMARK    3  A    between atoms: C_6  and  C_5 
REMARK    4  A    between atoms: N_7  and  C_6 
REMARK    5  A    between atoms: C_6  and  C_12 
REMARK       I    between atoms: C_8  and  N_7 
REMARK    6  A    between atoms: C_16  and  C_8 
REMARK    7  A    between atoms: C_13  and  C_12 
REMARK    8  A    between atoms: C_14  and  C_13 
REMARK    9  A    between atoms: C_15  and  C_14 
REMARK   10  A    between atoms: N_72  and  C_15 
REMARK       I    between atoms: C_21  and  N_18 
REMARK   11  A    between atoms: C_22  and  C_21 
REMARK   12  A    between atoms: C_25  and  C_32 
REMARK   13  A    between atoms: C_33  and  C_32 
REMARK       I    between atoms: N_35  and  C_33 
REMARK   14  A    between atoms: C_37  and  C_39 
REMARK   15  A    between atoms: C_40  and  C_39 
REMARK   16  A    between atoms: C_41  and  C_40 
REMARK       I    between atoms: N_42  and  C_41 
REMARK   17  A    between atoms: C_47  and  C_45 
REMARK   18  A    between atoms: C_48  and  C_47 
REMARK   19  A    between atoms: C_56  and  N_70 
REMARK   20  A    between atoms: C_60  and  C_63 
REMARK   21  A    between atoms: C_65  and  C_63 
ROOT
HETATM    1  C   UNK N   1      33.030  14.207   5.292  0.00  0.00     0.186 C 
HETATM    2  N   UNK N   1      34.441  13.899   5.378  0.00  0.00    -0.345 N 
HETATM    3  C   UNK N   1      35.420  14.568   6.031  0.00  0.00     0.241 C 
HETATM    4  C   UNK N   1      35.182  15.766   6.898  0.00  0.00     0.185 C 
HETATM    5  N   UNK N   1      35.098  15.310   8.265  0.00  0.00    -0.346 N 
HETATM    6  C   UNK N   1      32.235  12.897   5.138  0.00  0.00     0.120 C 
HETATM    7  S   UNK N   1      32.806  11.434   6.045  0.00  0.00    -0.095 SA
HETATM    8  S   UNK N   1      34.496  11.051   4.787  0.00  0.00    -0.095 SA
HETATM    9  O   UNK N   1      36.555  14.123   5.976  0.00  0.00    -0.271 OA
HETATM   10  C   UNK N   1      34.023  14.641   8.746  0.00  0.00     0.241 C 
HETATM   11  C   UNK N   1      34.063  14.031  10.095  0.00  0.00     0.177 C 
HETATM   12  O   UNK N   1      33.005  14.531   8.084  0.00  0.00    -0.271 OA
HETATM   13  N   UNK N   1      34.709  12.740  10.151  0.00  0.00    -0.346 N 
HETATM   14  C   UNK N   1      34.497  10.284  10.107  0.00  0.00     0.180 C 
HETATM   15  C   UNK N   1      34.083  11.649   9.636  0.00  0.00     0.241 C 
HETATM   16  N   UNK N   1      34.422   8.275   5.900  0.00  0.00    -0.346 N 
HETATM   17  C   UNK N   1      33.927   7.831   4.717  0.00  0.00     0.241 C 
HETATM   18  C   UNK N   1      34.222   8.634   3.480  0.00  0.00     0.177 C 
HETATM   19  C   UNK N   1      33.596  10.022   3.586  0.00  0.00     0.120 C 
HETATM   20  C   UNK N   1      33.856   8.867   8.156  0.00  0.00     0.241 C 
HETATM   21  O   UNK N   1      32.717   9.310   8.138  0.00  0.00    -0.271 OA
HETATM   22  C   UNK N   1      34.232   7.744   7.233  0.00  0.00     0.180 C 
HETATM   23  N   UNK N   1      34.770   9.322   9.053  0.00  0.00    -0.346 N 
HETATM   24  O   UNK N   1      33.050  11.781   8.998  0.00  0.00    -0.271 OA
HETATM   25  O   UNK N   1      33.264   6.806   4.650  0.00  0.00    -0.271 OA
HETATM   26  H   UNK N   1      34.729  13.092   4.894  0.00  0.00     0.163 HD
HETATM   27  H   UNK N   1      35.853  15.491   8.871  0.00  0.00     0.163 HD
HETATM   28  H   UNK N   1      35.600  12.651  10.560  0.00  0.00     0.163 HD
HETATM   29  H   UNK N   1      34.994   9.074   5.843  0.00  0.00     0.163 HD
HETATM   30  H   UNK N   1      35.687   8.973   8.983  0.00  0.00     0.163 HD
ENDROOT
BRANCH   1  31
HETATM   31  C   UNK N   1      32.673  14.855   3.978  0.00  0.00     0.244 C 
HETATM   32  N   UNK N   1      31.586  15.667   3.845  0.00  0.00    -0.337 N 
HETATM   33  C   UNK N   1      30.579  15.820   4.858  0.00  0.00     0.179 C 
HETATM   34  C   UNK N   1      31.689  16.827   3.031  0.00  0.00     0.127 C 
HETATM   35  C   UNK N   1      30.621  17.301   5.170  0.00  0.00     0.037 C 
HETATM   36  C   UNK N   1      31.478  17.931   4.062  0.00  0.00     0.022 C 
HETATM   37  O   UNK N   1      33.538  14.871   3.100  0.00  0.00    -0.271 OA
BRANCH  33  38
HETATM   38  C   UNK N   1      29.260  15.182   4.411  0.00  0.00     0.241 C 
HETATM   39  N   UNK N   1      28.037  15.643   4.782  0.00  0.00    -0.346 N 
HETATM   40  H   UNK N   1      27.239  15.143   4.495  0.00  0.00     0.163 HD
HETATM   41  O   UNK N   1      29.309  14.217   3.668  0.00  0.00    -0.271 OA
BRANCH  39  42
HETATM   42  C   UNK N   1      27.858  16.829   5.575  0.00  0.00     0.176 C 
BRANCH  42  43
HETATM   43  C   UNK N   1      27.447  16.504   7.021  0.00  0.00     0.240 C 
HETATM   44  N   UNK N   1      27.807  17.214   8.120  0.00  0.00    -0.351 N 
HETATM   45  H   UNK N   1      27.485  16.875   8.987  0.00  0.00     0.163 HD
HETATM   46  O   UNK N   1      26.660  15.584   7.185  0.00  0.00    -0.271 OA
BRANCH  44  47
HETATM   47  C   UNK N   1      28.604  18.405   8.156  0.00  0.00     0.225 C 
BRANCH  47  48
HETATM   48  C   UNK N   1      29.545  18.345   9.306  0.00  0.00     0.233 C 
HETATM   49  N   UNK N   1      29.458  17.341  10.199  0.00  0.00    -0.369 N 
HETATM   50  H   UNK N   1      29.008  16.470  10.112  0.00  0.00     0.159 HD
HETATM   51  H   UNK N   1      29.907  17.500  11.061  0.00  0.00     0.159 HD
HETATM   52  O   UNK N   1      30.398  19.205   9.441  0.00  0.00    -0.272 OA
ENDBRANCH  47  48
ENDBRANCH  44  47
ENDBRANCH  42  43
BRANCH  42  53
HETATM   53  C   UNK N   1      28.170  18.100   4.752  0.00  0.00     0.035 C 
BRANCH  53  54
HETATM   54  C   UNK N   1      27.088  18.695   3.879  0.00  0.00     0.004 C 
BRANCH  54  55
HETATM   55  C   UNK N   1      26.909  20.186   4.104  0.00  0.00     0.019 C 
BRANCH  55  56
HETATM   56  C   UNK N   1      27.329  20.530   5.522  0.00  0.00     0.111 C 
BRANCH  56  57
HETATM   57  N   UNK N   1      26.183  20.481   6.409  0.00  0.00    -0.430 N 
HETATM   58  H   UNK N   1      26.264  20.041   7.326  0.00  0.00     0.149 HD
HETATM   59  H   UNK N   1      25.294  20.887   6.116  0.00  0.00     0.149 HD
ENDBRANCH  56  57
ENDBRANCH  55  56
ENDBRANCH  54  55
ENDBRANCH  53  54
ENDBRANCH  42  53
ENDBRANCH  39  42
ENDBRANCH  33  38
ENDBRANCH   1  31
BRANCH   4  60
HETATM   60  C   UNK N   1      34.051  16.706   6.460  0.00  0.00     0.137 C 
BRANCH  60  61
HETATM   61  C   UNK N   1      33.885  17.875   7.379  0.00  0.00     0.217 C 
HETATM   62  O   UNK N   1      34.830  18.615   7.592  0.00  0.00    -0.274 OA
HETATM   63  N   UNK N   1      32.688  18.138   7.938  0.00  0.00    -0.370 N 
HETATM   64  H   UNK N   1      31.895  17.594   7.727  0.00  0.00     0.159 HD
HETATM   65  H   UNK N   1      32.604  18.888   8.570  0.00  0.00     0.159 HD
ENDBRANCH  60  61
ENDBRANCH   4  60
BRANCH  18  66
HETATM   66  N   UNK N   1      33.724   7.972   2.288  0.00  0.00    -0.418 N 
HETATM   67  H   UNK N   1      33.040   7.214   2.285  0.00  0.00     0.150 HD
HETATM   68  H   UNK N   1      34.083   8.286   1.387  0.00  0.00     0.150 HD
ENDBRANCH  18  66
BRANCH  11  69
HETATM   69  C   UNK N   1      34.455  14.968  11.213  0.00  0.00     0.044 C 
BRANCH  69  70
HETATM   70  C   UNK N   1      35.809  14.500  11.711  0.00  0.00     0.105 C 
BRANCH  70  71
HETATM   71  C   UNK N   1      35.816  14.327  13.186  0.00  0.00     0.215 C 
HETATM   72  N   UNK N   1      36.792  14.892  13.918  0.00  0.00    -0.370 N 
HETATM   73  H   UNK N   1      37.374  15.636  13.641  0.00  0.00     0.159 HD
HETATM   74  H   UNK N   1      36.938  14.526  14.820  0.00  0.00     0.159 HD
HETATM   75  O   UNK N   1      34.962  13.645  13.727  0.00  0.00    -0.274 OA
ENDBRANCH  70  71
ENDBRANCH  69  70
ENDBRANCH  11  69
BRANCH  22  76
HETATM   76  C   UNK N   1      33.224   6.588   7.364  0.00  0.00     0.073 C 
BRANCH  76  77
HETATM   77  C   UNK N   1      33.269   6.066   8.762  0.00  0.00    -0.056 A 
HETATM   78  C   UNK N   1      32.102   6.056   9.537  0.00  0.00     0.007 A 
HETATM   79  C   UNK N   1      32.163   5.704  10.888  0.00  0.00     0.001 A 
HETATM   80  C   UNK N   1      33.390   5.364  11.465  0.00  0.00     0.000 A 
HETATM   81  C   UNK N   1      34.554   5.367  10.689  0.00  0.00     0.001 A 
HETATM   82  C   UNK N   1      34.495   5.729   9.342  0.00  0.00     0.007 A 
ENDBRANCH  76  77
ENDBRANCH  22  76
BRANCH  14  83
HETATM   83  C   UNK N   1      33.467   9.731  11.102  0.00  0.00     0.073 C 
BRANCH  83  84
HETATM   84  C   UNK N   1      34.086   9.555  12.454  0.00  0.00    -0.056 A 
HETATM   85  C   UNK N   1      35.037   8.551  12.648  0.00  0.00     0.007 A 
HETATM   86  C   UNK N   1      35.681   8.427  13.881  0.00  0.00     0.001 A 
HETATM   87  C   UNK N   1      35.383   9.312  14.923  0.00  0.00     0.000 A 
HETATM   88  C   UNK N   1      34.424  10.312  14.736  0.00  0.00     0.001 A 
HETATM   89  C   UNK N   1      33.775  10.431  13.505  0.00  0.00     0.007 A 
ENDBRANCH  83  84
ENDBRANCH  14  83
TORSDOF 21
ENDMDL
MODEL 7
REMARK VINA RESULT:      -7.3      7.867     12.149
REMARK  21 active torsions:
REMARK  status: ('A' for Active; 'I' for Inactive)
REMARK       I    between atoms: C_2  and  N_1 
REMARK    1  A    between atoms: C_3  and  C_2 
REMARK    2  A    between atoms: N_4  and  C_3 
REMARK       I    between atoms: C_5  and  N_4 
REMARK    3  A    between atoms: C_6  and  C_5 
REMARK    4  A    between atoms: N_7  and  C_6 
REMARK    5  A    between atoms: C_6  and  C_12 
REMARK       I    between atoms: C_8  and  N_7 
REMARK    6  A    between atoms: C_16  and  C_8 
REMARK    7  A    between atoms: C_13  and  C_12 
REMARK    8  A    between atoms: C_14  and  C_13 
REMARK    9  A    between atoms: C_15  and  C_14 
REMARK   10  A    between atoms: N_72  and  C_15 
REMARK       I    between atoms: C_21  and  N_18 
REMARK   11  A    between atoms: C_22  and  C_21 
REMARK   12  A    between atoms: C_25  and  C_32 
REMARK   13  A    between atoms: C_33  and  C_32 
REMARK       I    between atoms: N_35  and  C_33 
REMARK   14  A    between atoms: C_37  and  C_39 
REMARK   15  A    between atoms: C_40  and  C_39 
REMARK   16  A    between atoms: C_41  and  C_40 
REMARK       I    between atoms: N_42  and  C_41 
REMARK   17  A    between atoms: C_47  and  C_45 
REMARK   18  A    between atoms: C_48  and  C_47 
REMARK   19  A    between atoms: C_56  and  N_70 
REMARK   20  A    between atoms: C_60  and  C_63 
REMARK   21  A    between atoms: C_65  and  C_63 
ROOT
HETATM    1  C   UNK N   1      35.703  11.608   4.915  0.00  0.00     0.186 C 
HETATM    2  N   UNK N   1      36.828  12.423   5.319  0.00  0.00    -0.345 N 
HETATM    3  C   UNK N   1      36.926  13.772   5.374  0.00  0.00     0.241 C 
HETATM    4  C   UNK N   1      35.791  14.707   5.092  0.00  0.00     0.185 C 
HETATM    5  N   UNK N   1      35.197  15.072   6.356  0.00  0.00    -0.346 N 
HETATM    6  C   UNK N   1      35.745  10.272   5.680  0.00  0.00     0.120 C 
HETATM    7  S   UNK N   1      36.299  10.289   7.407  0.00  0.00    -0.095 SA
HETATM    8  S   UNK N   1      38.373  10.584   6.961  0.00  0.00    -0.095 SA
HETATM    9  O   UNK N   1      37.980  14.256   5.755  0.00  0.00    -0.271 OA
HETATM   10  C   UNK N   1      34.429  14.219   7.074  0.00  0.00     0.241 C 
HETATM   11  C   UNK N   1      34.000  14.574   8.447  0.00  0.00     0.177 C 
HETATM   12  O   UNK N   1      34.073  13.151   6.607  0.00  0.00    -0.271 OA
HETATM   13  N   UNK N   1      34.988  14.314   9.469  0.00  0.00    -0.346 N 
HETATM   14  C   UNK N   1      35.882  12.786  11.185  0.00  0.00     0.180 C 
HETATM   15  C   UNK N   1      35.254  13.036   9.843  0.00  0.00     0.241 C 
HETATM   16  N   UNK N   1      38.891   9.541   9.717  0.00  0.00    -0.346 N 
HETATM   17  C   UNK N   1      39.336   8.379   9.176  0.00  0.00     0.241 C 
HETATM   18  C   UNK N   1      39.872   8.412   7.771  0.00  0.00     0.177 C 
HETATM   19  C   UNK N   1      38.774   8.817   6.792  0.00  0.00     0.120 C 
HETATM   20  C   UNK N   1      37.032  10.606  10.799  0.00  0.00     0.241 C 
HETATM   21  O   UNK N   1      36.015  10.082  10.369  0.00  0.00    -0.271 OA
HETATM   22  C   UNK N   1      38.268   9.777  11.002  0.00  0.00     0.180 C 
HETATM   23  N   UNK N   1      37.043  11.913  11.172  0.00  0.00    -0.346 N 
HETATM   24  O   UNK N   1      34.773  12.103   9.217  0.00  0.00    -0.271 OA
HETATM   25  O   UNK N   1      39.311   7.332   9.808  0.00  0.00    -0.271 OA
HETATM   26  H   UNK N   1      37.634  11.927   5.590  0.00  0.00     0.163 HD
HETATM   27  H   UNK N   1      35.358  15.977   6.710  0.00  0.00     0.163 HD
HETATM   28  H   UNK N   1      35.467  15.063   9.894  0.00  0.00     0.163 HD
HETATM   29  H   UNK N   1      39.009  10.339   9.154  0.00  0.00     0.163 HD
HETATM   30  H   UNK N   1      37.904  12.298  11.454  0.00  0.00     0.163 HD
ENDROOT
BRANCH   1  31
HETATM   31  C   UNK N   1      35.863  11.081   3.512  0.00  0.00     0.244 C 
HETATM   32  N   UNK N   1      34.791  10.835   2.705  0.00  0.00    -0.337 N 
HETATM   33  C   UNK N   1      33.430  10.853   3.165  0.00  0.00     0.179 C 
HETATM   34  C   UNK N   1      34.880  11.155   1.325  0.00  0.00     0.127 C 
HETATM   35  C   UNK N   1      32.787  11.923   2.309  0.00  0.00     0.037 C 
HETATM   36  C   UNK N   1      33.804  12.230   1.200  0.00  0.00     0.022 C 
HETATM   37  O   UNK N   1      36.984  11.149   3.005  0.00  0.00    -0.271 OA
BRANCH  33  38
HETATM   38  C   UNK N   1      32.840   9.439   3.170  0.00  0.00     0.241 C 
HETATM   39  N   UNK N   1      31.943   9.000   4.091  0.00  0.00    -0.346 N 
HETATM   40  H   UNK N   1      31.655   8.060   4.056  0.00  0.00     0.163 HD
HETATM   41  O   UNK N   1      33.183   8.669   2.289  0.00  0.00    -0.271 OA
BRANCH  39  42
HETATM   42  C   UNK N   1      31.398   9.849   5.115  0.00  0.00     0.176 C 
BRANCH  42  43
HETATM   43  C   UNK N   1      30.106  10.548   4.662  0.00  0.00     0.240 C 
HETATM   44  N   UNK N   1      29.904  11.891   4.638  0.00  0.00    -0.351 N 
HETATM   45  H   UNK N   1      29.015  12.196   4.342  0.00  0.00     0.163 HD
HETATM   46  O   UNK N   1      29.220   9.844   4.201  0.00  0.00    -0.271 OA
BRANCH  44  47
HETATM   47  C   UNK N   1      30.843  12.912   4.995  0.00  0.00     0.225 C 
BRANCH  47  48
HETATM   48  C   UNK N   1      30.461  14.196   4.348  0.00  0.00     0.233 C 
HETATM   49  N   UNK N   1      30.448  15.336   5.065  0.00  0.00    -0.369 N 
HETATM   50  H   UNK N   1      30.877  15.532   5.928  0.00  0.00     0.159 HD
HETATM   51  H   UNK N   1      29.935  16.078   4.669  0.00  0.00     0.159 HD
HETATM   52  O   UNK N   1      30.161  14.217   3.167  0.00  0.00    -0.272 OA
ENDBRANCH  47  48
ENDBRANCH  44  47
ENDBRANCH  42  43
BRANCH  42  53
HETATM   53  C   UNK N   1      32.252   9.785   6.402  0.00  0.00     0.035 C 
BRANCH  53  54
HETATM   54  C   UNK N   1      32.205   8.536   7.254  0.00  0.00     0.004 C 
BRANCH  54  55
HETATM   55  C   UNK N   1      31.557   8.773   8.606  0.00  0.00     0.019 C 
BRANCH  55  56
HETATM   56  C   UNK N   1      32.583   9.367   9.554  0.00  0.00     0.111 C 
BRANCH  56  57
HETATM   57  N   UNK N   1      32.321  10.779   9.756  0.00  0.00    -0.430 N 
HETATM   58  H   UNK N   1      31.387  11.154   9.593  0.00  0.00     0.149 HD
HETATM   59  H   UNK N   1      33.072  11.398  10.063  0.00  0.00     0.149 HD
ENDBRANCH  56  57
ENDBRANCH  55  56
ENDBRANCH  54  55
ENDBRANCH  53  54
ENDBRANCH  42  53
ENDBRANCH  39  42
ENDBRANCH  33  38
ENDBRANCH   1  31
BRANCH   4  60
HETATM   60  C   UNK N   1      34.794  14.257   4.016  0.00  0.00     0.137 C 
BRANCH  60  61
HETATM   61  C   UNK N   1      33.864  15.352   3.598  0.00  0.00     0.217 C 
HETATM   62  O   UNK N   1      33.349  16.063   4.444  0.00  0.00    -0.274 OA
HETATM   63  N   UNK N   1      33.626  15.585   2.293  0.00  0.00    -0.370 N 
HETATM   64  H   UNK N   1      34.083  15.068   1.590  0.00  0.00     0.159 HD
HETATM   65  H   UNK N   1      32.983  16.284   2.036  0.00  0.00     0.159 HD
ENDBRANCH  60  61
ENDBRANCH   4  60
BRANCH  18  66
HETATM   66  N   UNK N   1      40.412   7.121   7.380  0.00  0.00    -0.418 N 
HETATM   67  H   UNK N   1      40.953   6.949   6.533  0.00  0.00     0.150 HD
HETATM   68  H   UNK N   1      40.238   6.329   7.999  0.00  0.00     0.150 HD
ENDBRANCH  18  66
BRANCH  11  69
HETATM   69  C   UNK N   1      33.307  15.908   8.580  0.00  0.00     0.044 C 
BRANCH  69  70
HETATM   70  C   UNK N   1      34.326  16.865   9.169  0.00  0.00     0.105 C 
BRANCH  70  71
HETATM   71  C   UNK N   1      34.638  17.973   8.231  0.00  0.00     0.215 C 
HETATM   72  N   UNK N   1      35.086  19.147   8.711  0.00  0.00    -0.370 N 
HETATM   73  H   UNK N   1      35.491  19.299   9.595  0.00  0.00     0.159 HD
HETATM   74  H   UNK N   1      35.000  19.929   8.121  0.00  0.00     0.159 HD
HETATM   75  O   UNK N   1      34.454  17.832   7.033  0.00  0.00    -0.274 OA
ENDBRANCH  70  71
ENDBRANCH  69  70
ENDBRANCH  11  69
BRANCH  22  76
HETATM   76  C   UNK N   1      37.938   8.525  11.834  0.00  0.00     0.073 C 
BRANCH  76  77
HETATM   77  C   UNK N   1      37.405   8.956  13.161  0.00  0.00    -0.056 A 
HETATM   78  C   UNK N   1      38.201   9.736  14.010  0.00  0.00     0.007 A 
HETATM   79  C   UNK N   1      37.767  10.023  15.307  0.00  0.00     0.001 A 
HETATM   80  C   UNK N   1      36.539   9.530  15.756  0.00  0.00     0.000 A 
HETATM   81  C   UNK N   1      35.741   8.758  14.906  0.00  0.00     0.001 A 
HETATM   82  C   UNK N   1      36.179   8.461  13.614  0.00  0.00     0.007 A 
ENDBRANCH  76  77
ENDBRANCH  22  76
BRANCH  14  83
HETATM   83  C   UNK N   1      34.826  12.281  12.178  0.00  0.00     0.073 C 
BRANCH  83  84
HETATM   84  C   UNK N   1      35.222  12.622  13.582  0.00  0.00    -0.056 A 
HETATM   85  C   UNK N   1      36.387  13.359  13.807  0.00  0.00     0.007 A 
HETATM   86  C   UNK N   1      36.726  13.753  15.103  0.00  0.00     0.001 A 
HETATM   87  C   UNK N   1      35.897  13.418  16.179  0.00  0.00     0.000 A 
HETATM   88  C   UNK N   1      34.735  12.673  15.960  0.00  0.00     0.001 A 
HETATM   89  C   UNK N   1      34.400  12.273  14.664  0.00  0.00     0.007 A 
ENDBRANCH  83  84
ENDBRANCH  14  83
TORSDOF 21
ENDMDL
MODEL 8
REMARK VINA RESULT:      -7.2      6.728     11.302
REMARK  21 active torsions:
REMARK  status: ('A' for Active; 'I' for Inactive)
REMARK       I    between atoms: C_2  and  N_1 
REMARK    1  A    between atoms: C_3  and  C_2 
REMARK    2  A    between atoms: N_4  and  C_3 
REMARK       I    between atoms: C_5  and  N_4 
REMARK    3  A    between atoms: C_6  and  C_5 
REMARK    4  A    between atoms: N_7  and  C_6 
REMARK    5  A    between atoms: C_6  and  C_12 
REMARK       I    between atoms: C_8  and  N_7 
REMARK    6  A    between atoms: C_16  and  C_8 
REMARK    7  A    between atoms: C_13  and  C_12 
REMARK    8  A    between atoms: C_14  and  C_13 
REMARK    9  A    between atoms: C_15  and  C_14 
REMARK   10  A    between atoms: N_72  and  C_15 
REMARK       I    between atoms: C_21  and  N_18 
REMARK   11  A    between atoms: C_22  and  C_21 
REMARK   12  A    between atoms: C_25  and  C_32 
REMARK   13  A    between atoms: C_33  and  C_32 
REMARK       I    between atoms: N_35  and  C_33 
REMARK   14  A    between atoms: C_37  and  C_39 
REMARK   15  A    between atoms: C_40  and  C_39 
REMARK   16  A    between atoms: C_41  and  C_40 
REMARK       I    between atoms: N_42  and  C_41 
REMARK   17  A    between atoms: C_47  and  C_45 
REMARK   18  A    between atoms: C_48  and  C_47 
REMARK   19  A    between atoms: C_56  and  N_70 
REMARK   20  A    between atoms: C_60  and  C_63 
REMARK   21  A    between atoms: C_65  and  C_63 
ROOT
HETATM    1  C   UNK N   1      33.215  14.163   5.380  0.00  0.00     0.186 C 
HETATM    2  N   UNK N   1      34.631  13.894   5.509  0.00  0.00    -0.345 N 
HETATM    3  C   UNK N   1      35.578  14.608   6.161  0.00  0.00     0.241 C 
HETATM    4  C   UNK N   1      35.290  15.828   6.981  0.00  0.00     0.185 C 
HETATM    5  N   UNK N   1      35.185  15.416   8.360  0.00  0.00    -0.346 N 
HETATM    6  C   UNK N   1      32.456  12.829   5.252  0.00  0.00     0.120 C 
HETATM    7  S   UNK N   1      33.041  11.412   6.222  0.00  0.00    -0.095 SA
HETATM    8  S   UNK N   1      34.770  11.030   5.016  0.00  0.00    -0.095 SA
HETATM    9  O   UNK N   1      36.725  14.191   6.147  0.00  0.00    -0.271 OA
HETATM   10  C   UNK N   1      34.116  14.736   8.839  0.00  0.00     0.241 C 
HETATM   11  C   UNK N   1      34.138  14.173  10.209  0.00  0.00     0.177 C 
HETATM   12  O   UNK N   1      33.117  14.580   8.158  0.00  0.00    -0.271 OA
HETATM   13  N   UNK N   1      34.814  12.901  10.323  0.00  0.00    -0.346 N 
HETATM   14  C   UNK N   1      34.664  10.441  10.358  0.00  0.00     0.180 C 
HETATM   15  C   UNK N   1      34.228  11.779   9.832  0.00  0.00     0.241 C 
HETATM   16  N   UNK N   1      34.737   8.291   6.221  0.00  0.00    -0.346 N 
HETATM   17  C   UNK N   1      34.281   7.795   5.043  0.00  0.00     0.241 C 
HETATM   18  C   UNK N   1      34.586   8.565   3.787  0.00  0.00     0.177 C 
HETATM   19  C   UNK N   1      33.924   9.939   3.830  0.00  0.00     0.120 C 
HETATM   20  C   UNK N   1      34.103   8.944   8.442  0.00  0.00     0.241 C 
HETATM   21  O   UNK N   1      32.955   9.358   8.382  0.00  0.00    -0.271 OA
HETATM   22  C   UNK N   1      34.529   7.801   7.566  0.00  0.00     0.180 C 
HETATM   23  N   UNK N   1      34.984   9.452   9.344  0.00  0.00    -0.346 N 
HETATM   24  O   UNK N   1      33.207  11.863   9.166  0.00  0.00    -0.271 OA
HETATM   25  O   UNK N   1      33.645   6.753   4.995  0.00  0.00    -0.271 OA
HETATM   26  H   UNK N   1      34.950  13.078   5.059  0.00  0.00     0.163 HD
HETATM   27  H   UNK N   1      35.920  15.637   8.977  0.00  0.00     0.163 HD
HETATM   28  H   UNK N   1      35.697  12.849  10.756  0.00  0.00     0.163 HD
HETATM   29  H   UNK N   1      35.290   9.102   6.150  0.00  0.00     0.163 HD
HETATM   30  H   UNK N   1      35.912   9.123   9.306  0.00  0.00     0.163 HD
ENDROOT
BRANCH   1  31
HETATM   31  C   UNK N   1      32.874  14.758   4.038  0.00  0.00     0.244 C 
HETATM   32  N   UNK N   1      31.772  15.539   3.852  0.00  0.00    -0.337 N 
HETATM   33  C   UNK N   1      30.739  15.703   4.837  0.00  0.00     0.179 C 
HETATM   34  C   UNK N   1      31.868  16.672   3.001  0.00  0.00     0.127 C 
HETATM   35  C   UNK N   1      30.741  17.194   5.098  0.00  0.00     0.037 C 
HETATM   36  C   UNK N   1      31.609  17.806   3.989  0.00  0.00     0.022 C 
HETATM   37  O   UNK N   1      33.758  14.764   3.179  0.00  0.00    -0.271 OA
BRANCH  33  38
HETATM   38  C   UNK N   1      29.445  15.020   4.384  0.00  0.00     0.241 C 
HETATM   39  N   UNK N   1      28.204  15.488   4.676  0.00  0.00    -0.346 N 
HETATM   40  H   UNK N   1      27.423  14.960   4.393  0.00  0.00     0.163 HD
HETATM   41  O   UNK N   1      29.534  14.008   3.709  0.00  0.00    -0.271 OA
BRANCH  39  42
HETATM   42  C   UNK N   1      27.982  16.721   5.380  0.00  0.00     0.176 C 
BRANCH  42  43
HETATM   43  C   UNK N   1      27.528  17.852   4.443  0.00  0.00     0.240 C 
HETATM   44  N   UNK N   1      26.354  17.887   3.762  0.00  0.00    -0.351 N 
HETATM   45  H   UNK N   1      26.206  18.668   3.180  0.00  0.00     0.163 HD
HETATM   46  O   UNK N   1      28.241  18.842   4.374  0.00  0.00    -0.271 OA
BRANCH  44  47
HETATM   47  C   UNK N   1      25.305  16.910   3.797  0.00  0.00     0.225 C 
BRANCH  47  48
HETATM   48  C   UNK N   1      24.413  17.173   4.958  0.00  0.00     0.233 C 
HETATM   49  N   UNK N   1      24.139  18.439   5.326  0.00  0.00    -0.369 N 
HETATM   50  H   UNK N   1      24.246  19.272   4.814  0.00  0.00     0.159 HD
HETATM   51  H   UNK N   1      23.783  18.546   6.239  0.00  0.00     0.159 HD
HETATM   52  O   UNK N   1      23.926  16.242   5.575  0.00  0.00    -0.272 OA
ENDBRANCH  47  48
ENDBRANCH  44  47
ENDBRANCH  42  43
BRANCH  42  53
HETATM   53  C   UNK N   1      28.226  16.546   6.897  0.00  0.00     0.035 C 
BRANCH  53  54
HETATM   54  C   UNK N   1      28.186  17.763   7.794  0.00  0.00     0.004 C 
BRANCH  54  55
HETATM   55  C   UNK N   1      28.017  17.404   9.259  0.00  0.00     0.019 C 
BRANCH  55  56
HETATM   56  C   UNK N   1      29.380  17.380   9.927  0.00  0.00     0.111 C 
BRANCH  56  57
HETATM   57  N   UNK N   1      29.920  18.723  10.013  0.00  0.00    -0.430 N 
HETATM   58  H   UNK N   1      29.577  19.454   9.389  0.00  0.00     0.149 HD
HETATM   59  H   UNK N   1      30.644  18.939  10.699  0.00  0.00     0.149 HD
ENDBRANCH  56  57
ENDBRANCH  55  56
ENDBRANCH  54  55
ENDBRANCH  53  54
ENDBRANCH  42  53
ENDBRANCH  39  42
ENDBRANCH  33  38
ENDBRANCH   1  31
BRANCH   4  60
HETATM   60  C   UNK N   1      34.148  16.724   6.486  0.00  0.00     0.137 C 
BRANCH  60  61
HETATM   61  C   UNK N   1      33.887  17.882   7.397  0.00  0.00     0.217 C 
HETATM   62  O   UNK N   1      34.796  18.641   7.686  0.00  0.00    -0.274 OA
HETATM   63  N   UNK N   1      32.645  18.115   7.865  0.00  0.00    -0.370 N 
HETATM   64  H   UNK N   1      31.882  17.556   7.590  0.00  0.00     0.159 HD
HETATM   65  H   UNK N   1      32.497  18.858   8.493  0.00  0.00     0.159 HD
ENDBRANCH  60  61
ENDBRANCH   4  60
BRANCH  18  66
HETATM   66  N   UNK N   1      34.132   7.850   2.606  0.00  0.00    -0.418 N 
HETATM   67  H   UNK N   1      34.505   6.955   2.289  0.00  0.00     0.150 HD
HETATM   68  H   UNK N   1      33.387   8.274   2.054  0.00  0.00     0.150 HD
ENDBRANCH  18  66
BRANCH  11  69
HETATM   69  C   UNK N   1      34.481  15.157  11.303  0.00  0.00     0.044 C 
BRANCH  69  70
HETATM   70  C   UNK N   1      35.873  14.795  11.785  0.00  0.00     0.105 C 
BRANCH  70  71
HETATM   71  C   UNK N   1      35.861  14.366  13.206  0.00  0.00     0.215 C 
HETATM   72  N   UNK N   1      36.846  14.766  14.031  0.00  0.00    -0.370 N 
HETATM   73  H   UNK N   1      37.451  15.530  13.891  0.00  0.00     0.159 HD
HETATM   74  H   UNK N   1      36.974  14.243  14.855  0.00  0.00     0.159 HD
HETATM   75  O   UNK N   1      34.983  13.626  13.616  0.00  0.00    -0.274 OA
ENDBRANCH  70  71
ENDBRANCH  69  70
ENDBRANCH  11  69
BRANCH  22  76
HETATM   76  C   UNK N   1      33.547   6.625   7.714  0.00  0.00     0.073 C 
BRANCH  76  77
HETATM   77  C   UNK N   1      33.508   6.205   9.146  0.00  0.00    -0.056 A 
HETATM   78  C   UNK N   1      34.693   5.828   9.791  0.00  0.00     0.007 A 
HETATM   79  C   UNK N   1      34.647   5.300  11.084  0.00  0.00     0.001 A 
HETATM   80  C   UNK N   1      33.418   5.148  11.732  0.00  0.00     0.000 A 
HETATM   81  C   UNK N   1      32.235   5.532  11.090  0.00  0.00     0.001 A 
HETATM   82  C   UNK N   1      32.280   6.049   9.794  0.00  0.00     0.007 A 
ENDBRANCH  76  77
ENDBRANCH  22  76
BRANCH  14  83
HETATM   83  C   UNK N   1      33.624   9.896  11.347  0.00  0.00     0.073 C 
BRANCH  83  84
HETATM   84  C   UNK N   1      34.222   9.756  12.712  0.00  0.00    -0.056 A 
HETATM   85  C   UNK N   1      33.750  10.556  13.755  0.00  0.00     0.007 A 
HETATM   86  C   UNK N   1      34.243  10.379  15.050  0.00  0.00     0.001 A 
HETATM   87  C   UNK N   1      35.205   9.397  15.309  0.00  0.00     0.000 A 
HETATM   88  C   UNK N   1      35.688   8.601  14.267  0.00  0.00     0.001 A 
HETATM   89  C   UNK N   1      35.200   8.782  12.971  0.00  0.00     0.007 A 
ENDBRANCH  83  84
ENDBRANCH  14  83
TORSDOF 21
ENDMDL
MODEL 9
REMARK VINA RESULT:      -7.2      7.116     12.485
REMARK  21 active torsions:
REMARK  status: ('A' for Active; 'I' for Inactive)
REMARK       I    between atoms: C_2  and  N_1 
REMARK    1  A    between atoms: C_3  and  C_2 
REMARK    2  A    between atoms: N_4  and  C_3 
REMARK       I    between atoms: C_5  and  N_4 
REMARK    3  A    between atoms: C_6  and  C_5 
REMARK    4  A    between atoms: N_7  and  C_6 
REMARK    5  A    between atoms: C_6  and  C_12 
REMARK       I    between atoms: C_8  and  N_7 
REMARK    6  A    between atoms: C_16  and  C_8 
REMARK    7  A    between atoms: C_13  and  C_12 
REMARK    8  A    between atoms: C_14  and  C_13 
REMARK    9  A    between atoms: C_15  and  C_14 
REMARK   10  A    between atoms: N_72  and  C_15 
REMARK       I    between atoms: C_21  and  N_18 
REMARK   11  A    between atoms: C_22  and  C_21 
REMARK   12  A    between atoms: C_25  and  C_32 
REMARK   13  A    between atoms: C_33  and  C_32 
REMARK       I    between atoms: N_35  and  C_33 
REMARK   14  A    between atoms: C_37  and  C_39 
REMARK   15  A    between atoms: C_40  and  C_39 
REMARK   16  A    between atoms: C_41  and  C_40 
REMARK       I    between atoms: N_42  and  C_41 
REMARK   17  A    between atoms: C_47  and  C_45 
REMARK   18  A    between atoms: C_48  and  C_47 
REMARK   19  A    between atoms: C_56  and  N_70 
REMARK   20  A    between atoms: C_60  and  C_63 
REMARK   21  A    between atoms: C_65  and  C_63 
ROOT
HETATM    1  C   UNK N   1      34.043  11.270   4.927  0.00  0.00     0.186 C 
HETATM    2  N   UNK N   1      35.024  10.237   5.179  0.00  0.00    -0.345 N 
HETATM    3  C   UNK N   1      36.336  10.364   5.487  0.00  0.00     0.241 C 
HETATM    4  C   UNK N   1      37.018  11.678   5.719  0.00  0.00     0.185 C 
HETATM    5  N   UNK N   1      37.045  11.914   7.143  0.00  0.00    -0.346 N 
HETATM    6  C   UNK N   1      32.653  10.764   5.356  0.00  0.00     0.120 C 
HETATM    7  S   UNK N   1      32.538   9.724   6.838  0.00  0.00    -0.095 SA
HETATM    8  S   UNK N   1      33.363   7.969   5.929  0.00  0.00    -0.095 SA
HETATM    9  O   UNK N   1      36.986   9.347   5.667  0.00  0.00    -0.271 OA
HETATM   10  C   UNK N   1      35.941  12.266   7.845  0.00  0.00     0.241 C 
HETATM   11  C   UNK N   1      35.979  12.313   9.325  0.00  0.00     0.177 C 
HETATM   12  O   UNK N   1      34.902  12.554   7.276  0.00  0.00    -0.271 OA
HETATM   13  N   UNK N   1      35.803  11.032   9.970  0.00  0.00    -0.346 N 
HETATM   14  C   UNK N   1      34.281   9.406  11.026  0.00  0.00     0.180 C 
HETATM   15  C   UNK N   1      34.578  10.445   9.983  0.00  0.00     0.241 C 
HETATM   16  N   UNK N   1      32.066   6.463   8.166  0.00  0.00    -0.346 N 
HETATM   17  C   UNK N   1      31.131   6.007   7.296  0.00  0.00     0.241 C 
HETATM   18  C   UNK N   1      31.495   5.938   5.838  0.00  0.00     0.177 C 
HETATM   19  C   UNK N   1      31.780   7.334   5.293  0.00  0.00     0.120 C 
HETATM   20  C   UNK N   1      32.504   8.062   9.901  0.00  0.00     0.241 C 
HETATM   21  O   UNK N   1      31.832   9.054   9.657  0.00  0.00    -0.271 OA
HETATM   22  C   UNK N   1      31.960   6.698   9.590  0.00  0.00     0.180 C 
HETATM   23  N   UNK N   1      33.708   8.169  10.523  0.00  0.00    -0.346 N 
HETATM   24  O   UNK N   1      33.664  10.922   9.327  0.00  0.00    -0.271 OA
HETATM   25  O   UNK N   1      30.024   5.655   7.678  0.00  0.00    -0.271 OA
HETATM   26  H   UNK N   1      34.691   9.312   5.115  0.00  0.00     0.163 HD
HETATM   27  H   UNK N   1      37.899  11.815   7.623  0.00  0.00     0.163 HD
HETATM   28  H   UNK N   1      36.569  10.586  10.399  0.00  0.00     0.163 HD
HETATM   29  H   UNK N   1      32.945   6.664   7.772  0.00  0.00     0.163 HD
HETATM   30  H   UNK N   1      34.233   7.344  10.640  0.00  0.00     0.163 HD
ENDROOT
BRANCH   1  31
HETATM   31  C   UNK N   1      33.783  11.454   3.454  0.00  0.00     0.244 C 
HETATM   32  N   UNK N   1      33.318  12.630   2.944  0.00  0.00    -0.337 N 
HETATM   33  C   UNK N   1      32.845  13.718   3.755  0.00  0.00     0.179 C 
HETATM   34  C   UNK N   1      33.828  13.090   1.700  0.00  0.00     0.127 C 
HETATM   35  C   UNK N   1      33.761  14.861   3.373  0.00  0.00     0.037 C 
HETATM   36  C   UNK N   1      34.515  14.385   2.123  0.00  0.00     0.022 C 
HETATM   37  O   UNK N   1      34.266  10.623   2.684  0.00  0.00    -0.271 OA
BRANCH  33  38
HETATM   38  C   UNK N   1      31.330  13.885   3.607  0.00  0.00     0.241 C 
HETATM   39  N   UNK N   1      30.605  14.812   4.285  0.00  0.00    -0.346 N 
HETATM   40  H   UNK N   1      29.627  14.818   4.174  0.00  0.00     0.163 HD
HETATM   41  O   UNK N   1      30.743  13.156   2.825  0.00  0.00    -0.271 OA
BRANCH  39  42
HETATM   42  C   UNK N   1      31.204  15.784   5.158  0.00  0.00     0.176 C 
BRANCH  42  43
HETATM   43  C   UNK N   1      31.190  17.197   4.551  0.00  0.00     0.240 C 
HETATM   44  N   UNK N   1      30.092  17.982   4.408  0.00  0.00    -0.351 N 
HETATM   45  H   UNK N   1      30.232  18.859   3.981  0.00  0.00     0.163 HD
HETATM   46  O   UNK N   1      32.269  17.688   4.255  0.00  0.00    -0.271 OA
BRANCH  44  47
HETATM   47  C   UNK N   1      28.752  17.674   4.810  0.00  0.00     0.225 C 
BRANCH  47  48
HETATM   48  C   UNK N   1      28.452  18.335   6.109  0.00  0.00     0.233 C 
HETATM   49  N   UNK N   1      28.887  17.790   7.260  0.00  0.00    -0.369 N 
HETATM   50  H   UNK N   1      29.591  17.117   7.403  0.00  0.00     0.159 HD
HETATM   51  H   UNK N   1      28.436  18.108   8.076  0.00  0.00     0.159 HD
HETATM   52  O   UNK N   1      27.815  19.374   6.131  0.00  0.00    -0.272 OA
ENDBRANCH  47  48
ENDBRANCH  44  47
ENDBRANCH  42  43
BRANCH  42  53
HETATM   53  C   UNK N   1      31.657  15.133   6.486  0.00  0.00     0.035 C 
BRANCH  53  54
HETATM   54  C   UNK N   1      32.132  16.021   7.615  0.00  0.00     0.004 C 
BRANCH  54  55
HETATM   55  C   UNK N   1      33.522  15.654   8.102  0.00  0.00     0.019 C 
BRANCH  55  56
HETATM   56  C   UNK N   1      33.447  15.237   9.560  0.00  0.00     0.111 C 
BRANCH  56  57
HETATM   57  N   UNK N   1      33.062  13.842   9.662  0.00  0.00    -0.430 N 
HETATM   58  H   UNK N   1      32.092  13.591   9.850  0.00  0.00     0.149 HD
HETATM   59  H   UNK N   1      33.764  13.110   9.544  0.00  0.00     0.149 HD
ENDBRANCH  56  57
ENDBRANCH  55  56
ENDBRANCH  54  55
ENDBRANCH  53  54
ENDBRANCH  42  53
ENDBRANCH  39  42
ENDBRANCH  33  38
ENDBRANCH   1  31
BRANCH   4  60
HETATM   60  C   UNK N   1      36.518  12.859   4.877  0.00  0.00     0.137 C 
BRANCH  60  61
HETATM   61  C   UNK N   1      37.230  14.136   5.197  0.00  0.00     0.217 C 
HETATM   62  O   UNK N   1      36.641  15.024   5.789  0.00  0.00    -0.274 OA
HETATM   63  N   UNK N   1      38.527  14.293   4.872  0.00  0.00    -0.370 N 
HETATM   64  H   UNK N   1      39.042  13.564   4.455  0.00  0.00     0.159 HD
HETATM   65  H   UNK N   1      38.971  15.153   5.055  0.00  0.00     0.159 HD
ENDBRANCH  60  61
ENDBRANCH   4  60
BRANCH  18  66
HETATM   66  N   UNK N   1      30.436   5.325   5.056  0.00  0.00    -0.418 N 
HETATM   67  H   UNK N   1      29.519   5.064   5.421  0.00  0.00     0.150 HD
HETATM   68  H   UNK N   1      30.620   5.140   4.070  0.00  0.00     0.150 HD
ENDBRANCH  18  66
BRANCH  11  69
HETATM   69  C   UNK N   1      37.085  13.156   9.913  0.00  0.00     0.044 C 
BRANCH  69  70
HETATM   70  C   UNK N   1      36.944  13.057  11.420  0.00  0.00     0.105 C 
BRANCH  70  71
HETATM   71  C   UNK N   1      35.972  14.051  11.942  0.00  0.00     0.215 C 
HETATM   72  N   UNK N   1      36.319  15.348  12.014  0.00  0.00    -0.370 N 
HETATM   73  H   UNK N   1      37.050  15.786  11.519  0.00  0.00     0.159 HD
HETATM   74  H   UNK N   1      35.791  15.916  12.619  0.00  0.00     0.159 HD
HETATM   75  O   UNK N   1      34.877  13.688  12.339  0.00  0.00    -0.274 OA
ENDBRANCH  70  71
ENDBRANCH  69  70
ENDBRANCH  11  69
BRANCH  22  76
HETATM   76  C   UNK N   1      30.555   6.535  10.199  0.00  0.00     0.073 C 
BRANCH  76  77
HETATM   77  C   UNK N   1      30.617   5.511  11.284  0.00  0.00    -0.056 A 
HETATM   78  C   UNK N   1      29.513   5.323  12.126  0.00  0.00     0.007 A 
HETATM   79  C   UNK N   1      29.612   4.472  13.229  0.00  0.00     0.001 A 
HETATM   80  C   UNK N   1      30.814   3.809  13.492  0.00  0.00     0.000 A 
HETATM   81  C   UNK N   1      31.914   3.991  12.648  0.00  0.00     0.001 A 
HETATM   82  C   UNK N   1      31.819   4.851  11.552  0.00  0.00     0.007 A 
ENDBRANCH  76  77
ENDBRANCH  22  76
BRANCH  14  83
HETATM   83  C   UNK N   1      33.405  10.004  12.137  0.00  0.00     0.073 C 
BRANCH  83  84
HETATM   84  C   UNK N   1      34.147  10.019  13.437  0.00  0.00    -0.056 A 
HETATM   85  C   UNK N   1      33.648  10.770  14.504  0.00  0.00     0.007 A 
HETATM   86  C   UNK N   1      34.285  10.729  15.746  0.00  0.00     0.001 A 
HETATM   87  C   UNK N   1      35.419   9.931  15.929  0.00  0.00     0.000 A 
HETATM   88  C   UNK N   1      35.928   9.185  14.862  0.00  0.00     0.001 A 
HETATM   89  C   UNK N   1      35.295   9.231  13.618  0.00  0.00     0.007 A 
ENDBRANCH  83  84
ENDBRANCH  14  83
TORSDOF 21
ENDMDL
