MODEL 1
REMARK VINA RESULT:      -4.7      0.000      0.000
REMARK  10 active torsions:
REMARK  status: ('A' for Active; 'I' for Inactive)
REMARK    1  A    between atoms: C_1  and  S_2 
REMARK    2  A    between atoms: C_1  and  C_7 
REMARK    3  A    between atoms: S_2  and  C_3 
REMARK    4  A    between atoms: C_3  and  C_4 
REMARK    5  A    between atoms: C_4  and  N_5 
REMARK    6  A    between atoms: N_5  and  C_6 
REMARK    7  A    between atoms: C_6  and  N_21 
REMARK    8  A    between atoms: C_10  and  C_13 
REMARK    9  A    between atoms: C_13  and  N_15 
REMARK   10  A    between atoms: C_14  and  N_18 
ROOT
HETATM    1  S   UNK N   1      25.514  15.223   6.364  0.00  0.00    -0.161 SA
ENDROOT
BRANCH   1   2
HETATM    2  C   UNK N   1      23.976  14.746   5.526  0.00  0.00     0.131 C 
BRANCH   2   3
HETATM    3  C   UNK N   1      22.905  15.738   5.812  0.00  0.00     0.025 A 
HETATM    4  N   UNK N   1      22.648  16.810   4.981  0.00  0.00    -0.355 N 
HETATM    5  C   UNK N   1      21.624  17.571   5.438  0.00  0.00     0.079 A 
ATOM      6  HN  UNK N   1      23.167  17.006   4.126  1.00  0.00     0.166 HD
HETATM    7  S   UNK N   1      21.059  16.923   6.849  0.00  0.00    -0.085 SA
HETATM    8  C   UNK N   1      22.092  15.635   6.953  0.00  0.00     0.077 A 
BRANCH   5   9
HETATM    9  C   UNK N   1      21.141  18.814   4.747  0.00  0.00     0.335 C 
BRANCH   9  10
HETATM   10  N   UNK N   1      20.787  18.584   3.348  0.00  0.00     0.086 N 
HETATM   11  C   UNK N   1      19.705  17.613   3.284  0.00  0.00     0.309 C 
HETATM   12  C   UNK N   1      20.241  19.832   2.848  0.00  0.00     0.309 C 
ENDBRANCH   9  10
ENDBRANCH   5   9
ENDBRANCH   2   3
ENDBRANCH   1   2
BRANCH   1  13
HETATM   13  C   UNK N   1      26.125  16.087   4.895  0.00  0.00     0.093 C 
BRANCH  13  14
HETATM   14  C   UNK N   1      26.756  17.394   5.311  0.00  0.00     0.131 C 
BRANCH  14  15
HETATM   15  N   UNK N   1      25.728  18.383   5.495  0.00  0.00    -0.374 N 
HETATM   16  H   UNK N   1      25.084  18.243   6.225  0.00  0.00     0.161 HD
BRANCH  15  17
HETATM   17  C   UNK N   1      25.578  19.551   4.691  0.00  0.00     0.118 C 
HETATM   18  C   UNK N   1      24.602  19.540   3.766  0.00  0.00     0.215 C 
BRANCH  18  19
HETATM   19  N   UNK N   1      24.328  20.599   2.851  0.00  0.00    -0.124 N 
HETATM   20  O   UNK N   1      23.364  21.290   2.971  0.00  0.00    -0.532 OA
HETATM   21  O   UNK N   1      25.197  20.859   1.899  0.00  0.00    -0.532 OA
ENDBRANCH  18  19
BRANCH  17  22
HETATM   22  N   UNK N   1      26.430  20.692   4.824  0.00  0.00    -0.380 N 
HETATM   23  C   UNK N   1      27.105  21.078   6.036  0.00  0.00     0.147 C 
HETATM   24  H   UNK N   1      26.567  21.253   4.027  0.00  0.00     0.160 HD
ENDBRANCH  17  22
ENDBRANCH  15  17
ENDBRANCH  14  15
ENDBRANCH  13  14
ENDBRANCH   1  13
TORSDOF 10
ENDMDL
MODEL 2
REMARK VINA RESULT:      -4.7      9.799     12.756
REMARK  10 active torsions:
REMARK  status: ('A' for Active; 'I' for Inactive)
REMARK    1  A    between atoms: C_1  and  S_2 
REMARK    2  A    between atoms: C_1  and  C_7 
REMARK    3  A    between atoms: S_2  and  C_3 
REMARK    4  A    between atoms: C_3  and  C_4 
REMARK    5  A    between atoms: C_4  and  N_5 
REMARK    6  A    between atoms: N_5  and  C_6 
REMARK    7  A    between atoms: C_6  and  N_21 
REMARK    8  A    between atoms: C_10  and  C_13 
REMARK    9  A    between atoms: C_13  and  N_15 
REMARK   10  A    between atoms: C_14  and  N_18 
ROOT
HETATM    1  S   UNK N   1      33.912  13.520   5.825  0.00  0.00    -0.161 SA
ENDROOT
BRANCH   1   2
HETATM    2  C   UNK N   1      33.164  13.684   7.471  0.00  0.00     0.131 C 
BRANCH   2   3
HETATM    3  C   UNK N   1      34.213  13.962   8.488  0.00  0.00     0.025 A 
HETATM    4  N   UNK N   1      33.973  13.870   9.844  0.00  0.00    -0.355 N 
HETATM    5  C   UNK N   1      35.077  14.157  10.576  0.00  0.00     0.079 A 
ATOM      6  HN  UNK N   1      33.072  13.614  10.248  1.00  0.00     0.166 HD
HETATM    7  S   UNK N   1      36.321  14.525   9.551  0.00  0.00    -0.085 SA
HETATM    8  C   UNK N   1      35.516  14.337   8.118  0.00  0.00     0.077 A 
BRANCH   5   9
HETATM    9  C   UNK N   1      35.101  14.157  12.077  0.00  0.00     0.335 C 
BRANCH   9  10
HETATM   10  N   UNK N   1      36.248  13.437  12.626  0.00  0.00     0.086 N 
HETATM   11  C   UNK N   1      36.384  13.759  14.038  0.00  0.00     0.309 C 
HETATM   12  C   UNK N   1      35.919  12.025  12.562  0.00  0.00     0.309 C 
ENDBRANCH   9  10
ENDBRANCH   5   9
ENDBRANCH   2   3
ENDBRANCH   1   2
BRANCH   1  13
HETATM   13  C   UNK N   1      32.690  14.634   5.086  0.00  0.00     0.093 C 
BRANCH  13  14
HETATM   14  C   UNK N   1      33.285  16.017   4.965  0.00  0.00     0.131 C 
BRANCH  14  15
HETATM   15  N   UNK N   1      32.541  16.930   5.789  0.00  0.00    -0.374 N 
HETATM   16  H   UNK N   1      31.720  17.322   5.412  0.00  0.00     0.161 HD
BRANCH  15  17
HETATM   17  C   UNK N   1      32.909  17.307   7.114  0.00  0.00     0.118 C 
HETATM   18  C   UNK N   1      34.133  17.839   7.284  0.00  0.00     0.215 C 
BRANCH  18  19
HETATM   19  N   UNK N   1      34.686  18.239   8.536  0.00  0.00    -0.124 N 
HETATM   20  O   UNK N   1      34.565  17.565   9.512  0.00  0.00    -0.532 OA
HETATM   21  O   UNK N   1      35.405  19.338   8.593  0.00  0.00    -0.532 OA
ENDBRANCH  18  19
BRANCH  17  22
HETATM   22  N   UNK N   1      32.045  17.116   8.237  0.00  0.00    -0.380 N 
HETATM   23  C   UNK N   1      31.007  18.028   8.641  0.00  0.00     0.147 C 
HETATM   24  H   UNK N   1      32.169  16.300   8.773  0.00  0.00     0.160 HD
ENDBRANCH  17  22
ENDBRANCH  15  17
ENDBRANCH  14  15
ENDBRANCH  13  14
ENDBRANCH   1  13
TORSDOF 10
ENDMDL
MODEL 3
REMARK VINA RESULT:      -4.7     11.526     13.607
REMARK  10 active torsions:
REMARK  status: ('A' for Active; 'I' for Inactive)
REMARK    1  A    between atoms: C_1  and  S_2 
REMARK    2  A    between atoms: C_1  and  C_7 
REMARK    3  A    between atoms: S_2  and  C_3 
REMARK    4  A    between atoms: C_3  and  C_4 
REMARK    5  A    between atoms: C_4  and  N_5 
REMARK    6  A    between atoms: N_5  and  C_6 
REMARK    7  A    between atoms: C_6  and  N_21 
REMARK    8  A    between atoms: C_10  and  C_13 
REMARK    9  A    between atoms: C_13  and  N_15 
REMARK   10  A    between atoms: C_14  and  N_18 
ROOT
HETATM    1  S   UNK N   1      34.551  14.423  10.742  0.00  0.00    -0.161 SA
ENDROOT
BRANCH   1   2
HETATM    2  C   UNK N   1      34.379  14.401   8.935  0.00  0.00     0.131 C 
BRANCH   2   3
HETATM    3  C   UNK N   1      33.785  15.679   8.460  0.00  0.00     0.025 A 
HETATM    4  N   UNK N   1      32.619  16.197   8.989  0.00  0.00    -0.355 N 
HETATM    5  C   UNK N   1      32.276  17.372   8.408  0.00  0.00     0.079 A 
ATOM      6  HN  UNK N   1      32.081  15.747   9.729  1.00  0.00     0.166 HD
HETATM    7  S   UNK N   1      33.399  17.752   7.257  0.00  0.00    -0.085 SA
HETATM    8  C   UNK N   1      34.384  16.434   7.437  0.00  0.00     0.077 A 
BRANCH   5   9
HETATM    9  C   UNK N   1      31.042  18.148   8.772  0.00  0.00     0.335 C 
BRANCH   9  10
HETATM   10  N   UNK N   1      29.818  17.366   8.628  0.00  0.00     0.086 N 
HETATM   11  C   UNK N   1      28.763  17.979   9.420  0.00  0.00     0.309 C 
HETATM   12  C   UNK N   1      29.407  17.490   7.241  0.00  0.00     0.309 C 
ENDBRANCH   9  10
ENDBRANCH   5   9
ENDBRANCH   2   3
ENDBRANCH   1   2
BRANCH   1  13
HETATM   13  C   UNK N   1      36.356  14.330  10.637  0.00  0.00     0.093 C 
BRANCH  13  14
HETATM   14  C   UNK N   1      36.872  13.413  11.720  0.00  0.00     0.131 C 
BRANCH  14  15
HETATM   15  N   UNK N   1      36.941  14.132  12.963  0.00  0.00    -0.374 N 
HETATM   16  H   UNK N   1      37.422  14.991  12.969  0.00  0.00     0.161 HD
BRANCH  15  17
HETATM   17  C   UNK N   1      36.360  13.689  14.188  0.00  0.00     0.118 C 
HETATM   18  C   UNK N   1      35.272  12.903  14.103  0.00  0.00     0.215 C 
BRANCH  18  19
HETATM   19  N   UNK N   1      34.537  12.398  15.215  0.00  0.00    -0.124 N 
HETATM   20  O   UNK N   1      34.396  11.225  15.386  0.00  0.00    -0.532 OA
HETATM   21  O   UNK N   1      34.070  13.242  16.108  0.00  0.00    -0.532 OA
ENDBRANCH  18  19
BRANCH  17  22
HETATM   22  N   UNK N   1      36.876  14.068  15.466  0.00  0.00    -0.380 N 
HETATM   23  C   UNK N   1      37.326  15.391  15.812  0.00  0.00     0.147 C 
HETATM   24  H   UNK N   1      36.925  13.373  16.162  0.00  0.00     0.160 HD
ENDBRANCH  17  22
ENDBRANCH  15  17
ENDBRANCH  14  15
ENDBRANCH  13  14
ENDBRANCH   1  13
TORSDOF 10
ENDMDL
MODEL 4
REMARK VINA RESULT:      -4.7      5.583      6.848
REMARK  10 active torsions:
REMARK  status: ('A' for Active; 'I' for Inactive)
REMARK    1  A    between atoms: C_1  and  S_2 
REMARK    2  A    between atoms: C_1  and  C_7 
REMARK    3  A    between atoms: S_2  and  C_3 
REMARK    4  A    between atoms: C_3  and  C_4 
REMARK    5  A    between atoms: C_4  and  N_5 
REMARK    6  A    between atoms: N_5  and  C_6 
REMARK    7  A    between atoms: C_6  and  N_21 
REMARK    8  A    between atoms: C_10  and  C_13 
REMARK    9  A    between atoms: C_13  and  N_15 
REMARK   10  A    between atoms: C_14  and  N_18 
ROOT
HETATM    1  S   UNK N   1      28.305  17.515   6.637  0.00  0.00    -0.161 SA
ENDROOT
BRANCH   1   2
HETATM    2  C   UNK N   1      28.322  18.904   5.469  0.00  0.00     0.131 C 
BRANCH   2   3
HETATM    3  C   UNK N   1      26.965  19.111   4.896  0.00  0.00     0.025 A 
HETATM    4  N   UNK N   1      25.847  18.466   5.388  0.00  0.00    -0.355 N 
HETATM    5  C   UNK N   1      24.723  18.816   4.718  0.00  0.00     0.079 A 
ATOM      6  HN  UNK N   1      25.866  17.805   6.164  1.00  0.00     0.166 HD
HETATM    7  S   UNK N   1      25.117  19.900   3.535  0.00  0.00    -0.085 SA
HETATM    8  C   UNK N   1      26.746  19.981   3.815  0.00  0.00     0.077 A 
BRANCH   5   9
HETATM    9  C   UNK N   1      23.364  18.253   5.025  0.00  0.00     0.335 C 
BRANCH   9  10
HETATM   10  N   UNK N   1      22.478  18.247   3.864  0.00  0.00     0.086 N 
HETATM   11  C   UNK N   1      22.028  16.886   3.614  0.00  0.00     0.309 C 
HETATM   12  C   UNK N   1      21.298  19.002   4.240  0.00  0.00     0.309 C 
ENDBRANCH   9  10
ENDBRANCH   5   9
ENDBRANCH   2   3
ENDBRANCH   1   2
BRANCH   1  13
HETATM   13  C   UNK N   1      28.446  18.624   8.061  0.00  0.00     0.093 C 
BRANCH  13  14
HETATM   14  C   UNK N   1      29.494  18.089   9.009  0.00  0.00     0.131 C 
BRANCH  14  15
HETATM   15  N   UNK N   1      30.355  17.180   8.303  0.00  0.00    -0.374 N 
HETATM   16  H   UNK N   1      29.939  16.550   7.673  0.00  0.00     0.161 HD
BRANCH  15  17
HETATM   17  C   UNK N   1      31.773  17.129   8.453  0.00  0.00     0.118 C 
HETATM   18  C   UNK N   1      32.501  17.975   7.704  0.00  0.00     0.215 C 
BRANCH  18  19
HETATM   19  N   UNK N   1      33.926  18.041   7.692  0.00  0.00    -0.124 N 
HETATM   20  O   UNK N   1      34.543  18.339   8.669  0.00  0.00    -0.532 OA
HETATM   21  O   UNK N   1      34.570  17.694   6.600  0.00  0.00    -0.532 OA
ENDBRANCH  18  19
BRANCH  17  22
HETATM   22  N   UNK N   1      32.421  16.209   9.336  0.00  0.00    -0.380 N 
HETATM   23  C   UNK N   1      32.738  14.843   9.012  0.00  0.00     0.147 C 
HETATM   24  H   UNK N   1      32.669  16.535  10.231  0.00  0.00     0.160 HD
ENDBRANCH  17  22
ENDBRANCH  15  17
ENDBRANCH  14  15
ENDBRANCH  13  14
ENDBRANCH   1  13
TORSDOF 10
ENDMDL
MODEL 5
REMARK VINA RESULT:      -4.5      9.951     11.962
REMARK  10 active torsions:
REMARK  status: ('A' for Active; 'I' for Inactive)
REMARK    1  A    between atoms: C_1  and  S_2 
REMARK    2  A    between atoms: C_1  and  C_7 
REMARK    3  A    between atoms: S_2  and  C_3 
REMARK    4  A    between atoms: C_3  and  C_4 
REMARK    5  A    between atoms: C_4  and  N_5 
REMARK    6  A    between atoms: N_5  and  C_6 
REMARK    7  A    between atoms: C_6  and  N_21 
REMARK    8  A    between atoms: C_10  and  C_13 
REMARK    9  A    between atoms: C_13  and  N_15 
REMARK   10  A    between atoms: C_14  and  N_18 
ROOT
HETATM    1  S   UNK N   1      33.383  15.570   9.102  0.00  0.00    -0.161 SA
ENDROOT
BRANCH   1   2
HETATM    2  C   UNK N   1      33.059  17.267   8.544  0.00  0.00     0.131 C 
BRANCH   2   3
HETATM    3  C   UNK N   1      32.282  17.251   7.276  0.00  0.00     0.025 A 
HETATM    4  N   UNK N   1      30.902  17.274   7.252  0.00  0.00    -0.355 N 
HETATM    5  C   UNK N   1      30.416  17.263   5.987  0.00  0.00     0.079 A 
ATOM      6  HN  UNK N   1      30.318  17.297   8.088  1.00  0.00     0.166 HD
HETATM    7  S   UNK N   1      31.681  17.219   4.925  0.00  0.00    -0.085 SA
HETATM    8  C   UNK N   1      32.918  17.211   6.023  0.00  0.00     0.077 A 
BRANCH   5   9
HETATM    9  C   UNK N   1      28.949  17.261   5.662  0.00  0.00     0.335 C 
BRANCH   9  10
HETATM   10  N   UNK N   1      28.491  18.532   5.107  0.00  0.00     0.086 N 
HETATM   11  C   UNK N   1      27.555  18.271   4.024  0.00  0.00     0.309 C 
HETATM   12  C   UNK N   1      27.728  19.189   6.153  0.00  0.00     0.309 C 
ENDBRANCH   9  10
ENDBRANCH   5   9
ENDBRANCH   2   3
ENDBRANCH   1   2
BRANCH   1  13
HETATM   13  C   UNK N   1      35.157  15.895   9.274  0.00  0.00     0.093 C 
BRANCH  13  14
HETATM   14  C   UNK N   1      35.438  16.403  10.668  0.00  0.00     0.131 C 
BRANCH  14  15
HETATM   15  N   UNK N   1      36.532  15.662  11.234  0.00  0.00    -0.374 N 
HETATM   16  H   UNK N   1      37.420  16.087  11.237  0.00  0.00     0.161 HD
BRANCH  15  17
HETATM   17  C   UNK N   1      36.422  14.354  11.792  0.00  0.00     0.118 C 
HETATM   18  C   UNK N   1      35.247  14.025  12.358  0.00  0.00     0.215 C 
BRANCH  18  19
HETATM   19  N   UNK N   1      34.965  12.782  12.997  0.00  0.00    -0.124 N 
HETATM   20  O   UNK N   1      34.421  12.738  14.058  0.00  0.00    -0.532 OA
HETATM   21  O   UNK N   1      35.247  11.663  12.368  0.00  0.00    -0.532 OA
ENDBRANCH  18  19
BRANCH  17  22
HETATM   22  N   UNK N   1      37.505  13.421  11.787  0.00  0.00    -0.380 N 
HETATM   23  C   UNK N   1      38.264  13.048  10.622  0.00  0.00     0.147 C 
HETATM   24  H   UNK N   1      37.750  13.003  12.644  0.00  0.00     0.160 HD
ENDBRANCH  17  22
ENDBRANCH  15  17
ENDBRANCH  14  15
ENDBRANCH  13  14
ENDBRANCH   1  13
TORSDOF 10
ENDMDL
MODEL 6
REMARK VINA RESULT:      -4.5      5.928      7.097
REMARK  10 active torsions:
REMARK  status: ('A' for Active; 'I' for Inactive)
REMARK    1  A    between atoms: C_1  and  S_2 
REMARK    2  A    between atoms: C_1  and  C_7 
REMARK    3  A    between atoms: S_2  and  C_3 
REMARK    4  A    between atoms: C_3  and  C_4 
REMARK    5  A    between atoms: C_4  and  N_5 
REMARK    6  A    between atoms: N_5  and  C_6 
REMARK    7  A    between atoms: C_6  and  N_21 
REMARK    8  A    between atoms: C_10  and  C_13 
REMARK    9  A    between atoms: C_13  and  N_15 
REMARK   10  A    between atoms: C_14  and  N_18 
ROOT
HETATM    1  S   UNK N   1      29.290  17.627   5.049  0.00  0.00    -0.161 SA
ENDROOT
BRANCH   1   2
HETATM    2  C   UNK N   1      27.916  18.253   6.056  0.00  0.00     0.131 C 
BRANCH   2   3
HETATM    3  C   UNK N   1      26.755  18.589   5.189  0.00  0.00     0.025 A 
HETATM    4  N   UNK N   1      25.544  17.934   5.285  0.00  0.00    -0.355 N 
HETATM    5  C   UNK N   1      24.635  18.415   4.403  0.00  0.00     0.079 A 
ATOM      6  HN  UNK N   1      25.356  17.177   5.942  1.00  0.00     0.166 HD
HETATM    7  S   UNK N   1      25.330  19.627   3.520  0.00  0.00    -0.085 SA
HETATM    8  C   UNK N   1      26.831  19.601   4.216  0.00  0.00     0.077 A 
BRANCH   5   9
HETATM    9  C   UNK N   1      23.239  17.875   4.271  0.00  0.00     0.335 C 
BRANCH   9  10
HETATM   10  N   UNK N   1      22.242  18.715   4.928  0.00  0.00     0.086 N 
HETATM   11  C   UNK N   1      21.104  18.889   4.039  0.00  0.00     0.309 C 
HETATM   12  C   UNK N   1      21.753  17.962   6.069  0.00  0.00     0.309 C 
ENDBRANCH   9  10
ENDBRANCH   5   9
ENDBRANCH   2   3
ENDBRANCH   1   2
BRANCH   1  13
HETATM   13  C   UNK N   1      29.358  16.078   5.986  0.00  0.00     0.093 C 
BRANCH  13  14
HETATM   14  C   UNK N   1      30.771  15.845   6.464  0.00  0.00     0.131 C 
BRANCH  14  15
HETATM   15  N   UNK N   1      31.360  17.100   6.842  0.00  0.00    -0.374 N 
HETATM   16  H   UNK N   1      30.756  17.860   7.003  0.00  0.00     0.161 HD
BRANCH  15  17
HETATM   17  C   UNK N   1      32.760  17.322   7.000  0.00  0.00     0.118 C 
HETATM   18  C   UNK N   1      33.174  17.822   8.178  0.00  0.00     0.215 C 
BRANCH  18  19
HETATM   19  N   UNK N   1      34.525  18.142   8.503  0.00  0.00    -0.124 N 
HETATM   20  O   UNK N   1      35.119  18.997   7.919  0.00  0.00    -0.532 OA
HETATM   21  O   UNK N   1      35.100  17.531   9.515  0.00  0.00    -0.532 OA
ENDBRANCH  18  19
BRANCH  17  22
HETATM   22  N   UNK N   1      33.704  17.057   5.959  0.00  0.00    -0.380 N 
HETATM   23  C   UNK N   1      34.533  15.883   5.879  0.00  0.00     0.147 C 
HETATM   24  H   UNK N   1      33.792  17.727   5.243  0.00  0.00     0.160 HD
ENDBRANCH  17  22
ENDBRANCH  15  17
ENDBRANCH  14  15
ENDBRANCH  13  14
ENDBRANCH   1  13
TORSDOF 10
ENDMDL
MODEL 7
REMARK VINA RESULT:      -4.4      5.636      6.694
REMARK  10 active torsions:
REMARK  status: ('A' for Active; 'I' for Inactive)
REMARK    1  A    between atoms: C_1  and  S_2 
REMARK    2  A    between atoms: C_1  and  C_7 
REMARK    3  A    between atoms: S_2  and  C_3 
REMARK    4  A    between atoms: C_3  and  C_4 
REMARK    5  A    between atoms: C_4  and  N_5 
REMARK    6  A    between atoms: N_5  and  C_6 
REMARK    7  A    between atoms: C_6  and  N_21 
REMARK    8  A    between atoms: C_10  and  C_13 
REMARK    9  A    between atoms: C_13  and  N_15 
REMARK   10  A    between atoms: C_14  and  N_18 
ROOT
HETATM    1  S   UNK N   1      28.033  16.669   5.001  0.00  0.00    -0.161 SA
ENDROOT
BRANCH   1   2
HETATM    2  C   UNK N   1      27.255  18.309   4.958  0.00  0.00     0.131 C 
BRANCH   2   3
HETATM    3  C   UNK N   1      25.778  18.174   4.838  0.00  0.00     0.025 A 
HETATM    4  N   UNK N   1      25.063  17.221   5.537  0.00  0.00    -0.355 N 
HETATM    5  C   UNK N   1      23.734  17.293   5.277  0.00  0.00     0.079 A 
ATOM      6  HN  UNK N   1      25.484  16.545   6.172  1.00  0.00     0.166 HD
HETATM    7  S   UNK N   1      23.463  18.513   4.196  0.00  0.00    -0.085 SA
HETATM    8  C   UNK N   1      25.027  19.015   4.000  0.00  0.00     0.077 A 
BRANCH   5   9
HETATM    9  C   UNK N   1      22.719  16.366   5.881  0.00  0.00     0.335 C 
BRANCH   9  10
HETATM   10  N   UNK N   1      21.348  16.838   5.710  0.00  0.00     0.086 N 
HETATM   11  C   UNK N   1      20.520  15.738   5.239  0.00  0.00     0.309 C 
HETATM   12  C   UNK N   1      20.858  17.175   7.034  0.00  0.00     0.309 C 
ENDBRANCH   9  10
ENDBRANCH   5   9
ENDBRANCH   2   3
ENDBRANCH   1   2
BRANCH   1  13
HETATM   13  C   UNK N   1      29.688  17.387   5.163  0.00  0.00     0.093 C 
BRANCH  13  14
HETATM   14  C   UNK N   1      30.485  16.582   6.161  0.00  0.00     0.131 C 
BRANCH  14  15
HETATM   15  N   UNK N   1      31.813  17.122   6.259  0.00  0.00    -0.374 N 
HETATM   16  H   UNK N   1      32.325  17.235   5.425  0.00  0.00     0.161 HD
BRANCH  15  17
HETATM   17  C   UNK N   1      32.443  17.506   7.480  0.00  0.00     0.118 C 
HETATM   18  C   UNK N   1      33.755  17.797   7.430  0.00  0.00     0.215 C 
BRANCH  18  19
HETATM   19  N   UNK N   1      34.556  18.161   8.552  0.00  0.00    -0.124 N 
HETATM   20  O   UNK N   1      34.627  17.465   9.518  0.00  0.00    -0.532 OA
HETATM   21  O   UNK N   1      35.288  19.251   8.485  0.00  0.00    -0.532 OA
ENDBRANCH  18  19
BRANCH  17  22
HETATM   22  N   UNK N   1      31.739  17.564   8.723  0.00  0.00    -0.380 N 
HETATM   23  C   UNK N   1      30.684  18.495   9.029  0.00  0.00     0.147 C 
HETATM   24  H   UNK N   1      31.995  16.919   9.422  0.00  0.00     0.160 HD
ENDBRANCH  17  22
ENDBRANCH  15  17
ENDBRANCH  14  15
ENDBRANCH  13  14
ENDBRANCH   1  13
TORSDOF 10
ENDMDL
MODEL 8
REMARK VINA RESULT:      -4.4     12.847     15.388
REMARK  10 active torsions:
REMARK  status: ('A' for Active; 'I' for Inactive)
REMARK    1  A    between atoms: C_1  and  S_2 
REMARK    2  A    between atoms: C_1  and  C_7 
REMARK    3  A    between atoms: S_2  and  C_3 
REMARK    4  A    between atoms: C_3  and  C_4 
REMARK    5  A    between atoms: C_4  and  N_5 
REMARK    6  A    between atoms: N_5  and  C_6 
REMARK    7  A    between atoms: C_6  and  N_21 
REMARK    8  A    between atoms: C_10  and  C_13 
REMARK    9  A    between atoms: C_13  and  N_15 
REMARK   10  A    between atoms: C_14  and  N_18 
ROOT
HETATM    1  S   UNK N   1      35.830  12.334  10.584  0.00  0.00    -0.161 SA
ENDROOT
BRANCH   1   2
HETATM    2  C   UNK N   1      36.918  11.774  11.924  0.00  0.00     0.131 C 
BRANCH   2   3
HETATM    3  C   UNK N   1      36.125  11.518  13.157  0.00  0.00     0.025 A 
HETATM    4  N   UNK N   1      36.715  11.208  14.366  0.00  0.00    -0.355 N 
HETATM    5  C   UNK N   1      35.798  11.028  15.347  0.00  0.00     0.079 A 
ATOM      6  HN  UNK N   1      37.722  11.125  14.504  1.00  0.00     0.166 HD
HETATM    7  S   UNK N   1      34.286  11.244  14.716  0.00  0.00    -0.085 SA
HETATM    8  C   UNK N   1      34.721  11.580  13.155  0.00  0.00     0.077 A 
BRANCH   5   9
HETATM    9  C   UNK N   1      36.154  10.660  16.759  0.00  0.00     0.335 C 
BRANCH   9  10
HETATM   10  N   UNK N   1      35.012  10.730  17.668  0.00  0.00     0.086 N 
HETATM   11  C   UNK N   1      34.932   9.494  18.430  0.00  0.00     0.309 C 
HETATM   12  C   UNK N   1      35.309  11.779  18.626  0.00  0.00     0.309 C 
ENDBRANCH   9  10
ENDBRANCH   5   9
ENDBRANCH   2   3
ENDBRANCH   1   2
BRANCH   1  13
HETATM   13  C   UNK N   1      36.281  14.068  10.853  0.00  0.00     0.093 C 
BRANCH  13  14
HETATM   14  C   UNK N   1      35.029  14.879  11.084  0.00  0.00     0.131 C 
BRANCH  14  15
HETATM   15  N   UNK N   1      34.309  15.008   9.847  0.00  0.00    -0.374 N 
HETATM   16  H   UNK N   1      33.541  14.410   9.699  0.00  0.00     0.161 HD
BRANCH  15  17
HETATM   17  C   UNK N   1      34.630  15.942   8.818  0.00  0.00     0.118 C 
HETATM   18  C   UNK N   1      34.487  17.247   9.106  0.00  0.00     0.215 C 
BRANCH  18  19
HETATM   19  N   UNK N   1      34.723  18.319   8.195  0.00  0.00    -0.124 N 
HETATM   20  O   UNK N   1      35.297  19.308   8.534  0.00  0.00    -0.532 OA
HETATM   21  O   UNK N   1      34.363  18.178   6.939  0.00  0.00    -0.532 OA
ENDBRANCH  18  19
BRANCH  17  22
HETATM   22  N   UNK N   1      35.063  15.535   7.517  0.00  0.00    -0.380 N 
HETATM   23  C   UNK N   1      35.446  14.194   7.159  0.00  0.00     0.147 C 
HETATM   24  H   UNK N   1      35.100  16.224   6.814  0.00  0.00     0.160 HD
ENDBRANCH  17  22
ENDBRANCH  15  17
ENDBRANCH  14  15
ENDBRANCH  13  14
ENDBRANCH   1  13
TORSDOF 10
ENDMDL
MODEL 9
REMARK VINA RESULT:      -4.4      8.756     11.911
REMARK  10 active torsions:
REMARK  status: ('A' for Active; 'I' for Inactive)
REMARK    1  A    between atoms: C_1  and  S_2 
REMARK    2  A    between atoms: C_1  and  C_7 
REMARK    3  A    between atoms: S_2  and  C_3 
REMARK    4  A    between atoms: C_3  and  C_4 
REMARK    5  A    between atoms: C_4  and  N_5 
REMARK    6  A    between atoms: N_5  and  C_6 
REMARK    7  A    between atoms: C_6  and  N_21 
REMARK    8  A    between atoms: C_10  and  C_13 
REMARK    9  A    between atoms: C_13  and  N_15 
REMARK   10  A    between atoms: C_14  and  N_18 
ROOT
HETATM    1  S   UNK N   1      33.011  15.283   6.697  0.00  0.00    -0.161 SA
ENDROOT
BRANCH   1   2
HETATM    2  C   UNK N   1      34.792  15.487   6.986  0.00  0.00     0.131 C 
BRANCH   2   3
HETATM    3  C   UNK N   1      35.064  15.632   8.441  0.00  0.00     0.025 A 
HETATM    4  N   UNK N   1      35.620  14.619   9.195  0.00  0.00    -0.355 N 
HETATM    5  C   UNK N   1      35.784  14.981  10.491  0.00  0.00     0.079 A 
ATOM      6  HN  UNK N   1      35.878  13.706   8.822  1.00  0.00     0.166 HD
HETATM    7  S   UNK N   1      35.239  16.529  10.689  0.00  0.00    -0.085 SA
HETATM    8  C   UNK N   1      34.765  16.820   9.131  0.00  0.00     0.077 A 
BRANCH   5   9
HETATM    9  C   UNK N   1      36.347  14.070  11.543  0.00  0.00     0.335 C 
BRANCH   9  10
HETATM   10  N   UNK N   1      35.498  13.979  12.728  0.00  0.00     0.086 N 
HETATM   11  C   UNK N   1      35.014  12.614  12.865  0.00  0.00     0.309 C 
HETATM   12  C   UNK N   1      36.357  14.220  13.873  0.00  0.00     0.309 C 
ENDBRANCH   9  10
ENDBRANCH   5   9
ENDBRANCH   2   3
ENDBRANCH   1   2
BRANCH   1  13
HETATM   13  C   UNK N   1      32.924  16.818   5.740  0.00  0.00     0.093 C 
BRANCH  13  14
HETATM   14  C   UNK N   1      31.477  17.154   5.468  0.00  0.00     0.131 C 
BRANCH  14  15
HETATM   15  N   UNK N   1      30.642  16.476   6.421  0.00  0.00    -0.374 N 
HETATM   16  H   UNK N   1      30.765  15.505   6.530  0.00  0.00     0.161 HD
BRANCH  15  17
HETATM   17  C   UNK N   1      29.647  17.111   7.221  0.00  0.00     0.118 C 
HETATM   18  C   UNK N   1      29.935  17.308   8.520  0.00  0.00     0.215 C 
BRANCH  18  19
HETATM   19  N   UNK N   1      29.053  17.891   9.477  0.00  0.00    -0.124 N 
HETATM   20  O   UNK N   1      27.936  17.494   9.614  0.00  0.00    -0.532 OA
HETATM   21  O   UNK N   1      29.507  18.834  10.271  0.00  0.00    -0.532 OA
ENDBRANCH  18  19
BRANCH  17  22
HETATM   22  N   UNK N   1      28.377  17.509   6.698  0.00  0.00    -0.380 N 
HETATM   23  C   UNK N   1      28.081  18.809   6.155  0.00  0.00     0.147 C 
HETATM   24  H   UNK N   1      27.651  16.843   6.710  0.00  0.00     0.160 HD
ENDBRANCH  17  22
ENDBRANCH  15  17
ENDBRANCH  14  15
ENDBRANCH  13  14
ENDBRANCH   1  13
TORSDOF 10
ENDMDL
