MODEL 1
REMARK VINA RESULT:      -4.0      0.000      0.000
REMARK  5 active torsions:
REMARK  status: ('A' for Active; 'I' for Inactive)
REMARK    1  A    between atoms: C_2  and  C_1 
REMARK    2  A    between atoms: O_4  and  C_1 
REMARK    3  A    between atoms: C_3  and  C_2 
REMARK    4  A    between atoms: C_2  and  N_6 
REMARK    5  A    between atoms: O_7  and  C_3 
ROOT
HETATM    1  C   UNK N   1      34.124  17.251   9.072  0.00  0.00     0.197 C 
ENDROOT
BRANCH   1   2
HETATM    2  C   UNK N   1      34.623  18.299   8.104  0.00  0.00     0.165 C 
HETATM    3  O   UNK N   1      35.270  19.255   8.486  0.00  0.00    -0.648 OA
BRANCH   2   4
HETATM    4  O   UNK N   1      34.340  18.167   6.789  0.00  0.00    -0.775 OA
HETATM    5  H   UNK N   1      34.758  17.497   6.285  0.00  0.00     0.167 HD
ENDBRANCH   2   4
ENDBRANCH   1   2
BRANCH   1   6
HETATM    6  C   UNK N   1      34.893  16.477  10.150  0.00  0.00     0.199 C 
BRANCH   6   7
HETATM    7  O   UNK N   1      36.003  17.163  10.638  0.00  0.00    -0.398 OA
HETATM    8  H   UNK N   1      35.888  17.867  11.295  0.00  0.00     0.209 HD
ENDBRANCH   6   7
ENDBRANCH   1   6
BRANCH   1   9
HETATM    9  N   UNK N   1      32.716  16.926   8.974  0.00  0.00    -0.416 N 
HETATM   10  H   UNK N   1      32.417  16.116   8.431  0.00  0.00     0.150 HD
HETATM   11  H   UNK N   1      32.024  17.506   9.449  0.00  0.00     0.150 HD
ENDBRANCH   1   9
TORSDOF 5
ENDMDL
MODEL 2
REMARK VINA RESULT:      -3.9     15.228     15.924
REMARK  5 active torsions:
REMARK  status: ('A' for Active; 'I' for Inactive)
REMARK    1  A    between atoms: C_2  and  C_1 
REMARK    2  A    between atoms: O_4  and  C_1 
REMARK    3  A    between atoms: C_3  and  C_2 
REMARK    4  A    between atoms: C_2  and  N_6 
REMARK    5  A    between atoms: O_7  and  C_3 
ROOT
HETATM    1  C   UNK N   1      20.649  19.934   1.567  0.00  0.00     0.197 C 
ENDROOT
BRANCH   1   2
HETATM    2  C   UNK N   1      20.992  20.709   2.819  0.00  0.00     0.165 C 
HETATM    3  O   UNK N   1      20.423  20.492   3.871  0.00  0.00    -0.648 OA
BRANCH   2   4
HETATM    4  O   UNK N   1      21.950  21.660   2.762  0.00  0.00    -0.775 OA
HETATM    5  H   UNK N   1      21.785  22.466   2.313  0.00  0.00     0.167 HD
ENDBRANCH   2   4
ENDBRANCH   1   2
BRANCH   1   6
HETATM    6  C   UNK N   1      20.424  18.428   1.384  0.00  0.00     0.199 C 
BRANCH   6   7
HETATM    7  O   UNK N   1      20.363  18.036   0.048  0.00  0.00    -0.398 OA
HETATM    8  H   UNK N   1      20.031  18.652  -0.622  0.00  0.00     0.209 HD
ENDBRANCH   6   7
ENDBRANCH   1   6
BRANCH   1   9
HETATM    9  N   UNK N   1      20.511  20.722   0.359  0.00  0.00    -0.416 N 
HETATM   10  H   UNK N   1      21.306  21.252   0.002  0.00  0.00     0.150 HD
HETATM   11  H   UNK N   1      19.618  20.747  -0.134  0.00  0.00     0.150 HD
ENDBRANCH   1   9
TORSDOF 5
ENDMDL
MODEL 3
REMARK VINA RESULT:      -3.9     15.549     16.059
REMARK  5 active torsions:
REMARK  status: ('A' for Active; 'I' for Inactive)
REMARK    1  A    between atoms: C_2  and  C_1 
REMARK    2  A    between atoms: O_4  and  C_1 
REMARK    3  A    between atoms: C_3  and  C_2 
REMARK    4  A    between atoms: C_2  and  N_6 
REMARK    5  A    between atoms: O_7  and  C_3 
ROOT
HETATM    1  C   UNK N   1      20.494  19.045   1.931  0.00  0.00     0.197 C 
ENDROOT
BRANCH   1   2
HETATM    2  C   UNK N   1      20.880  20.342   1.258  0.00  0.00     0.165 C 
HETATM    3  O   UNK N   1      21.417  21.239   1.877  0.00  0.00    -0.648 OA
BRANCH   2   4
HETATM    4  O   UNK N   1      20.620  20.502  -0.059  0.00  0.00    -0.775 OA
HETATM    5  H   UNK N   1      19.902  20.047  -0.454  0.00  0.00     0.167 HD
ENDBRANCH   2   4
ENDBRANCH   1   2
BRANCH   1   6
HETATM    6  C   UNK N   1      20.141  17.690   1.304  0.00  0.00     0.199 C 
BRANCH   6   7
HETATM    7  O   UNK N   1      20.311  17.659  -0.079  0.00  0.00    -0.398 OA
HETATM    8  H   UNK N   1      21.196  17.534  -0.455  0.00  0.00     0.209 HD
ENDBRANCH   6   7
ENDBRANCH   1   6
BRANCH   1   9
HETATM    9  N   UNK N   1      20.450  19.078   3.378  0.00  0.00    -0.416 N 
HETATM   10  H   UNK N   1      20.515  19.968   3.870  0.00  0.00     0.150 HD
HETATM   11  H   UNK N   1      20.353  18.209   3.905  0.00  0.00     0.150 HD
ENDBRANCH   1   9
TORSDOF 5
ENDMDL
MODEL 4
REMARK VINA RESULT:      -3.9     12.181     12.500
REMARK  5 active torsions:
REMARK  status: ('A' for Active; 'I' for Inactive)
REMARK    1  A    between atoms: C_2  and  C_1 
REMARK    2  A    between atoms: O_4  and  C_1 
REMARK    3  A    between atoms: C_3  and  C_2 
REMARK    4  A    between atoms: C_2  and  N_6 
REMARK    5  A    between atoms: O_7  and  C_3 
ROOT
HETATM    1  C   UNK N   1      23.211  11.911  11.618  0.00  0.00     0.197 C 
ENDROOT
BRANCH   1   2
HETATM    2  C   UNK N   1      24.436  12.223  10.790  0.00  0.00     0.165 C 
HETATM    3  O   UNK N   1      24.497  11.920   9.615  0.00  0.00    -0.648 OA
BRANCH   2   4
HETATM    4  O   UNK N   1      25.481  12.851  11.373  0.00  0.00    -0.775 OA
HETATM    5  H   UNK N   1      26.239  13.068  10.866  0.00  0.00     0.167 HD
ENDBRANCH   2   4
ENDBRANCH   1   2
BRANCH   1   6
HETATM    6  C   UNK N   1      23.067  11.800  13.142  0.00  0.00     0.199 C 
BRANCH   6   7
HETATM    7  O   UNK N   1      23.961  12.609  13.841  0.00  0.00    -0.398 OA
HETATM    8  H   UNK N   1      23.741  13.537  14.015  0.00  0.00     0.209 HD
ENDBRANCH   6   7
ENDBRANCH   1   6
BRANCH   1   9
HETATM    9  N   UNK N   1      21.990  11.681  10.872  0.00  0.00    -0.416 N 
HETATM   10  H   UNK N   1      22.035  11.308   9.924  0.00  0.00     0.150 HD
HETATM   11  H   UNK N   1      21.086  11.893  11.295  0.00  0.00     0.150 HD
ENDBRANCH   1   9
TORSDOF 5
ENDMDL
MODEL 5
REMARK VINA RESULT:      -3.8     15.260     15.735
REMARK  5 active torsions:
REMARK  status: ('A' for Active; 'I' for Inactive)
REMARK    1  A    between atoms: C_2  and  C_1 
REMARK    2  A    between atoms: O_4  and  C_1 
REMARK    3  A    between atoms: C_3  and  C_2 
REMARK    4  A    between atoms: C_2  and  N_6 
REMARK    5  A    between atoms: O_7  and  C_3 
ROOT
HETATM    1  C   UNK N   1      20.582  19.342   1.895  0.00  0.00     0.197 C 
ENDROOT
BRANCH   1   2
HETATM    2  C   UNK N   1      20.919  20.646   1.210  0.00  0.00     0.165 C 
HETATM    3  O   UNK N   1      21.081  20.704   0.006  0.00  0.00    -0.648 OA
BRANCH   2   4
HETATM    4  O   UNK N   1      21.041  21.768   1.954  0.00  0.00    -0.775 OA
HETATM    5  H   UNK N   1      20.290  22.302   2.124  0.00  0.00     0.167 HD
ENDBRANCH   2   4
ENDBRANCH   1   2
BRANCH   1   6
HETATM    6  C   UNK N   1      20.662  18.973   3.382  0.00  0.00     0.199 C 
BRANCH   6   7
HETATM    7  O   UNK N   1      20.626  20.080   4.229  0.00  0.00    -0.398 OA
HETATM    8  H   UNK N   1      20.215  20.905   3.930  0.00  0.00     0.209 HD
ENDBRANCH   6   7
ENDBRANCH   1   6
BRANCH   1   9
HETATM    9  N   UNK N   1      20.114  18.280   1.028  0.00  0.00    -0.416 N 
HETATM   10  H   UNK N   1      19.586  18.505   0.185  0.00  0.00     0.150 HD
HETATM   11  H   UNK N   1      20.313  17.307   1.260  0.00  0.00     0.150 HD
ENDBRANCH   1   9
TORSDOF 5
ENDMDL
MODEL 6
REMARK VINA RESULT:      -3.8      1.800      1.867
REMARK  5 active torsions:
REMARK  status: ('A' for Active; 'I' for Inactive)
REMARK    1  A    between atoms: C_2  and  C_1 
REMARK    2  A    between atoms: O_4  and  C_1 
REMARK    3  A    between atoms: C_3  and  C_2 
REMARK    4  A    between atoms: C_2  and  N_6 
REMARK    5  A    between atoms: O_7  and  C_3 
ROOT
HETATM    1  C   UNK N   1      34.348  17.149   9.152  0.00  0.00     0.197 C 
ENDROOT
BRANCH   1   2
HETATM    2  C   UNK N   1      34.714  18.252   8.185  0.00  0.00     0.165 C 
HETATM    3  O   UNK N   1      35.281  19.259   8.562  0.00  0.00    -0.648 OA
BRANCH   2   4
HETATM    4  O   UNK N   1      34.403  18.111   6.878  0.00  0.00    -0.775 OA
HETATM    5  H   UNK N   1      34.755  18.706   6.245  0.00  0.00     0.167 HD
ENDBRANCH   2   4
ENDBRANCH   1   2
BRANCH   1   6
HETATM    6  C   UNK N   1      33.394  15.963   8.961  0.00  0.00     0.199 C 
BRANCH   6   7
HETATM    7  O   UNK N   1      32.858  15.487  10.156  0.00  0.00    -0.398 OA
HETATM    8  H   UNK N   1      33.407  14.957  10.755  0.00  0.00     0.209 HD
ENDBRANCH   6   7
ENDBRANCH   1   6
BRANCH   1   9
HETATM    9  N   UNK N   1      34.988  17.214  10.450  0.00  0.00    -0.416 N 
HETATM   10  H   UNK N   1      34.724  16.555  11.182  0.00  0.00     0.150 HD
HETATM   11  H   UNK N   1      35.703  17.919  10.631  0.00  0.00     0.150 HD
ENDBRANCH   1   9
TORSDOF 5
ENDMDL
MODEL 7
REMARK VINA RESULT:      -3.7      0.876      2.869
REMARK  5 active torsions:
REMARK  status: ('A' for Active; 'I' for Inactive)
REMARK    1  A    between atoms: C_2  and  C_1 
REMARK    2  A    between atoms: O_4  and  C_1 
REMARK    3  A    between atoms: C_3  and  C_2 
REMARK    4  A    between atoms: C_2  and  N_6 
REMARK    5  A    between atoms: O_7  and  C_3 
ROOT
HETATM    1  C   UNK N   1      34.089  17.247   9.123  0.00  0.00     0.197 C 
ENDROOT
BRANCH   1   2
HETATM    2  C   UNK N   1      34.905  16.719  10.280  0.00  0.00     0.165 C 
HETATM    3  O   UNK N   1      35.996  17.185  10.547  0.00  0.00    -0.648 OA
BRANCH   2   4
HETATM    4  O   UNK N   1      34.409  15.710  11.029  0.00  0.00    -0.775 OA
HETATM    5  H   UNK N   1      34.689  14.829  10.875  0.00  0.00     0.167 HD
ENDBRANCH   2   4
ENDBRANCH   1   2
BRANCH   1   6
HETATM    6  C   UNK N   1      34.468  18.280   8.054  0.00  0.00     0.199 C 
BRANCH   6   7
HETATM    7  O   UNK N   1      35.334  19.267   8.522  0.00  0.00    -0.398 OA
HETATM    8  H   UNK N   1      36.290  19.109   8.528  0.00  0.00     0.209 HD
ENDBRANCH   6   7
ENDBRANCH   1   6
BRANCH   1   9
HETATM    9  N   UNK N   1      32.752  16.702   8.998  0.00  0.00    -0.416 N 
HETATM   10  H   UNK N   1      31.946  17.260   9.277  0.00  0.00     0.150 HD
HETATM   11  H   UNK N   1      32.618  15.760   8.629  0.00  0.00     0.150 HD
ENDBRANCH   1   9
TORSDOF 5
ENDMDL
MODEL 8
REMARK VINA RESULT:      -3.6      2.850      3.740
REMARK  5 active torsions:
REMARK  status: ('A' for Active; 'I' for Inactive)
REMARK    1  A    between atoms: C_2  and  C_1 
REMARK    2  A    between atoms: O_4  and  C_1 
REMARK    3  A    between atoms: C_3  and  C_2 
REMARK    4  A    between atoms: C_2  and  N_6 
REMARK    5  A    between atoms: O_7  and  C_3 
ROOT
HETATM    1  C   UNK N   1      35.008  15.059  11.514  0.00  0.00     0.197 C 
ENDROOT
BRANCH   1   2
HETATM    2  C   UNK N   1      35.774  16.228  10.938  0.00  0.00     0.165 C 
HETATM    3  O   UNK N   1      35.208  17.251  10.605  0.00  0.00    -0.648 OA
BRANCH   2   4
HETATM    4  O   UNK N   1      37.114  16.129  10.793  0.00  0.00    -0.775 OA
HETATM    5  H   UNK N   1      37.490  16.064   9.936  0.00  0.00     0.167 HD
ENDBRANCH   2   4
ENDBRANCH   1   2
BRANCH   1   6
HETATM    6  C   UNK N   1      35.460  14.004  12.532  0.00  0.00     0.199 C 
BRANCH   6   7
HETATM    7  O   UNK N   1      36.813  14.091  12.854  0.00  0.00    -0.398 OA
HETATM    8  H   UNK N   1      37.283  14.933  12.749  0.00  0.00     0.209 HD
ENDBRANCH   6   7
ENDBRANCH   1   6
BRANCH   1   9
HETATM    9  N   UNK N   1      33.647  14.907  11.041  0.00  0.00    -0.416 N 
HETATM   10  H   UNK N   1      32.865  15.110  11.663  0.00  0.00     0.150 HD
HETATM   11  H   UNK N   1      33.472  14.595  10.085  0.00  0.00     0.150 HD
ENDBRANCH   1   9
TORSDOF 5
ENDMDL
MODEL 9
REMARK VINA RESULT:      -3.6      3.360      5.056
REMARK  5 active torsions:
REMARK  status: ('A' for Active; 'I' for Inactive)
REMARK    1  A    between atoms: C_2  and  C_1 
REMARK    2  A    between atoms: O_4  and  C_1 
REMARK    3  A    between atoms: C_3  and  C_2 
REMARK    4  A    between atoms: C_2  and  N_6 
REMARK    5  A    between atoms: O_7  and  C_3 
ROOT
HETATM    1  C   UNK N   1      35.005  15.091  11.533  0.00  0.00     0.197 C 
ENDROOT
BRANCH   1   2
HETATM    2  C   UNK N   1      35.508  14.149  12.603  0.00  0.00     0.165 C 
HETATM    3  O   UNK N   1      34.741  13.467  13.254  0.00  0.00    -0.648 OA
BRANCH   2   4
HETATM    4  O   UNK N   1      36.836  14.068  12.835  0.00  0.00    -0.775 OA
HETATM    5  H   UNK N   1      37.311  14.826  13.116  0.00  0.00     0.167 HD
ENDBRANCH   2   4
ENDBRANCH   1   2
BRANCH   1   6
HETATM    6  C   UNK N   1      35.711  16.281  10.871  0.00  0.00     0.199 C 
BRANCH   6   7
HETATM    7  O   UNK N   1      37.096  16.135  10.808  0.00  0.00    -0.398 OA
HETATM    8  H   UNK N   1      37.565  16.319   9.979  0.00  0.00     0.209 HD
ENDBRANCH   6   7
ENDBRANCH   1   6
BRANCH   1   9
HETATM    9  N   UNK N   1      33.659  14.840  11.058  0.00  0.00    -0.416 N 
HETATM   10  H   UNK N   1      33.060  15.619  10.789  0.00  0.00     0.150 HD
HETATM   11  H   UNK N   1      33.312  13.883  10.993  0.00  0.00     0.150 HD
ENDBRANCH   1   9
TORSDOF 5
ENDMDL
