MODEL 1
REMARK VINA RESULT:      -6.2      0.000      0.000
REMARK  9 active torsions:
REMARK  status: ('A' for Active; 'I' for Inactive)
REMARK    1  A    between atoms: C_5  and  C_9 
REMARK    2  A    between atoms: C_8  and  C_9 
REMARK    3  A    between atoms: C_11  and  O_15 
REMARK    4  A    between atoms: C_14  and  C_24 
REMARK    5  A    between atoms: O_15  and  C_16 
REMARK    6  A    between atoms: C_16  and  C_17 
REMARK    7  A    between atoms: C_17  and  N_18 
REMARK    8  A    between atoms: N_18  and  C_19 
REMARK    9  A    between atoms: N_18  and  C_21 
ROOT
HETATM    1  C   UNK N   1      27.369  25.942  -5.492  0.00  0.00     0.007 C 
HETATM    2  C   UNK N   1      26.811  25.449  -6.669  0.00  0.00     0.056 C 
HETATM    3 Cl   UNK N   1      25.954  26.518  -7.806  0.00  0.00    -0.082 Cl
ENDROOT
BRANCH   1   4
HETATM    4  C   UNK N   1      28.281  25.093  -4.632  0.00  0.00    -0.023 A 
HETATM    5  C   UNK N   1      27.752  24.216  -3.668  0.00  0.00     0.015 A 
HETATM    6  C   UNK N   1      28.593  23.442  -2.862  0.00  0.00     0.037 A 
HETATM    7  C   UNK N   1      29.981  23.548  -2.981  0.00  0.00     0.068 A 
HETATM    8  C   UNK N   1      30.518  24.458  -3.903  0.00  0.00     0.037 A 
HETATM    9  C   UNK N   1      29.679  25.222  -4.713  0.00  0.00     0.015 A 
BRANCH   7  10
HETATM   10  O   UNK N   1      30.771  22.752  -2.214  0.00  0.00    -0.349 OA
BRANCH  10  11
HETATM   11  C   UNK N   1      31.835  21.990  -2.671  0.00  0.00     0.206 C 
BRANCH  11  12
HETATM   12  C   UNK N   1      31.433  20.961  -3.730  0.00  0.00     0.299 C 
BRANCH  12  13
HETATM   13  N   UNK N   1      32.195  21.130  -4.966  0.00  0.00     0.089 N 
BRANCH  13  14
HETATM   14  C   UNK N   1      33.350  22.021  -4.802  0.00  0.00     0.268 C 
HETATM   15  C   UNK N   1      33.404  23.145  -5.832  0.00  0.00     0.037 C 
ENDBRANCH  13  14
BRANCH  13  16
HETATM   16  C   UNK N   1      31.338  21.515  -6.096  0.00  0.00     0.268 C 
HETATM   17  C   UNK N   1      29.850  21.271  -5.852  0.00  0.00     0.037 C 
ENDBRANCH  13  16
ENDBRANCH  12  13
ENDBRANCH  11  12
ENDBRANCH  10  11
ENDBRANCH   7  10
ENDBRANCH   1   4
BRANCH   1  18
HETATM   18  C   UNK N   1      27.148  27.380  -5.040  0.00  0.00    -0.023 A 
HETATM   19  C   UNK N   1      27.858  28.432  -5.652  0.00  0.00     0.012 A 
HETATM   20  C   UNK N   1      27.675  29.760  -5.253  0.00  0.00     0.001 A 
HETATM   21  C   UNK N   1      26.783  30.063  -4.225  0.00  0.00     0.000 A 
HETATM   22  C   UNK N   1      26.077  29.039  -3.596  0.00  0.00     0.001 A 
HETATM   23  C   UNK N   1      26.260  27.714  -4.001  0.00  0.00     0.012 A 
ENDBRANCH   1  18
BRANCH   2  24
HETATM   24  C   UNK N   1      26.837  24.009  -7.109  0.00  0.00    -0.014 A 
HETATM   25  C   UNK N   1      25.838  23.092  -6.735  0.00  0.00     0.013 A 
HETATM   26  C   UNK N   1      25.848  21.782  -7.222  0.00  0.00     0.001 A 
HETATM   27  C   UNK N   1      26.845  21.374  -8.111  0.00  0.00     0.000 A 
HETATM   28  C   UNK N   1      27.823  22.281  -8.520  0.00  0.00     0.001 A 
HETATM   29  C   UNK N   1      27.809  23.591  -8.034  0.00  0.00     0.013 A 
ENDBRANCH   2  24
TORSDOF 9
ENDMDL
MODEL 2
REMARK VINA RESULT:      -6.0     25.513     29.423
REMARK  9 active torsions:
REMARK  status: ('A' for Active; 'I' for Inactive)
REMARK    1  A    between atoms: C_5  and  C_9 
REMARK    2  A    between atoms: C_8  and  C_9 
REMARK    3  A    between atoms: C_11  and  O_15 
REMARK    4  A    between atoms: C_14  and  C_24 
REMARK    5  A    between atoms: O_15  and  C_16 
REMARK    6  A    between atoms: C_16  and  C_17 
REMARK    7  A    between atoms: C_17  and  N_18 
REMARK    8  A    between atoms: N_18  and  C_19 
REMARK    9  A    between atoms: N_18  and  C_21 
ROOT
HETATM    1  C   UNK N   1      36.385  10.067  21.011  0.00  0.00     0.007 C 
HETATM    2  C   UNK N   1      35.441   9.306  21.697  0.00  0.00     0.056 C 
HETATM    3 Cl   UNK N   1      35.817   8.559  23.268  0.00  0.00    -0.082 Cl
ENDROOT
BRANCH   1   4
HETATM    4  C   UNK N   1      36.012  10.882  19.791  0.00  0.00    -0.023 A 
HETATM    5  C   UNK N   1      35.499  12.185  19.924  0.00  0.00     0.015 A 
HETATM    6  C   UNK N   1      35.139  12.934  18.800  0.00  0.00     0.037 A 
HETATM    7  C   UNK N   1      35.257  12.389  17.519  0.00  0.00     0.068 A 
HETATM    8  C   UNK N   1      35.718  11.072  17.379  0.00  0.00     0.037 A 
HETATM    9  C   UNK N   1      36.086  10.329  18.501  0.00  0.00     0.015 A 
BRANCH   7  10
HETATM   10  O   UNK N   1      34.940  13.156  16.444  0.00  0.00    -0.349 OA
BRANCH  10  11
HETATM   11  C   UNK N   1      35.773  13.423  15.368  0.00  0.00     0.206 C 
BRANCH  11  12
HETATM   12  C   UNK N   1      35.237  12.889  14.039  0.00  0.00     0.299 C 
BRANCH  12  13
HETATM   13  N   UNK N   1      36.015  11.747  13.561  0.00  0.00     0.089 N 
BRANCH  13  14
HETATM   14  C   UNK N   1      35.324  10.467  13.762  0.00  0.00     0.268 C 
HETATM   15  C   UNK N   1      33.849  10.621  14.121  0.00  0.00     0.037 C 
ENDBRANCH  13  14
BRANCH  13  16
HETATM   16  C   UNK N   1      37.382  11.743  14.101  0.00  0.00     0.268 C 
HETATM   17  C   UNK N   1      37.887  10.357  14.492  0.00  0.00     0.037 C 
ENDBRANCH  13  16
ENDBRANCH  12  13
ENDBRANCH  11  12
ENDBRANCH  10  11
ENDBRANCH   7  10
ENDBRANCH   1   4
BRANCH   1  18
HETATM   18  C   UNK N   1      37.828  10.174  21.488  0.00  0.00    -0.023 A 
HETATM   19  C   UNK N   1      38.813   9.313  20.965  0.00  0.00     0.012 A 
HETATM   20  C   UNK N   1      40.143   9.389  21.389  0.00  0.00     0.001 A 
HETATM   21  C   UNK N   1      40.516  10.325  22.354  0.00  0.00     0.000 A 
HETATM   22  C   UNK N   1      39.558  11.181  22.894  0.00  0.00     0.001 A 
HETATM   23  C   UNK N   1      38.231  11.104  22.465  0.00  0.00     0.012 A 
ENDBRANCH   1  18
BRANCH   2  24
HETATM   24  C   UNK N   1      34.046   9.010  21.214  0.00  0.00    -0.014 A 
HETATM   25  C   UNK N   1      32.934   9.774  21.615  0.00  0.00     0.013 A 
HETATM   26  C   UNK N   1      31.664   9.524  21.088  0.00  0.00     0.001 A 
HETATM   27  C   UNK N   1      31.488   8.519  20.134  0.00  0.00     0.000 A 
HETATM   28  C   UNK N   1      32.585   7.776  19.699  0.00  0.00     0.001 A 
HETATM   29  C   UNK N   1      33.855   8.030  20.224  0.00  0.00     0.013 A 
ENDBRANCH   2  24
TORSDOF 9
ENDMDL
MODEL 3
REMARK VINA RESULT:      -5.9     11.871     14.804
REMARK  9 active torsions:
REMARK  status: ('A' for Active; 'I' for Inactive)
REMARK    1  A    between atoms: C_5  and  C_9 
REMARK    2  A    between atoms: C_8  and  C_9 
REMARK    3  A    between atoms: C_11  and  O_15 
REMARK    4  A    between atoms: C_14  and  C_24 
REMARK    5  A    between atoms: O_15  and  C_16 
REMARK    6  A    between atoms: C_16  and  C_17 
REMARK    7  A    between atoms: C_17  and  N_18 
REMARK    8  A    between atoms: N_18  and  C_19 
REMARK    9  A    between atoms: N_18  and  C_21 
ROOT
HETATM    1  C   UNK N   1      30.108  17.285   6.087  0.00  0.00     0.007 C 
HETATM    2  C   UNK N   1      30.499  17.426   7.416  0.00  0.00     0.056 C 
HETATM    3 Cl   UNK N   1      29.367  18.014   8.658  0.00  0.00    -0.082 Cl
ENDROOT
BRANCH   1   4
HETATM    4  C   UNK N   1      30.987  16.586   5.072  0.00  0.00    -0.023 A 
HETATM    5  C   UNK N   1      31.902  17.313   4.288  0.00  0.00     0.015 A 
HETATM    6  C   UNK N   1      32.705  16.672   3.340  0.00  0.00     0.037 A 
HETATM    7  C   UNK N   1      32.592  15.294   3.133  0.00  0.00     0.068 A 
HETATM    8  C   UNK N   1      31.647  14.569   3.872  0.00  0.00     0.037 A 
HETATM    9  C   UNK N   1      30.853  15.208   4.825  0.00  0.00     0.015 A 
BRANCH   7  10
HETATM   10  O   UNK N   1      33.415  14.693   2.235  0.00  0.00    -0.349 OA
BRANCH  10  11
HETATM   11  C   UNK N   1      34.177  13.559   2.471  0.00  0.00     0.206 C 
BRANCH  11  12
HETATM   12  C   UNK N   1      35.252  13.763   3.539  0.00  0.00     0.299 C 
BRANCH  12  13
HETATM   13  N   UNK N   1      35.008  12.935   4.719  0.00  0.00     0.089 N 
BRANCH  13  14
HETATM   14  C   UNK N   1      34.088  11.822   4.450  0.00  0.00     0.268 C 
HETATM   15  C   UNK N   1      33.081  11.579   5.569  0.00  0.00     0.037 C 
ENDBRANCH  13  14
BRANCH  13  16
HETATM   16  C   UNK N   1      34.603  13.736   5.882  0.00  0.00     0.268 C 
HETATM   17  C   UNK N   1      35.074  15.187   5.826  0.00  0.00     0.037 C 
ENDBRANCH  13  16
ENDBRANCH  12  13
ENDBRANCH  11  12
ENDBRANCH  10  11
ENDBRANCH   7  10
ENDBRANCH   1   4
BRANCH   1  18
HETATM   18  C   UNK N   1      28.748  17.764   5.596  0.00  0.00    -0.023 A 
HETATM   19  C   UNK N   1      28.615  19.039   5.010  0.00  0.00     0.012 A 
HETATM   20  C   UNK N   1      27.377  19.503   4.554  0.00  0.00     0.001 A 
HETATM   21  C   UNK N   1      26.241  18.704   4.684  0.00  0.00     0.000 A 
HETATM   22  C   UNK N   1      26.344  17.444   5.271  0.00  0.00     0.001 A 
HETATM   23  C   UNK N   1      27.584  16.983   5.721  0.00  0.00     0.012 A 
ENDBRANCH   1  18
BRANCH   2  24
HETATM   24  C   UNK N   1      31.875  17.136   7.954  0.00  0.00    -0.014 A 
HETATM   25  C   UNK N   1      32.906  18.093   7.936  0.00  0.00     0.013 A 
HETATM   26  C   UNK N   1      34.149  17.820   8.513  0.00  0.00     0.001 A 
HETATM   27  C   UNK N   1      34.375  16.593   9.138  0.00  0.00     0.000 A 
HETATM   28  C   UNK N   1      33.353  15.644   9.196  0.00  0.00     0.001 A 
HETATM   29  C   UNK N   1      32.110  15.921   8.622  0.00  0.00     0.013 A 
ENDBRANCH   2  24
TORSDOF 9
ENDMDL
MODEL 4
REMARK VINA RESULT:      -5.9     11.449     13.589
REMARK  9 active torsions:
REMARK  status: ('A' for Active; 'I' for Inactive)
REMARK    1  A    between atoms: C_5  and  C_9 
REMARK    2  A    between atoms: C_8  and  C_9 
REMARK    3  A    between atoms: C_11  and  O_15 
REMARK    4  A    between atoms: C_14  and  C_24 
REMARK    5  A    between atoms: O_15  and  C_16 
REMARK    6  A    between atoms: C_16  and  C_17 
REMARK    7  A    between atoms: C_17  and  N_18 
REMARK    8  A    between atoms: N_18  and  C_19 
REMARK    9  A    between atoms: N_18  and  C_21 
ROOT
HETATM    1  C   UNK N   1      28.869  17.475   4.893  0.00  0.00     0.007 C 
HETATM    2  C   UNK N   1      28.186  16.478   4.201  0.00  0.00     0.056 C 
HETATM    3 Cl   UNK N   1      26.523  16.729   3.617  0.00  0.00    -0.082 Cl
ENDROOT
BRANCH   1   4
HETATM    4  C   UNK N   1      30.347  17.356   5.201  0.00  0.00    -0.023 A 
HETATM    5  C   UNK N   1      30.790  17.048   6.501  0.00  0.00     0.015 A 
HETATM    6  C   UNK N   1      32.154  16.951   6.791  0.00  0.00     0.037 A 
HETATM    7  C   UNK N   1      33.107  17.189   5.797  0.00  0.00     0.068 A 
HETATM    8  C   UNK N   1      32.676  17.548   4.512  0.00  0.00     0.037 A 
HETATM    9  C   UNK N   1      31.315  17.634   4.221  0.00  0.00     0.015 A 
BRANCH   7  10
HETATM   10  O   UNK N   1      34.424  17.046   6.099  0.00  0.00    -0.349 OA
BRANCH  10  11
HETATM   11  C   UNK N   1      34.991  15.959   6.746  0.00  0.00     0.206 C 
BRANCH  11  12
HETATM   12  C   UNK N   1      34.946  14.672   5.920  0.00  0.00     0.299 C 
BRANCH  12  13
HETATM   13  N   UNK N   1      34.200  13.616   6.602  0.00  0.00     0.089 N 
BRANCH  13  14
HETATM   14  C   UNK N   1      32.852  13.430   6.053  0.00  0.00     0.268 C 
HETATM   15  C   UNK N   1      32.749  13.759   4.567  0.00  0.00     0.037 C 
ENDBRANCH  13  14
BRANCH  13  16
HETATM   16  C   UNK N   1      34.198  13.793   8.061  0.00  0.00     0.268 C 
HETATM   17  C   UNK N   1      32.806  13.744   8.686  0.00  0.00     0.037 C 
ENDBRANCH  13  16
ENDBRANCH  12  13
ENDBRANCH  11  12
ENDBRANCH  10  11
ENDBRANCH   7  10
ENDBRANCH   1   4
BRANCH   1  18
HETATM   18  C   UNK N   1      28.185  18.768   5.320  0.00  0.00    -0.023 A 
HETATM   19  C   UNK N   1      27.783  19.709   4.351  0.00  0.00     0.012 A 
HETATM   20  C   UNK N   1      27.157  20.905   4.717  0.00  0.00     0.001 A 
HETATM   21  C   UNK N   1      26.927  21.189   6.063  0.00  0.00     0.000 A 
HETATM   22  C   UNK N   1      27.326  20.279   7.041  0.00  0.00     0.001 A 
HETATM   23  C   UNK N   1      27.948  19.085   6.670  0.00  0.00     0.012 A 
ENDBRANCH   1  18
BRANCH   2  24
HETATM   24  C   UNK N   1      28.728  15.109   3.887  0.00  0.00    -0.014 A 
HETATM   25  C   UNK N   1      28.731  14.067   4.832  0.00  0.00     0.013 A 
HETATM   26  C   UNK N   1      29.168  12.785   4.486  0.00  0.00     0.001 A 
HETATM   27  C   UNK N   1      29.591  12.519   3.183  0.00  0.00     0.000 A 
HETATM   28  C   UNK N   1      29.562  13.532   2.223  0.00  0.00     0.001 A 
HETATM   29  C   UNK N   1      29.120  14.811   2.570  0.00  0.00     0.013 A 
ENDBRANCH   2  24
TORSDOF 9
ENDMDL
MODEL 5
REMARK VINA RESULT:      -5.9     16.890     21.120
REMARK  9 active torsions:
REMARK  status: ('A' for Active; 'I' for Inactive)
REMARK    1  A    between atoms: C_5  and  C_9 
REMARK    2  A    between atoms: C_8  and  C_9 
REMARK    3  A    between atoms: C_11  and  O_15 
REMARK    4  A    between atoms: C_14  and  C_24 
REMARK    5  A    between atoms: O_15  and  C_16 
REMARK    6  A    between atoms: C_16  and  C_17 
REMARK    7  A    between atoms: C_17  and  N_18 
REMARK    8  A    between atoms: N_18  and  C_19 
REMARK    9  A    between atoms: N_18  and  C_21 
ROOT
HETATM    1  C   UNK N   1      36.397  13.270  12.750  0.00  0.00     0.007 C 
HETATM    2  C   UNK N   1      37.236  12.270  12.266  0.00  0.00     0.056 C 
HETATM    3 Cl   UNK N   1      37.823  10.962  13.321  0.00  0.00    -0.082 Cl
ENDROOT
BRANCH   1   4
HETATM    4  C   UNK N   1      35.721  14.256  11.821  0.00  0.00    -0.023 A 
HETATM    5  C   UNK N   1      34.669  13.849  10.980  0.00  0.00     0.015 A 
HETATM    6  C   UNK N   1      34.053  14.753  10.110  0.00  0.00     0.037 A 
HETATM    7  C   UNK N   1      34.492  16.078  10.040  0.00  0.00     0.068 A 
HETATM    8  C   UNK N   1      35.574  16.480  10.836  0.00  0.00     0.037 A 
HETATM    9  C   UNK N   1      36.182  15.579  11.711  0.00  0.00     0.015 A 
BRANCH   7  10
HETATM   10  O   UNK N   1      33.847  16.944   9.216  0.00  0.00    -0.349 OA
BRANCH  10  11
HETATM   11  C   UNK N   1      33.185  16.605   8.046  0.00  0.00     0.206 C 
BRANCH  11  12
HETATM   12  C   UNK N   1      33.778  17.265   6.801  0.00  0.00     0.299 C 
BRANCH  12  13
HETATM   13  N   UNK N   1      34.276  16.275   5.847  0.00  0.00     0.089 N 
BRANCH  13  14
HETATM   14  C   UNK N   1      33.474  16.217   4.619  0.00  0.00     0.268 C 
HETATM   15  C   UNK N   1      32.815  17.545   4.259  0.00  0.00     0.037 C 
ENDBRANCH  13  14
BRANCH  13  16
HETATM   16  C   UNK N   1      34.461  14.955   6.466  0.00  0.00     0.268 C 
HETATM   17  C   UNK N   1      35.924  14.566   6.665  0.00  0.00     0.037 C 
ENDBRANCH  13  16
ENDBRANCH  12  13
ENDBRANCH  11  12
ENDBRANCH  10  11
ENDBRANCH   7  10
ENDBRANCH   1   4
BRANCH   1  18
HETATM   18  C   UNK N   1      36.059  13.386  14.231  0.00  0.00    -0.023 A 
HETATM   19  C   UNK N   1      34.925  12.732  14.753  0.00  0.00     0.012 A 
HETATM   20  C   UNK N   1      34.593  12.826  16.108  0.00  0.00     0.001 A 
HETATM   21  C   UNK N   1      35.383  13.585  16.970  0.00  0.00     0.000 A 
HETATM   22  C   UNK N   1      36.504  14.251  16.476  0.00  0.00     0.001 A 
HETATM   23  C   UNK N   1      36.835  14.151  15.122  0.00  0.00     0.012 A 
ENDBRANCH   1  18
BRANCH   2  24
HETATM   24  C   UNK N   1      37.755  12.177  10.855  0.00  0.00    -0.014 A 
HETATM   25  C   UNK N   1      37.210  11.285   9.912  0.00  0.00     0.013 A 
HETATM   26  C   UNK N   1      37.660  11.277   8.589  0.00  0.00     0.001 A 
HETATM   27  C   UNK N   1      38.647  12.177   8.181  0.00  0.00     0.000 A 
HETATM   28  C   UNK N   1      39.173  13.091   9.094  0.00  0.00     0.001 A 
HETATM   29  C   UNK N   1      38.719  13.100  10.415  0.00  0.00     0.013 A 
ENDBRANCH   2  24
TORSDOF 9
ENDMDL
MODEL 6
REMARK VINA RESULT:      -5.8     16.809     21.029
REMARK  9 active torsions:
REMARK  status: ('A' for Active; 'I' for Inactive)
REMARK    1  A    between atoms: C_5  and  C_9 
REMARK    2  A    between atoms: C_8  and  C_9 
REMARK    3  A    between atoms: C_11  and  O_15 
REMARK    4  A    between atoms: C_14  and  C_24 
REMARK    5  A    between atoms: O_15  and  C_16 
REMARK    6  A    between atoms: C_16  and  C_17 
REMARK    7  A    between atoms: C_17  and  N_18 
REMARK    8  A    between atoms: N_18  and  C_19 
REMARK    9  A    between atoms: N_18  and  C_21 
ROOT
HETATM    1  C   UNK N   1      36.308  13.313  12.492  0.00  0.00     0.007 C 
HETATM    2  C   UNK N   1      37.098  12.315  11.926  0.00  0.00     0.056 C 
HETATM    3 Cl   UNK N   1      37.631  10.907  12.874  0.00  0.00    -0.082 Cl
ENDROOT
BRANCH   1   4
HETATM    4  C   UNK N   1      35.671  14.395  11.647  0.00  0.00    -0.023 A 
HETATM    5  C   UNK N   1      34.500  14.139  10.910  0.00  0.00     0.015 A 
HETATM    6  C   UNK N   1      33.918  15.132  10.117  0.00  0.00     0.037 A 
HETATM    7  C   UNK N   1      34.509  16.395  10.018  0.00  0.00     0.068 A 
HETATM    8  C   UNK N   1      35.705  16.644  10.707  0.00  0.00     0.037 A 
HETATM    9  C   UNK N   1      36.279  15.655  11.506  0.00  0.00     0.015 A 
BRANCH   7  10
HETATM   10  O   UNK N   1      33.898  17.352   9.273  0.00  0.00    -0.349 OA
BRANCH  10  11
HETATM   11  C   UNK N   1      34.407  17.923   8.117  0.00  0.00     0.206 C 
BRANCH  11  12
HETATM   12  C   UNK N   1      33.650  17.510   6.853  0.00  0.00     0.299 C 
BRANCH  12  13
HETATM   13  N   UNK N   1      33.723  16.068   6.624  0.00  0.00     0.089 N 
BRANCH  13  14
HETATM   14  C   UNK N   1      35.036  15.640   6.124  0.00  0.00     0.268 C 
HETATM   15  C   UNK N   1      35.713  14.596   7.006  0.00  0.00     0.037 C 
ENDBRANCH  13  14
BRANCH  13  16
HETATM   16  C   UNK N   1      32.614  15.583   5.791  0.00  0.00     0.268 C 
HETATM   17  C   UNK N   1      31.990  14.282   6.292  0.00  0.00     0.037 C 
ENDBRANCH  13  16
ENDBRANCH  12  13
ENDBRANCH  11  12
ENDBRANCH  10  11
ENDBRANCH   7  10
ENDBRANCH   1   4
BRANCH   1  18
HETATM   18  C   UNK N   1      35.986  13.333  13.982  0.00  0.00    -0.023 A 
HETATM   19  C   UNK N   1      34.887  12.605  14.479  0.00  0.00     0.012 A 
HETATM   20  C   UNK N   1      34.570  12.610  15.841  0.00  0.00     0.001 A 
HETATM   21  C   UNK N   1      35.341  13.351  16.735  0.00  0.00     0.000 A 
HETATM   22  C   UNK N   1      36.428  14.089  16.266  0.00  0.00     0.001 A 
HETATM   23  C   UNK N   1      36.743  14.078  14.906  0.00  0.00     0.012 A 
ENDBRANCH   1  18
BRANCH   2  24
HETATM   24  C   UNK N   1      37.601  12.305  10.507  0.00  0.00    -0.014 A 
HETATM   25  C   UNK N   1      38.795  12.947  10.129  0.00  0.00     0.013 A 
HETATM   26  C   UNK N   1      39.277  12.854   8.821  0.00  0.00     0.001 A 
HETATM   27  C   UNK N   1      38.584  12.097   7.873  0.00  0.00     0.000 A 
HETATM   28  C   UNK N   1      37.418  11.425   8.239  0.00  0.00     0.001 A 
HETATM   29  C   UNK N   1      36.940  11.517   9.549  0.00  0.00     0.013 A 
ENDBRANCH   2  24
TORSDOF 9
ENDMDL
MODEL 7
REMARK VINA RESULT:      -5.8     11.848     14.853
REMARK  9 active torsions:
REMARK  status: ('A' for Active; 'I' for Inactive)
REMARK    1  A    between atoms: C_5  and  C_9 
REMARK    2  A    between atoms: C_8  and  C_9 
REMARK    3  A    between atoms: C_11  and  O_15 
REMARK    4  A    between atoms: C_14  and  C_24 
REMARK    5  A    between atoms: O_15  and  C_16 
REMARK    6  A    between atoms: C_16  and  C_17 
REMARK    7  A    between atoms: C_17  and  N_18 
REMARK    8  A    between atoms: N_18  and  C_19 
REMARK    9  A    between atoms: N_18  and  C_21 
ROOT
HETATM    1  C   UNK N   1      30.164  17.271   6.041  0.00  0.00     0.007 C 
HETATM    2  C   UNK N   1      30.525  17.381   7.382  0.00  0.00     0.056 C 
HETATM    3 Cl   UNK N   1      29.353  17.900   8.617  0.00  0.00    -0.082 Cl
ENDROOT
BRANCH   1   4
HETATM    4  C   UNK N   1      31.081  16.627   5.024  0.00  0.00    -0.023 A 
HETATM    5  C   UNK N   1      31.999  17.400   4.289  0.00  0.00     0.015 A 
HETATM    6  C   UNK N   1      32.837  16.810   3.339  0.00  0.00     0.037 A 
HETATM    7  C   UNK N   1      32.757  15.439   3.079  0.00  0.00     0.068 A 
HETATM    8  C   UNK N   1      31.809  14.669   3.768  0.00  0.00     0.037 A 
HETATM    9  C   UNK N   1      30.980  15.257   4.724  0.00  0.00     0.015 A 
BRANCH   7  10
HETATM   10  O   UNK N   1      33.614  14.888   2.180  0.00  0.00    -0.349 OA
BRANCH  10  11
HETATM   11  C   UNK N   1      34.348  13.727   2.371  0.00  0.00     0.206 C 
BRANCH  11  12
HETATM   12  C   UNK N   1      35.320  13.812   3.549  0.00  0.00     0.299 C 
BRANCH  12  13
HETATM   13  N   UNK N   1      34.913  12.942   4.651  0.00  0.00     0.089 N 
BRANCH  13  14
HETATM   14  C   UNK N   1      34.660  13.682   5.894  0.00  0.00     0.268 C 
HETATM   15  C   UNK N   1      35.095  15.143   5.832  0.00  0.00     0.037 C 
ENDBRANCH  13  14
BRANCH  13  16
HETATM   16  C   UNK N   1      35.841  11.818   4.840  0.00  0.00     0.268 C 
HETATM   17  C   UNK N   1      36.248  11.592   6.294  0.00  0.00     0.037 C 
ENDBRANCH  13  16
ENDBRANCH  12  13
ENDBRANCH  11  12
ENDBRANCH  10  11
ENDBRANCH   7  10
ENDBRANCH   1   4
BRANCH   1  18
HETATM   18  C   UNK N   1      28.801  17.731   5.537  0.00  0.00    -0.023 A 
HETATM   19  C   UNK N   1      27.682  16.881   5.644  0.00  0.00     0.012 A 
HETATM   20  C   UNK N   1      26.423  17.278   5.186  0.00  0.00     0.001 A 
HETATM   21  C   UNK N   1      26.256  18.534   4.602  0.00  0.00     0.000 A 
HETATM   22  C   UNK N   1      27.350  19.389   4.475  0.00  0.00     0.001 A 
HETATM   23  C   UNK N   1      28.605  18.989   4.937  0.00  0.00     0.012 A 
ENDBRANCH   1  18
BRANCH   2  24
HETATM   24  C   UNK N   1      31.897  17.109   7.938  0.00  0.00    -0.014 A 
HETATM   25  C   UNK N   1      32.913  18.083   7.942  0.00  0.00     0.013 A 
HETATM   26  C   UNK N   1      34.151  17.827   8.536  0.00  0.00     0.001 A 
HETATM   27  C   UNK N   1      34.388  16.599   9.157  0.00  0.00     0.000 A 
HETATM   28  C   UNK N   1      33.380  15.634   9.194  0.00  0.00     0.001 A 
HETATM   29  C   UNK N   1      32.141  15.894   8.602  0.00  0.00     0.013 A 
ENDBRANCH   2  24
TORSDOF 9
ENDMDL
MODEL 8
REMARK VINA RESULT:      -5.7     25.283     29.205
REMARK  9 active torsions:
REMARK  status: ('A' for Active; 'I' for Inactive)
REMARK    1  A    between atoms: C_5  and  C_9 
REMARK    2  A    between atoms: C_8  and  C_9 
REMARK    3  A    between atoms: C_11  and  O_15 
REMARK    4  A    between atoms: C_14  and  C_24 
REMARK    5  A    between atoms: O_15  and  C_16 
REMARK    6  A    between atoms: C_16  and  C_17 
REMARK    7  A    between atoms: C_17  and  N_18 
REMARK    8  A    between atoms: N_18  and  C_19 
REMARK    9  A    between atoms: N_18  and  C_21 
ROOT
HETATM    1  C   UNK N   1      36.323  10.023  20.885  0.00  0.00     0.007 C 
HETATM    2  C   UNK N   1      35.369   9.230  21.518  0.00  0.00     0.056 C 
HETATM    3 Cl   UNK N   1      35.726   8.397  23.050  0.00  0.00    -0.082 Cl
ENDROOT
BRANCH   1   4
HETATM    4  C   UNK N   1      35.966  10.905  19.708  0.00  0.00    -0.023 A 
HETATM    5  C   UNK N   1      35.477  12.209  19.906  0.00  0.00     0.015 A 
HETATM    6  C   UNK N   1      35.133  13.020  18.820  0.00  0.00     0.037 A 
HETATM    7  C   UNK N   1      35.242  12.537  17.513  0.00  0.00     0.068 A 
HETATM    8  C   UNK N   1      35.678  11.220  17.308  0.00  0.00     0.037 A 
HETATM    9  C   UNK N   1      36.031  10.415  18.392  0.00  0.00     0.015 A 
BRANCH   7  10
HETATM   10  O   UNK N   1      34.940  13.362  16.478  0.00  0.00    -0.349 OA
BRANCH  10  11
HETATM   11  C   UNK N   1      35.073  13.053  15.133  0.00  0.00     0.206 C 
BRANCH  11  12
HETATM   12  C   UNK N   1      36.344  13.626  14.503  0.00  0.00     0.299 C 
BRANCH  12  13
HETATM   13  N   UNK N   1      36.694  12.934  13.264  0.00  0.00     0.089 N 
BRANCH  13  14
HETATM   14  C   UNK N   1      35.767  13.234  12.166  0.00  0.00     0.268 C 
HETATM   15  C   UNK N   1      35.355  12.003  11.364  0.00  0.00     0.037 C 
ENDBRANCH  13  14
BRANCH  13  16
HETATM   16  C   UNK N   1      36.881  11.491  13.471  0.00  0.00     0.268 C 
HETATM   17  C   UNK N   1      38.116  11.142  14.298  0.00  0.00     0.037 C 
ENDBRANCH  13  16
ENDBRANCH  12  13
ENDBRANCH  11  12
ENDBRANCH  10  11
ENDBRANCH   7  10
ENDBRANCH   1   4
BRANCH   1  18
HETATM   18  C   UNK N   1      37.762  10.098  21.383  0.00  0.00    -0.023 A 
HETATM   19  C   UNK N   1      38.122  11.039  22.368  0.00  0.00     0.012 A 
HETATM   20  C   UNK N   1      39.435  11.131  22.839  0.00  0.00     0.001 A 
HETATM   21  C   UNK N   1      40.421  10.286  22.328  0.00  0.00     0.000 A 
HETATM   22  C   UNK N   1      40.092   9.354  21.344  0.00  0.00     0.001 A 
HETATM   23  C   UNK N   1      38.777   9.264  20.880  0.00  0.00     0.012 A 
ENDBRANCH   1  18
BRANCH   2  24
HETATM   24  C   UNK N   1      33.979   8.966  21.005  0.00  0.00    -0.014 A 
HETATM   25  C   UNK N   1      33.701   7.940  20.082  0.00  0.00     0.013 A 
HETATM   26  C   UNK N   1      32.389   7.668  19.684  0.00  0.00     0.001 A 
HETATM   27  C   UNK N   1      31.330   8.404  20.220  0.00  0.00     0.000 A 
HETATM   28  C   UNK N   1      31.583   9.401  21.162  0.00  0.00     0.001 A 
HETATM   29  C   UNK N   1      32.895   9.668  21.561  0.00  0.00     0.013 A 
ENDBRANCH   2  24
TORSDOF 9
ENDMDL
MODEL 9
REMARK VINA RESULT:      -5.6     23.270     27.184
REMARK  9 active torsions:
REMARK  status: ('A' for Active; 'I' for Inactive)
REMARK    1  A    between atoms: C_5  and  C_9 
REMARK    2  A    between atoms: C_8  and  C_9 
REMARK    3  A    between atoms: C_11  and  O_15 
REMARK    4  A    between atoms: C_14  and  C_24 
REMARK    5  A    between atoms: O_15  and  C_16 
REMARK    6  A    between atoms: C_16  and  C_17 
REMARK    7  A    between atoms: C_17  and  N_18 
REMARK    8  A    between atoms: N_18  and  C_19 
REMARK    9  A    between atoms: N_18  and  C_21 
ROOT
HETATM    1  C   UNK N   1      34.851   9.117  18.041  0.00  0.00     0.007 C 
HETATM    2  C   UNK N   1      35.525   7.928  17.772  0.00  0.00     0.056 C 
HETATM    3 Cl   UNK N   1      35.308   6.489  18.796  0.00  0.00    -0.082 Cl
ENDROOT
BRANCH   1   4
HETATM    4  C   UNK N   1      34.858  10.271  17.061  0.00  0.00    -0.023 A 
HETATM    5  C   UNK N   1      34.142  10.194  15.852  0.00  0.00     0.015 A 
HETATM    6  C   UNK N   1      34.158  11.252  14.938  0.00  0.00     0.037 A 
HETATM    7  C   UNK N   1      34.913  12.399  15.198  0.00  0.00     0.068 A 
HETATM    8  C   UNK N   1      35.672  12.463  16.375  0.00  0.00     0.037 A 
HETATM    9  C   UNK N   1      35.647  11.411  17.291  0.00  0.00     0.015 A 
BRANCH   7  10
HETATM   10  O   UNK N   1      34.876  13.427  14.311  0.00  0.00    -0.349 OA
BRANCH  10  11
HETATM   11  C   UNK N   1      35.980  14.075  13.778  0.00  0.00     0.206 C 
BRANCH  11  12
HETATM   12  C   UNK N   1      36.201  13.775  12.295  0.00  0.00     0.299 C 
BRANCH  12  13
HETATM   13  N   UNK N   1      36.316  12.339  12.043  0.00  0.00     0.089 N 
BRANCH  13  14
HETATM   14  C   UNK N   1      37.570  11.773  12.553  0.00  0.00     0.268 C 
HETATM   15  C   UNK N   1      37.390  10.441  13.274  0.00  0.00     0.037 C 
ENDBRANCH  13  14
BRANCH  13  16
HETATM   16  C   UNK N   1      36.074  12.004  10.633  0.00  0.00     0.268 C 
HETATM   17  C   UNK N   1      35.395  13.120   9.841  0.00  0.00     0.037 C 
ENDBRANCH  13  16
ENDBRANCH  12  13
ENDBRANCH  11  12
ENDBRANCH  10  11
ENDBRANCH   7  10
ENDBRANCH   1   4
BRANCH   1  18
HETATM   18  C   UNK N   1      34.016   9.298  19.303  0.00  0.00    -0.023 A 
HETATM   19  C   UNK N   1      32.763   8.666  19.419  0.00  0.00     0.012 A 
HETATM   20  C   UNK N   1      31.976   8.819  20.566  0.00  0.00     0.001 A 
HETATM   21  C   UNK N   1      32.424   9.617  21.618  0.00  0.00     0.000 A 
HETATM   22  C   UNK N   1      33.657  10.263  21.522  0.00  0.00     0.001 A 
HETATM   23  C   UNK N   1      34.440  10.104  20.377  0.00  0.00     0.012 A 
ENDBRANCH   1  18
BRANCH   2  24
HETATM   24  C   UNK N   1      36.499   7.717  16.644  0.00  0.00    -0.014 A 
HETATM   25  C   UNK N   1      37.853   8.090  16.740  0.00  0.00     0.013 A 
HETATM   26  C   UNK N   1      38.750   7.809  15.706  0.00  0.00     0.001 A 
HETATM   27  C   UNK N   1      38.313   7.129  14.567  0.00  0.00     0.000 A 
HETATM   28  C   UNK N   1      36.983   6.720  14.470  0.00  0.00     0.001 A 
HETATM   29  C   UNK N   1      36.089   6.999  15.507  0.00  0.00     0.013 A 
ENDBRANCH   2  24
TORSDOF 9
ENDMDL
