MODEL 1
REMARK VINA RESULT:      -7.1      0.000      0.000
REMARK  3 active torsions:
REMARK  status: ('A' for Active; 'I' for Inactive)
REMARK    1  A    between atoms: C_9  and  C_11 
REMARK    2  A    between atoms: C_10  and  O_21 
REMARK       I    between atoms: C_11  and  N_12 
REMARK    3  A    between atoms: N_12  and  C_13 
ROOT
HETATM    1  C   UNK N   1      21.550  14.059   9.000  0.00  0.00     0.023 A 
HETATM    2  C   UNK N   1      20.596  13.715   9.975  0.00  0.00     0.016 A 
HETATM    3  C   UNK N   1      20.823  12.657  10.861  0.00  0.00     0.001 A 
HETATM    4  C   UNK N   1      22.011  11.931  10.789  0.00  0.00     0.002 A 
HETATM    5  C   UNK N   1      22.963  12.253   9.822  0.00  0.00     0.026 A 
HETATM    6  C   UNK N   1      22.728  13.309   8.936  0.00  0.00     0.093 A 
HETATM    7  S   UNK N   1      23.882  13.676   7.681  0.00  0.00     0.266 S 
HETATM    8  N   UNK N   1      23.409  15.147   6.881  0.00  0.00    -0.268 N 
HETATM    9  C   UNK N   1      22.102  15.729   7.116  0.00  0.00     0.146 C 
HETATM   10  C   UNK N   1      21.247  15.215   8.085  0.00  0.00     0.110 C 
HETATM   11  C   UNK N   1      24.341  15.695   5.925  0.00  0.00     0.170 C 
HETATM   12  O   UNK N   1      25.346  13.871   8.110  0.00  0.00    -0.200 OA
HETATM   13  O   UNK N   1      23.926  12.629   6.560  0.00  0.00    -0.200 OA
ENDROOT
BRANCH   9  14
HETATM   14  C   UNK N   1      21.661  16.931   6.288  0.00  0.00     0.277 C 
HETATM   15  N   UNK N   1      21.396  16.803   4.958  0.00  0.00    -0.308 N 
HETATM   16  H   UNK N   1      21.509  15.904   4.573  0.00  0.00     0.170 HD
HETATM   17  O   UNK N   1      21.543  18.025   6.820  0.00  0.00    -0.266 OA
BRANCH  15  18
HETATM   18  C   UNK N   1      20.971  17.827   4.061  0.00  0.00     0.107 A 
HETATM   19  N   UNK N   1      21.760  18.925   3.900  0.00  0.00    -0.352 N 
HETATM   20  C   UNK N   1      21.421  19.938   3.057  0.00  0.00     0.089 A 
ATOM     21  HN  UNK N   1      22.630  18.990   4.427  1.00  0.00     0.166 HD
HETATM   22  C   UNK N   1      20.235  19.873   2.325  0.00  0.00     0.017 A 
HETATM   23  C   UNK N   1      19.406  18.762   2.469  0.00  0.00     0.005 A 
HETATM   24  C   UNK N   1      19.770  17.733   3.338  0.00  0.00     0.048 A 
ENDBRANCH  15  18
ENDBRANCH   9  14
BRANCH  10  25
HETATM   25  O   UNK N   1      20.037  15.787   8.262  0.00  0.00    -0.357 OA
HETATM   26  H   UNK N   1      19.267  15.254   8.293  0.00  0.00     0.217 HD
ENDBRANCH  10  25
TORSDOF 3
ENDMDL
MODEL 2
REMARK VINA RESULT:      -6.9      5.981      8.299
REMARK  3 active torsions:
REMARK  status: ('A' for Active; 'I' for Inactive)
REMARK    1  A    between atoms: C_9  and  C_11 
REMARK    2  A    between atoms: C_10  and  O_21 
REMARK       I    between atoms: C_11  and  N_12 
REMARK    3  A    between atoms: N_12  and  C_13 
ROOT
HETATM    1  C   UNK N   1      31.094  17.428   5.707  0.00  0.00     0.023 A 
HETATM    2  C   UNK N   1      32.023  17.412   4.651  0.00  0.00     0.016 A 
HETATM    3  C   UNK N   1      33.397  17.364   4.902  0.00  0.00     0.001 A 
HETATM    4  C   UNK N   1      33.864  17.326   6.216  0.00  0.00     0.002 A 
HETATM    5  C   UNK N   1      32.957  17.352   7.275  0.00  0.00     0.026 A 
HETATM    6  C   UNK N   1      31.584  17.404   7.017  0.00  0.00     0.093 A 
HETATM    7  S   UNK N   1      30.446  17.503   8.334  0.00  0.00     0.266 S 
HETATM    8  N   UNK N   1      28.830  17.353   7.707  0.00  0.00    -0.268 N 
HETATM    9  C   UNK N   1      28.581  17.423   6.281  0.00  0.00     0.146 C 
HETATM   10  C   UNK N   1      29.629  17.469   5.367  0.00  0.00     0.110 C 
HETATM   11  C   UNK N   1      27.765  17.244   8.676  0.00  0.00     0.170 C 
HETATM   12  O   UNK N   1      30.573  16.455   9.451  0.00  0.00    -0.200 OA
HETATM   13  O   UNK N   1      30.452  18.860   9.052  0.00  0.00    -0.200 OA
ENDROOT
BRANCH   9  14
HETATM   14  C   UNK N   1      27.143  17.439   5.775  0.00  0.00     0.277 C 
HETATM   15  N   UNK N   1      26.559  18.602   5.371  0.00  0.00    -0.308 N 
HETATM   16  H   UNK N   1      27.111  19.414   5.431  0.00  0.00     0.170 HD
HETATM   17  O   UNK N   1      26.503  16.399   5.727  0.00  0.00    -0.266 OA
BRANCH  15  18
HETATM   18  C   UNK N   1      25.234  18.772   4.871  0.00  0.00     0.107 A 
HETATM   19  N   UNK N   1      24.226  18.043   5.423  0.00  0.00    -0.352 N 
HETATM   20  C   UNK N   1      22.938  18.158   5.001  0.00  0.00     0.089 A 
ATOM     21  HN  UNK N   1      24.443  17.390   6.176  1.00  0.00     0.166 HD
HETATM   22  C   UNK N   1      22.615  19.043   3.972  0.00  0.00     0.017 A 
HETATM   23  C   UNK N   1      23.625  19.804   3.386  0.00  0.00     0.005 A 
HETATM   24  C   UNK N   1      24.940  19.672   3.833  0.00  0.00     0.048 A 
ENDBRANCH  15  18
ENDBRANCH   9  14
BRANCH  10  25
HETATM   25  O   UNK N   1      29.347  17.541   4.049  0.00  0.00    -0.357 OA
HETATM   26  H   UNK N   1      29.927  17.154   3.424  0.00  0.00     0.217 HD
ENDBRANCH  10  25
TORSDOF 3
ENDMDL
MODEL 3
REMARK VINA RESULT:      -6.9     13.103     15.469
REMARK  3 active torsions:
REMARK  status: ('A' for Active; 'I' for Inactive)
REMARK    1  A    between atoms: C_9  and  C_11 
REMARK    2  A    between atoms: C_10  and  O_21 
REMARK       I    between atoms: C_11  and  N_12 
REMARK    3  A    between atoms: N_12  and  C_13 
ROOT
HETATM    1  C   UNK N   1      34.598  16.069   8.855  0.00  0.00     0.023 A 
HETATM    2  C   UNK N   1      34.157  17.405   8.884  0.00  0.00     0.016 A 
HETATM    3  C   UNK N   1      33.841  18.084   7.704  0.00  0.00     0.001 A 
HETATM    4  C   UNK N   1      33.956  17.434   6.475  0.00  0.00     0.002 A 
HETATM    5  C   UNK N   1      34.403  16.114   6.427  0.00  0.00     0.026 A 
HETATM    6  C   UNK N   1      34.721  15.442   7.611  0.00  0.00     0.093 A 
HETATM    7  S   UNK N   1      35.343  13.813   7.558  0.00  0.00     0.266 S 
HETATM    8  N   UNK N   1      35.452  13.189   9.178  0.00  0.00    -0.268 N 
HETATM    9  C   UNK N   1      35.293  14.066  10.321  0.00  0.00     0.146 C 
HETATM   10  C   UNK N   1      34.911  15.394  10.163  0.00  0.00     0.110 C 
HETATM   11  C   UNK N   1      35.788  11.791   9.314  0.00  0.00     0.170 C 
HETATM   12  O   UNK N   1      34.536  12.782   6.752  0.00  0.00    -0.200 OA
HETATM   13  O   UNK N   1      36.775  13.719   7.016  0.00  0.00    -0.200 OA
ENDROOT
BRANCH   9  14
HETATM   14  C   UNK N   1      35.543  13.518  11.722  0.00  0.00     0.277 C 
HETATM   15  N   UNK N   1      34.587  12.793  12.368  0.00  0.00    -0.308 N 
HETATM   16  H   UNK N   1      33.741  12.653  11.884  0.00  0.00     0.170 HD
HETATM   17  O   UNK N   1      36.612  13.729  12.276  0.00  0.00    -0.266 OA
BRANCH  15  18
HETATM   18  C   UNK N   1      34.677  12.214  13.668  0.00  0.00     0.107 A 
HETATM   19  N   UNK N   1      35.262  12.931  14.666  0.00  0.00    -0.352 N 
HETATM   20  C   UNK N   1      35.377  12.446  15.931  0.00  0.00     0.089 A 
ATOM     21  HN  UNK N   1      35.627  13.861  14.458  1.00  0.00     0.166 HD
HETATM   22  C   UNK N   1      34.887  11.176  16.241  0.00  0.00     0.017 A 
HETATM   23  C   UNK N   1      34.283  10.417  15.241  0.00  0.00     0.005 A 
HETATM   24  C   UNK N   1      34.174  10.933  13.949  0.00  0.00     0.048 A 
ENDBRANCH  15  18
ENDBRANCH   9  14
BRANCH  10  25
HETATM   25  O   UNK N   1      34.784  16.174  11.258  0.00  0.00    -0.357 OA
HETATM   26  H   UNK N   1      35.497  16.258  11.859  0.00  0.00     0.217 HD
ENDBRANCH  10  25
TORSDOF 3
ENDMDL
MODEL 4
REMARK VINA RESULT:      -6.8      2.640      4.056
REMARK  3 active torsions:
REMARK  status: ('A' for Active; 'I' for Inactive)
REMARK    1  A    between atoms: C_9  and  C_11 
REMARK    2  A    between atoms: C_10  and  O_21 
REMARK       I    between atoms: C_11  and  N_12 
REMARK    3  A    between atoms: N_12  and  C_13 
ROOT
HETATM    1  C   UNK N   1      23.336  13.939   7.831  0.00  0.00     0.023 A 
HETATM    2  C   UNK N   1      24.192  12.912   8.269  0.00  0.00     0.016 A 
HETATM    3  C   UNK N   1      23.771  11.983   9.225  0.00  0.00     0.001 A 
HETATM    4  C   UNK N   1      22.483  12.064   9.754  0.00  0.00     0.002 A 
HETATM    5  C   UNK N   1      21.624  13.082   9.339  0.00  0.00     0.026 A 
HETATM    6  C   UNK N   1      22.054  14.010   8.385  0.00  0.00     0.093 A 
HETATM    7  S   UNK N   1      21.012  15.325   7.907  0.00  0.00     0.266 S 
HETATM    8  N   UNK N   1      21.741  16.179   6.579  0.00  0.00    -0.268 N 
HETATM    9  C   UNK N   1      23.117  15.924   6.202  0.00  0.00     0.146 C 
HETATM   10  C   UNK N   1      23.848  14.898   6.791  0.00  0.00     0.110 C 
HETATM   11  C   UNK N   1      20.938  17.197   5.942  0.00  0.00     0.170 C 
HETATM   12  O   UNK N   1      19.587  14.962   7.457  0.00  0.00    -0.200 OA
HETATM   13  O   UNK N   1      20.832  16.393   8.995  0.00  0.00    -0.200 OA
ENDROOT
BRANCH   9  14
HETATM   14  C   UNK N   1      23.771  16.794   5.133  0.00  0.00     0.277 C 
HETATM   15  N   UNK N   1      24.260  18.027   5.441  0.00  0.00    -0.308 N 
HETATM   16  H   UNK N   1      24.162  18.317   6.377  0.00  0.00     0.170 HD
HETATM   17  O   UNK N   1      23.861  16.383   3.986  0.00  0.00    -0.266 OA
BRANCH  15  18
HETATM   18  C   UNK N   1      24.900  18.946   4.558  0.00  0.00     0.107 A 
HETATM   19  N   UNK N   1      24.146  19.592   3.626  0.00  0.00    -0.352 N 
HETATM   20  C   UNK N   1      24.687  20.486   2.755  0.00  0.00     0.089 A 
ATOM     21  HN  UNK N   1      23.145  19.399   3.579  1.00  0.00     0.166 HD
HETATM   22  C   UNK N   1      26.053  20.766   2.798  0.00  0.00     0.017 A 
HETATM   23  C   UNK N   1      26.852  20.121   3.740  0.00  0.00     0.005 A 
HETATM   24  C   UNK N   1      26.278  19.207   4.625  0.00  0.00     0.048 A 
ENDBRANCH  15  18
ENDBRANCH   9  14
BRANCH  10  25
HETATM   25  O   UNK N   1      25.129  14.704   6.412  0.00  0.00    -0.357 OA
HETATM   26  H   UNK N   1      25.330  14.082   5.741  0.00  0.00     0.217 HD
ENDBRANCH  10  25
TORSDOF 3
ENDMDL
MODEL 5
REMARK VINA RESULT:      -6.7      8.284     11.798
REMARK  3 active torsions:
REMARK  status: ('A' for Active; 'I' for Inactive)
REMARK    1  A    between atoms: C_9  and  C_11 
REMARK    2  A    between atoms: C_10  and  O_21 
REMARK       I    between atoms: C_11  and  N_12 
REMARK    3  A    between atoms: N_12  and  C_13 
ROOT
HETATM    1  C   UNK N   1      29.710  16.913   5.228  0.00  0.00     0.023 A 
HETATM    2  C   UNK N   1      29.776  16.411   3.916  0.00  0.00     0.016 A 
HETATM    3  C   UNK N   1      28.655  16.430   3.081  0.00  0.00     0.001 A 
HETATM    4  C   UNK N   1      27.450  16.957   3.545  0.00  0.00     0.002 A 
HETATM    5  C   UNK N   1      27.364  17.449   4.847  0.00  0.00     0.026 A 
HETATM    6  C   UNK N   1      28.488  17.423   5.678  0.00  0.00     0.093 A 
HETATM    7  S   UNK N   1      28.374  17.975   7.329  0.00  0.00     0.266 S 
HETATM    8  N   UNK N   1      29.963  18.005   8.034  0.00  0.00    -0.268 N 
HETATM    9  C   UNK N   1      31.084  17.383   7.357  0.00  0.00     0.146 C 
HETATM   10  C   UNK N   1      30.957  16.872   6.070  0.00  0.00     0.110 C 
HETATM   11  C   UNK N   1      30.081  18.597   9.345  0.00  0.00     0.170 C 
HETATM   12  O   UNK N   1      27.773  19.371   7.561  0.00  0.00    -0.200 OA
HETATM   13  O   UNK N   1      27.571  17.034   8.237  0.00  0.00    -0.200 OA
ENDROOT
BRANCH   9  14
HETATM   14  C   UNK N   1      32.430  17.295   8.069  0.00  0.00     0.277 C 
HETATM   15  N   UNK N   1      32.851  16.123   8.621  0.00  0.00    -0.308 N 
HETATM   16  H   UNK N   1      32.242  15.354   8.538  0.00  0.00     0.170 HD
HETATM   17  O   UNK N   1      33.143  18.284   8.147  0.00  0.00    -0.266 OA
BRANCH  15  18
HETATM   18  C   UNK N   1      34.078  15.885   9.308  0.00  0.00     0.107 A 
HETATM   19  N   UNK N   1      34.471  16.764  10.271  0.00  0.00    -0.352 N 
HETATM   20  C   UNK N   1      35.626  16.599  10.971  0.00  0.00     0.089 A 
ATOM     21  HN  UNK N   1      33.881  17.571  10.474  1.00  0.00     0.166 HD
HETATM   22  C   UNK N   1      36.450  15.503  10.711  0.00  0.00     0.017 A 
HETATM   23  C   UNK N   1      36.076  14.586   9.731  0.00  0.00     0.005 A 
HETATM   24  C   UNK N   1      34.888  14.773   9.024  0.00  0.00     0.048 A 
ENDBRANCH  15  18
ENDBRANCH   9  14
BRANCH  10  25
HETATM   25  O   UNK N   1      32.027  16.295   5.484  0.00  0.00    -0.357 OA
HETATM   26  H   UNK N   1      32.378  15.498   5.829  0.00  0.00     0.217 HD
ENDBRANCH  10  25
TORSDOF 3
ENDMDL
MODEL 6
REMARK VINA RESULT:      -6.7     10.477     12.461
REMARK  3 active torsions:
REMARK  status: ('A' for Active; 'I' for Inactive)
REMARK    1  A    between atoms: C_9  and  C_11 
REMARK    2  A    between atoms: C_10  and  O_21 
REMARK       I    between atoms: C_11  and  N_12 
REMARK    3  A    between atoms: N_12  and  C_13 
ROOT
HETATM    1  C   UNK N   1      35.330  13.465  10.687  0.00  0.00     0.023 A 
HETATM    2  C   UNK N   1      35.349  12.995  12.012  0.00  0.00     0.016 A 
HETATM    3  C   UNK N   1      36.250  12.003  12.411  0.00  0.00     0.001 A 
HETATM    4  C   UNK N   1      37.150  11.469  11.489  0.00  0.00     0.002 A 
HETATM    5  C   UNK N   1      37.138  11.917  10.168  0.00  0.00     0.026 A 
HETATM    6  C   UNK N   1      36.231  12.906   9.776  0.00  0.00     0.093 A 
HETATM    7  S   UNK N   1      36.163  13.426   8.112  0.00  0.00     0.266 S 
HETATM    8  N   UNK N   1      35.091  14.789   7.981  0.00  0.00    -0.268 N 
HETATM    9  C   UNK N   1      34.234  15.165   9.088  0.00  0.00     0.146 C 
HETATM   10  C   UNK N   1      34.342  14.543  10.328  0.00  0.00     0.110 C 
HETATM   11  C   UNK N   1      35.043  15.458   6.702  0.00  0.00     0.170 C 
HETATM   12  O   UNK N   1      37.487  13.854   7.457  0.00  0.00    -0.200 OA
HETATM   13  O   UNK N   1      35.564  12.377   7.165  0.00  0.00    -0.200 OA
ENDROOT
BRANCH   9  14
HETATM   14  C   UNK N   1      33.201  16.269   8.891  0.00  0.00     0.277 C 
HETATM   15  N   UNK N   1      31.891  15.965   8.671  0.00  0.00    -0.308 N 
HETATM   16  H   UNK N   1      31.660  15.009   8.644  0.00  0.00     0.170 HD
HETATM   17  O   UNK N   1      33.547  17.440   8.930  0.00  0.00    -0.266 OA
BRANCH  15  18
HETATM   18  C   UNK N   1      30.815  16.881   8.477  0.00  0.00     0.107 A 
HETATM   19  N   UNK N   1      30.490  17.735   9.487  0.00  0.00    -0.352 N 
HETATM   20  C   UNK N   1      29.481  18.639   9.370  0.00  0.00     0.089 A 
ATOM     21  HN  UNK N   1      31.019  17.693  10.358  1.00  0.00     0.166 HD
HETATM   22  C   UNK N   1      28.741  18.714   8.189  0.00  0.00     0.017 A 
HETATM   23  C   UNK N   1      29.049  17.854   7.137  0.00  0.00     0.005 A 
HETATM   24  C   UNK N   1      30.089  16.933   7.276  0.00  0.00     0.048 A 
ENDBRANCH  15  18
ENDBRANCH   9  14
BRANCH  10  25
HETATM   25  O   UNK N   1      33.517  14.922  11.327  0.00  0.00    -0.357 OA
HETATM   26  H   UNK N   1      33.870  15.152  12.164  0.00  0.00     0.217 HD
ENDBRANCH  10  25
TORSDOF 3
ENDMDL
MODEL 7
REMARK VINA RESULT:      -6.6      8.797     12.256
REMARK  3 active torsions:
REMARK  status: ('A' for Active; 'I' for Inactive)
REMARK    1  A    between atoms: C_9  and  C_11 
REMARK    2  A    between atoms: C_10  and  O_21 
REMARK       I    between atoms: C_11  and  N_12 
REMARK    3  A    between atoms: N_12  and  C_13 
ROOT
HETATM    1  C   UNK N   1      29.728  17.566   7.325  0.00  0.00     0.023 A 
HETATM    2  C   UNK N   1      28.829  18.373   8.046  0.00  0.00     0.016 A 
HETATM    3  C   UNK N   1      27.880  19.159   7.386  0.00  0.00     0.001 A 
HETATM    4  C   UNK N   1      27.813  19.146   5.993  0.00  0.00     0.002 A 
HETATM    5  C   UNK N   1      28.703  18.360   5.262  0.00  0.00     0.026 A 
HETATM    6  C   UNK N   1      29.653  17.579   5.928  0.00  0.00     0.093 A 
HETATM    7  S   UNK N   1      30.813  16.644   5.023  0.00  0.00     0.266 S 
HETATM    8  N   UNK N   1      31.717  15.638   6.116  0.00  0.00    -0.268 N 
HETATM    9  C   UNK N   1      31.627  15.837   7.549  0.00  0.00     0.146 C 
HETATM   10  C   UNK N   1      30.717  16.735   8.097  0.00  0.00     0.110 C 
HETATM   11  C   UNK N   1      32.608  14.670   5.523  0.00  0.00     0.170 C 
HETATM   12  O   UNK N   1      30.263  15.710   3.933  0.00  0.00    -0.200 OA
HETATM   13  O   UNK N   1      31.878  17.498   4.322  0.00  0.00    -0.200 OA
ENDROOT
BRANCH   9  14
HETATM   14  C   UNK N   1      32.543  15.041   8.472  0.00  0.00     0.277 C 
HETATM   15  N   UNK N   1      33.620  15.630   9.064  0.00  0.00    -0.308 N 
HETATM   16  H   UNK N   1      33.768  16.582   8.858  0.00  0.00     0.170 HD
HETATM   17  O   UNK N   1      32.313  13.860   8.688  0.00  0.00    -0.266 OA
BRANCH  15  18
HETATM   18  C   UNK N   1      34.557  15.022   9.950  0.00  0.00     0.107 A 
HETATM   19  N   UNK N   1      34.103  14.485  11.116  0.00  0.00    -0.352 N 
HETATM   20  C   UNK N   1      34.938  13.883  12.006  0.00  0.00     0.089 A 
ATOM     21  HN  UNK N   1      33.107  14.536  11.329  1.00  0.00     0.166 HD
HETATM   22  C   UNK N   1      36.305  13.801  11.738  0.00  0.00     0.017 A 
HETATM   23  C   UNK N   1      36.800  14.342  10.553  0.00  0.00     0.005 A 
HETATM   24  C   UNK N   1      35.928  14.955   9.653  0.00  0.00     0.048 A 
ENDBRANCH  15  18
ENDBRANCH   9  14
BRANCH  10  25
HETATM   25  O   UNK N   1      30.675  16.892   9.438  0.00  0.00    -0.357 OA
HETATM   26  H   UNK N   1      30.158  17.577   9.814  0.00  0.00     0.217 HD
ENDBRANCH  10  25
TORSDOF 3
ENDMDL
MODEL 8
REMARK VINA RESULT:      -6.6      2.576      7.423
REMARK  3 active torsions:
REMARK  status: ('A' for Active; 'I' for Inactive)
REMARK    1  A    between atoms: C_9  and  C_11 
REMARK    2  A    between atoms: C_10  and  O_21 
REMARK       I    between atoms: C_11  and  N_12 
REMARK    3  A    between atoms: N_12  and  C_13 
ROOT
HETATM    1  C   UNK N   1      20.836  17.289   4.722  0.00  0.00     0.023 A 
HETATM    2  C   UNK N   1      21.076  18.675   4.720  0.00  0.00     0.016 A 
HETATM    3  C   UNK N   1      20.973  19.420   3.541  0.00  0.00     0.001 A 
HETATM    4  C   UNK N   1      20.623  18.790   2.347  0.00  0.00     0.002 A 
HETATM    5  C   UNK N   1      20.393  17.415   2.330  0.00  0.00     0.026 A 
HETATM    6  C   UNK N   1      20.501  16.675   3.511  0.00  0.00     0.093 A 
HETATM    7  S   UNK N   1      20.280  14.945   3.488  0.00  0.00     0.266 S 
HETATM    8  N   UNK N   1      20.279  14.345   5.120  0.00  0.00    -0.268 N 
HETATM    9  C   UNK N   1      20.687  15.196   6.220  0.00  0.00     0.146 C 
HETATM   10  C   UNK N   1      20.953  16.548   6.027  0.00  0.00     0.110 C 
HETATM   11  C   UNK N   1      19.939  12.954   5.301  0.00  0.00     0.170 C 
HETATM   12  O   UNK N   1      18.995  14.412   2.832  0.00  0.00    -0.200 OA
HETATM   13  O   UNK N   1      21.426  14.188   2.803  0.00  0.00    -0.200 OA
ENDROOT
BRANCH   9  14
HETATM   14  C   UNK N   1      20.820  14.598   7.617  0.00  0.00     0.277 C 
HETATM   15  N   UNK N   1      21.897  13.833   7.948  0.00  0.00    -0.308 N 
HETATM   16  H   UNK N   1      22.567  13.689   7.242  0.00  0.00     0.170 HD
HETATM   17  O   UNK N   1      19.952  14.807   8.453  0.00  0.00    -0.266 OA
BRANCH  15  18
HETATM   18  C   UNK N   1      22.161  13.216   9.206  0.00  0.00     0.107 A 
HETATM   19  N   UNK N   1      21.110  12.815   9.973  0.00  0.00    -0.352 N 
HETATM   20  C   UNK N   1      21.286  12.214  11.181  0.00  0.00     0.089 A 
ATOM     21  HN  UNK N   1      20.161  12.971   9.632  1.00  0.00     0.166 HD
HETATM   22  C   UNK N   1      22.574  11.991  11.671  0.00  0.00     0.017 A 
HETATM   23  C   UNK N   1      23.671  12.390  10.909  0.00  0.00     0.005 A 
HETATM   24  C   UNK N   1      23.469  13.005   9.672  0.00  0.00     0.048 A 
ENDBRANCH  15  18
ENDBRANCH   9  14
BRANCH  10  25
HETATM   25  O   UNK N   1      21.337  17.299   7.081  0.00  0.00    -0.357 OA
HETATM   26  H   UNK N   1      22.170  17.728   7.073  0.00  0.00     0.217 HD
ENDBRANCH  10  25
TORSDOF 3
ENDMDL
MODEL 9
REMARK VINA RESULT:      -6.5     16.004     17.469
REMARK  3 active torsions:
REMARK  status: ('A' for Active; 'I' for Inactive)
REMARK    1  A    between atoms: C_9  and  C_11 
REMARK    2  A    between atoms: C_10  and  O_21 
REMARK       I    between atoms: C_11  and  N_12 
REMARK    3  A    between atoms: N_12  and  C_13 
ROOT
HETATM    1  C   UNK N   1      27.397  25.932  -4.904  0.00  0.00     0.023 A 
HETATM    2  C   UNK N   1      27.348  27.048  -4.050  0.00  0.00     0.016 A 
HETATM    3  C   UNK N   1      26.217  27.868  -4.001  0.00  0.00     0.001 A 
HETATM    4  C   UNK N   1      25.113  27.580  -4.803  0.00  0.00     0.002 A 
HETATM    5  C   UNK N   1      25.148  26.483  -5.664  0.00  0.00     0.026 A 
HETATM    6  C   UNK N   1      26.285  25.669  -5.710  0.00  0.00     0.093 A 
HETATM    7  S   UNK N   1      26.365  24.334  -6.830  0.00  0.00     0.266 S 
HETATM    8  N   UNK N   1      27.801  23.406  -6.512  0.00  0.00    -0.268 N 
HETATM    9  C   UNK N   1      28.830  23.915  -5.627  0.00  0.00     0.146 C 
HETATM   10  C   UNK N   1      28.641  25.085  -4.899  0.00  0.00     0.110 C 
HETATM   11  C   UNK N   1      27.944  22.164  -7.234  0.00  0.00     0.170 C 
HETATM   12  O   UNK N   1      25.195  23.337  -6.815  0.00  0.00    -0.200 OA
HETATM   13  O   UNK N   1      26.507  24.768  -8.295  0.00  0.00    -0.200 OA
ENDROOT
BRANCH   9  14
HETATM   14  C   UNK N   1      30.141  23.148  -5.488  0.00  0.00     0.277 C 
HETATM   15  N   UNK N   1      30.363  22.338  -4.415  0.00  0.00    -0.308 N 
HETATM   16  H   UNK N   1      29.641  22.285  -3.748  0.00  0.00     0.170 HD
HETATM   17  O   UNK N   1      31.003  23.257  -6.346  0.00  0.00    -0.266 OA
BRANCH  15  18
HETATM   18  C   UNK N   1      31.527  21.558  -4.152  0.00  0.00     0.107 A 
HETATM   19  N   UNK N   1      31.929  20.646  -5.080  0.00  0.00    -0.352 N 
HETATM   20  C   UNK N   1      33.033  19.872  -4.900  0.00  0.00     0.089 A 
ATOM     21  HN  UNK N   1      31.386  20.541  -5.937  1.00  0.00     0.166 HD
HETATM   22  C   UNK N   1      33.793  19.996  -3.735  0.00  0.00     0.017 A 
HETATM   23  C   UNK N   1      33.407  20.920  -2.766  0.00  0.00     0.005 A 
HETATM   24  C   UNK N   1      32.272  21.706  -2.970  0.00  0.00     0.048 A 
ENDBRANCH  15  18
ENDBRANCH   9  14
BRANCH  10  25
HETATM   25  O   UNK N   1      29.631  25.523  -4.093  0.00  0.00    -0.357 OA
HETATM   26  H   UNK N   1      30.460  25.763  -4.457  0.00  0.00     0.217 HD
ENDBRANCH  10  25
TORSDOF 3
ENDMDL
