MODEL 1
REMARK VINA RESULT:      -5.1      0.000      0.000
REMARK  1 active torsions:
REMARK  status: ('A' for Active; 'I' for Inactive)
REMARK    1  A    between atoms: C_2  and  C_3 
ROOT
HETATM    1  C   UNK N   1      35.374  12.718  17.053  0.00  0.00    -0.020 A 
HETATM    2  N   UNK N   1      35.115  13.509  19.297  0.00  0.00    -0.375 N 
ATOM      3  HN  UNK N   1      34.959  14.282  19.946  1.00  0.00     0.164 HD
HETATM    4  C   UNK N   1      35.161  13.761  17.961  0.00  0.00     0.096 A 
HETATM    5  C   UNK N   1      35.537  11.420  17.544  0.00  0.00     0.012 A 
HETATM    6  C   UNK N   1      35.273  12.251  19.786  0.00  0.00     0.087 A 
HETATM    7  C   UNK N   1      35.488  11.181  18.916  0.00  0.00     0.018 A 
ENDROOT
BRANCH   1   8
HETATM    8  C   UNK N   1      35.430  12.959  15.574  0.00  0.00     0.113 A 
HETATM    9  N   UNK N   1      36.270  13.944  14.931  0.00  0.00    -0.408 N 
HETATM   10  C   UNK N   1      36.085  13.919  13.497  0.00  0.00     0.117 A 
HETATM   11  C   UNK N   1      37.195  14.866  15.572  0.00  0.00     0.143 C 
HETATM   12  C   UNK N   1      35.044  12.830  13.214  0.00  0.00     0.022 A 
HETATM   13  C   UNK N   1      34.621  12.211  14.546  0.00  0.00     0.031 A 
ENDBRANCH   1   8
TORSDOF 1
ENDMDL
MODEL 2
REMARK VINA RESULT:      -5.1      0.943      1.912
REMARK  1 active torsions:
REMARK  status: ('A' for Active; 'I' for Inactive)
REMARK    1  A    between atoms: C_2  and  C_3 
ROOT
HETATM    1  C   UNK N   1      35.427  12.652  16.930  0.00  0.00    -0.020 A 
HETATM    2  N   UNK N   1      35.126  13.494  19.149  0.00  0.00    -0.375 N 
ATOM      3  HN  UNK N   1      34.943  14.279  19.776  1.00  0.00     0.164 HD
HETATM    4  C   UNK N   1      35.178  13.712  17.807  0.00  0.00     0.096 A 
HETATM    5  C   UNK N   1      35.620  11.372  17.456  0.00  0.00     0.012 A 
HETATM    6  C   UNK N   1      35.312  12.254  19.673  0.00  0.00     0.087 A 
HETATM    7  C   UNK N   1      35.564  11.168  18.833  0.00  0.00     0.018 A 
ENDROOT
BRANCH   1   8
HETATM    8  C   UNK N   1      35.491  12.855  15.445  0.00  0.00     0.113 A 
HETATM    9  N   UNK N   1      34.697  12.129  14.480  0.00  0.00    -0.408 N 
HETATM   10  C   UNK N   1      35.001  12.565  13.134  0.00  0.00     0.117 A 
HETATM   11  C   UNK N   1      33.712  11.094  14.749  0.00  0.00     0.143 C 
HETATM   12  C   UNK N   1      36.073  13.653  13.264  0.00  0.00     0.022 A 
HETATM   13  C   UNK N   1      36.390  13.842  14.747  0.00  0.00     0.031 A 
ENDBRANCH   1   8
TORSDOF 1
ENDMDL
MODEL 3
REMARK VINA RESULT:      -5.0      1.839      2.354
REMARK  1 active torsions:
REMARK  status: ('A' for Active; 'I' for Inactive)
REMARK    1  A    between atoms: C_2  and  C_3 
ROOT
HETATM    1  C   UNK N   1      35.061  11.808  16.712  0.00  0.00    -0.020 A 
HETATM    2  N   UNK N   1      35.409  11.392  19.042  0.00  0.00    -0.375 N 
ATOM      3  HN  UNK N   1      35.568  10.733  19.805  1.00  0.00     0.164 HD
HETATM    4  C   UNK N   1      35.279  10.922  17.772  0.00  0.00     0.096 A 
HETATM    5  C   UNK N   1      34.980  13.176  16.982  0.00  0.00     0.012 A 
HETATM    6  C   UNK N   1      35.332  12.721  19.317  0.00  0.00     0.087 A 
HETATM    7  C   UNK N   1      35.115  13.639  18.289  0.00  0.00     0.018 A 
ENDROOT
BRANCH   1   8
HETATM    8  C   UNK N   1      34.912  11.325  15.299  0.00  0.00     0.113 A 
HETATM    9  N   UNK N   1      35.982  11.277  14.329  0.00  0.00    -0.408 N 
HETATM   10  C   UNK N   1      35.505  10.762  13.064  0.00  0.00     0.117 A 
HETATM   11  C   UNK N   1      37.368  11.673  14.525  0.00  0.00     0.143 C 
HETATM   12  C   UNK N   1      34.014  10.462  13.254  0.00  0.00     0.022 A 
HETATM   13  C   UNK N   1      33.630  10.823  14.689  0.00  0.00     0.031 A 
ENDBRANCH   1   8
TORSDOF 1
ENDMDL
MODEL 4
REMARK VINA RESULT:      -4.9     14.603     16.019
REMARK  1 active torsions:
REMARK  status: ('A' for Active; 'I' for Inactive)
REMARK    1  A    between atoms: C_2  and  C_3 
ROOT
HETATM    1  C   UNK N   1      21.800  13.445   9.664  0.00  0.00    -0.020 A 
HETATM    2  N   UNK N   1      23.742  12.622  10.793  0.00  0.00    -0.375 N 
ATOM      3  HN  UNK N   1      24.759  12.562  10.866  1.00  0.00     0.164 HD
HETATM    4  C   UNK N   1      23.190  13.349   9.784  0.00  0.00     0.096 A 
HETATM    5  C   UNK N   1      20.995  12.785  10.596  0.00  0.00     0.012 A 
HETATM    6  C   UNK N   1      22.970  11.976  11.705  0.00  0.00     0.087 A 
HETATM    7  C   UNK N   1      21.578  12.045  11.623  0.00  0.00     0.018 A 
ENDROOT
BRANCH   1   8
HETATM    8  C   UNK N   1      21.156  14.237   8.565  0.00  0.00     0.113 A 
HETATM    9  N   UNK N   1      20.872  13.729   7.242  0.00  0.00    -0.408 N 
HETATM   10  C   UNK N   1      20.249  14.747   6.425  0.00  0.00     0.117 A 
HETATM   11  C   UNK N   1      21.146  12.394   6.733  0.00  0.00     0.143 C 
HETATM   12  C   UNK N   1      20.132  15.996   7.305  0.00  0.00     0.022 A 
HETATM   13  C   UNK N   1      20.713  15.673   8.681  0.00  0.00     0.031 A 
ENDBRANCH   1   8
TORSDOF 1
ENDMDL
MODEL 5
REMARK VINA RESULT:      -4.9     14.187     15.536
REMARK  1 active torsions:
REMARK  status: ('A' for Active; 'I' for Inactive)
REMARK    1  A    between atoms: C_2  and  C_3 
ROOT
HETATM    1  C   UNK N   1      22.245  12.517   9.655  0.00  0.00    -0.020 A 
HETATM    2  N   UNK N   1      22.129  11.860  11.953  0.00  0.00    -0.375 N 
ATOM      3  HN  UNK N   1      21.570  11.617  12.772  1.00  0.00     0.164 HD
HETATM    4  C   UNK N   1      21.500  12.181  10.790  0.00  0.00     0.096 A 
HETATM    5  C   UNK N   1      23.640  12.517   9.739  0.00  0.00     0.012 A 
HETATM    6  C   UNK N   1      23.484  11.856  12.047  0.00  0.00     0.087 A 
HETATM    7  C   UNK N   1      24.267  12.186  10.939  0.00  0.00     0.018 A 
ENDROOT
BRANCH   1   8
HETATM    8  C   UNK N   1      21.586  12.876   8.356  0.00  0.00     0.113 A 
HETATM    9  N   UNK N   1      20.952  14.145   8.078  0.00  0.00    -0.408 N 
HETATM   10  C   UNK N   1      20.415  14.166   6.735  0.00  0.00     0.117 A 
HETATM   11  C   UNK N   1      20.832  15.286   8.973  0.00  0.00     0.143 C 
HETATM   12  C   UNK N   1      20.737  12.800   6.119  0.00  0.00     0.022 A 
HETATM   13  C   UNK N   1      21.490  11.969   7.157  0.00  0.00     0.031 A 
ENDBRANCH   1   8
TORSDOF 1
ENDMDL
MODEL 6
REMARK VINA RESULT:      -4.8      1.555      4.719
REMARK  1 active torsions:
REMARK  status: ('A' for Active; 'I' for Inactive)
REMARK    1  A    between atoms: C_2  and  C_3 
ROOT
HETATM    1  C   UNK N   1      35.896  12.959  15.206  0.00  0.00    -0.020 A 
HETATM    2  N   UNK N   1      36.778  14.794  13.949  0.00  0.00    -0.375 N 
ATOM      3  HN  UNK N   1      37.397  15.604  13.888  1.00  0.00     0.164 HD
HETATM    4  C   UNK N   1      36.737  14.072  15.101  0.00  0.00     0.096 A 
HETATM    5  C   UNK N   1      35.103  12.606  14.110  0.00  0.00     0.012 A 
HETATM    6  C   UNK N   1      36.012  14.461  12.877  0.00  0.00     0.087 A 
HETATM    7  C   UNK N   1      35.158  13.358  12.939  0.00  0.00     0.018 A 
ENDROOT
BRANCH   1   8
HETATM    8  C   UNK N   1      35.825  12.139  16.461  0.00  0.00     0.113 A 
HETATM    9  N   UNK N   1      36.417  10.831  16.623  0.00  0.00    -0.408 N 
HETATM   10  C   UNK N   1      36.165  10.316  17.952  0.00  0.00     0.117 A 
HETATM   11  C   UNK N   1      37.172  10.076  15.636  0.00  0.00     0.143 C 
HETATM   12  C   UNK N   1      35.350  11.388  18.683  0.00  0.00     0.022 A 
HETATM   13  C   UNK N   1      35.129  12.561  17.729  0.00  0.00     0.031 A 
ENDBRANCH   1   8
TORSDOF 1
ENDMDL
MODEL 7
REMARK VINA RESULT:      -4.8      9.017     10.914
REMARK  1 active torsions:
REMARK  status: ('A' for Active; 'I' for Inactive)
REMARK    1  A    between atoms: C_2  and  C_3 
ROOT
HETATM    1  C   UNK N   1      31.986  17.298   8.408  0.00  0.00    -0.020 A 
HETATM    2  N   UNK N   1      33.693  15.685   8.866  0.00  0.00    -0.375 N 
ATOM      3  HN  UNK N   1      33.960  14.742   9.151  1.00  0.00     0.164 HD
HETATM    4  C   UNK N   1      32.374  16.012   8.796  0.00  0.00     0.096 A 
HETATM    5  C   UNK N   1      32.974  18.236   8.096  0.00  0.00     0.012 A 
HETATM    6  C   UNK N   1      34.663  16.588   8.565  0.00  0.00     0.087 A 
HETATM    7  C   UNK N   1      34.320  17.883   8.173  0.00  0.00     0.018 A 
ENDROOT
BRANCH   1   8
HETATM    8  C   UNK N   1      30.541  17.694   8.320  0.00  0.00     0.113 A 
HETATM    9  N   UNK N   1      29.699  17.480   7.165  0.00  0.00    -0.408 N 
HETATM   10  C   UNK N   1      28.362  17.976   7.407  0.00  0.00     0.117 A 
HETATM   11  C   UNK N   1      30.073  16.860   5.903  0.00  0.00     0.143 C 
HETATM   12  C   UNK N   1      28.364  18.548   8.829  0.00  0.00     0.022 A 
HETATM   13  C   UNK N   1      29.763  18.369   9.418  0.00  0.00     0.031 A 
ENDBRANCH   1   8
TORSDOF 1
ENDMDL
MODEL 8
REMARK VINA RESULT:      -4.8     13.971     15.806
REMARK  1 active torsions:
REMARK  status: ('A' for Active; 'I' for Inactive)
REMARK    1  A    between atoms: C_2  and  C_3 
ROOT
HETATM    1  C   UNK N   1      21.651  13.569   9.020  0.00  0.00    -0.020 A 
HETATM    2  N   UNK N   1      20.722  13.551   6.815  0.00  0.00    -0.375 N 
ATOM      3  HN  UNK N   1      20.567  13.068   5.928  1.00  0.00     0.164 HD
HETATM    4  C   UNK N   1      21.426  12.927   7.798  0.00  0.00     0.096 A 
HETATM    5  C   UNK N   1      21.141  14.856   9.210  0.00  0.00     0.012 A 
HETATM    6  C   UNK N   1      20.222  14.802   6.987  0.00  0.00     0.087 A 
HETATM    7  C   UNK N   1      20.423  15.479   8.191  0.00  0.00     0.018 A 
ENDROOT
BRANCH   1   8
HETATM    8  C   UNK N   1      22.422  12.911  10.126  0.00  0.00     0.113 A 
HETATM    9  N   UNK N   1      23.860  12.772  10.158  0.00  0.00    -0.408 N 
HETATM   10  C   UNK N   1      24.283  12.092  11.362  0.00  0.00     0.117 A 
HETATM   11  C   UNK N   1      24.811  13.228   9.156  0.00  0.00     0.143 C 
HETATM   12  C   UNK N   1      23.008  11.778  12.152  0.00  0.00     0.022 A 
HETATM   13  C   UNK N   1      21.810  12.303  11.361  0.00  0.00     0.031 A 
ENDBRANCH   1   8
TORSDOF 1
ENDMDL
MODEL 9
REMARK VINA RESULT:      -4.7      8.487     10.820
REMARK  1 active torsions:
REMARK  status: ('A' for Active; 'I' for Inactive)
REMARK    1  A    between atoms: C_2  and  C_3 
ROOT
HETATM    1  C   UNK N   1      30.862  17.569   8.198  0.00  0.00    -0.020 A 
HETATM    2  N   UNK N   1      28.861  17.231   6.930  0.00  0.00    -0.375 N 
ATOM      3  HN  UNK N   1      28.394  16.847   6.107  1.00  0.00     0.164 HD
HETATM    4  C   UNK N   1      30.201  17.051   7.078  0.00  0.00     0.096 A 
HETATM    5  C   UNK N   1      30.122  18.270   9.154  0.00  0.00     0.012 A 
HETATM    6  C   UNK N   1      28.131  17.911   7.853  0.00  0.00     0.087 A 
HETATM    7  C   UNK N   1      28.750  18.444   8.984  0.00  0.00     0.018 A 
ENDROOT
BRANCH   1   8
HETATM    8  C   UNK N   1      32.339  17.390   8.395  0.00  0.00     0.113 A 
HETATM    9  N   UNK N   1      32.960  16.194   8.917  0.00  0.00    -0.408 N 
HETATM   10  C   UNK N   1      34.397  16.349   8.980  0.00  0.00     0.117 A 
HETATM   11  C   UNK N   1      32.299  14.969   9.339  0.00  0.00     0.143 C 
HETATM   12  C   UNK N   1      34.704  17.756   8.455  0.00  0.00     0.022 A 
HETATM   13  C   UNK N   1      33.383  18.428   8.078  0.00  0.00     0.031 A 
ENDBRANCH   1   8
TORSDOF 1
ENDMDL
