REMARK WARNING: 32 MAX_TORS EXCEEDED!!!
REMARK  52 active torsions:
REMARK  status: ('A' for Active; 'I' for Inactive)
REMARK    1  A    between atoms: O_1  and  Al_2 
REMARK    2  A    between atoms: Al_2  and  O_3 
REMARK    3  A    between atoms: Al_2  and  O_4 
REMARK    4  A    between atoms: O_4  and  S_5 
REMARK    5  A    between atoms: S_5  and  O_8 
REMARK    6  A    between atoms: O_8  and  C_9 
REMARK    7  A    between atoms: C_10  and  C_9 
REMARK    8  A    between atoms: C_12  and  O_13 
REMARK    9  A    between atoms: C_14  and  O_13 
REMARK   10  A    between atoms: C_14  and  C_15 
REMARK   11  A    between atoms: C_15  and  O_16 
REMARK   12  A    between atoms: O_16  and  S_17 
REMARK   13  A    between atoms: S_17  and  O_20 
REMARK   14  A    between atoms: O_20  and  Al_21 
REMARK   15  A    between atoms: Al_21  and  O_22 
REMARK   16  A    between atoms: Al_21  and  O_23 
REMARK   17  A    between atoms: C_25  and  O_26 
REMARK   18  A    between atoms: O_26  and  S_27 
REMARK   19  A    between atoms: S_27  and  O_30 
REMARK   20  A    between atoms: O_30  and  Al_31 
REMARK   21  A    between atoms: Al_31  and  O_32 
REMARK   22  A    between atoms: Al_31  and  O_33 
REMARK   23  A    between atoms: C_34  and  O_35 
REMARK   24  A    between atoms: O_35  and  S_36 
REMARK   25  A    between atoms: S_36  and  O_39 
REMARK   26  A    between atoms: O_39  and  Al_40 
REMARK   27  A    between atoms: Al_40  and  O_41 
REMARK   28  A    between atoms: Al_40  and  O_42 
REMARK   29  A    between atoms: C_43  and  O_44 
REMARK   30  A    between atoms: O_44  and  S_45 
REMARK   31  A    between atoms: S_45  and  O_48 
REMARK   32  A    between atoms: O_48  and  Al_49 
REMARK   33  A    between atoms: Al_49  and  O_50 
REMARK   34  A    between atoms: Al_49  and  O_51 
REMARK   35  A    between atoms: C_52  and  O_53 
REMARK   36  A    between atoms: O_53  and  S_54 
REMARK   37  A    between atoms: S_54  and  O_57 
REMARK   38  A    between atoms: O_57  and  Al_58 
REMARK   39  A    between atoms: Al_58  and  O_77 
REMARK   40  A    between atoms: Al_58  and  O_78 
REMARK   41  A    between atoms: C_59  and  O_60 
REMARK   42  A    between atoms: O_60  and  S_61 
REMARK   43  A    between atoms: S_61  and  O_64 
REMARK   44  A    between atoms: O_64  and  Al_65 
REMARK   45  A    between atoms: Al_65  and  O_66 
REMARK   46  A    between atoms: Al_65  and  O_67 
REMARK   47  A    between atoms: C_68  and  O_69 
REMARK   48  A    between atoms: O_69  and  S_70 
REMARK   49  A    between atoms: S_70  and  O_73 
REMARK   50  A    between atoms: O_73  and  Al_74 
REMARK   51  A    between atoms: Al_74  and  O_75 
REMARK   52  A    between atoms: Al_74  and  O_76 
ROOT
HETATM    1  C   UNK N   1      -2.349   4.789   1.192  0.00  0.00     0.183 C 
HETATM    2  O   UNK N   1      -2.340   3.407   1.500  0.00  0.00    -0.348 OA
HETATM    3  C   UNK N   1      -3.075   2.670   0.553  0.00  0.00     0.297 C 
HETATM    4  C   UNK N   1      -4.569   2.961   0.754  0.00  0.00     0.232 C 
HETATM    5  C   UNK N   1      -4.836   4.471   0.509  0.00  0.00     0.213 C 
HETATM    6  C   UNK N   1      -3.586   5.354   0.446  0.00  0.00     0.209 C 
ENDROOT
BRANCH   3   7
HETATM    7  O   UNK N   1      -2.770   1.297   0.716  0.00  0.00    -0.317 OA
BRANCH   7   8
HETATM    8  C   UNK N   1      -2.268   0.759  -0.510  0.00  0.00     0.223 C 
HETATM    9  O   UNK N   1      -3.317   0.688  -1.448  0.00  0.00    -0.316 OA
HETATM   10  C   UNK N   1      -4.097  -0.392  -0.974  0.00  0.00     0.318 C 
HETATM   11  C   UNK N   1      -3.179  -1.394  -0.294  0.00  0.00     0.236 C 
HETATM   12  C   UNK N   1      -1.842  -0.706  -0.342  0.00  0.00     0.244 C 
BRANCH   8  13
HETATM   13  C   UNK N   1      -1.046   1.556  -1.034  0.00  0.00     0.264 C 
BRANCH  13  14
HETATM   14  O   UNK N   1      -0.282   2.052   0.033  0.00  0.00    -0.247 OA
BRANCH  14  15
HETATM   15  S   UNK N   1       1.058   1.006   0.295  0.00  0.00     0.429 S 
HETATM   16  O   UNK N   1       1.083   1.678   1.675  0.00  0.00    -0.166 OA
HETATM   17  O   UNK N   1       0.792  -0.284   1.084  0.00  0.00    -0.166 OA
BRANCH  15  18
HETATM   18  O   UNK N   1       2.690   1.539   0.224  0.00  0.00    -0.066 OA
BRANCH  18  19
HETATM   19 Al   UNK N   1       3.557   0.419  -0.938  0.00  0.00     0.000 Al
BRANCH  19  20
HETATM   20  O   UNK N   1       5.204   1.137  -1.318  0.00  0.00    -0.253 OA
HETATM   21  H   UNK N   1       5.967   0.573  -1.518  0.00  0.00     0.253 HD
ENDBRANCH  19  20
BRANCH  19  22
HETATM   22  O   UNK N   1       3.794  -1.212  -0.131  0.00  0.00    -0.253 OA
HETATM   23  H   UNK N   1       3.110  -1.752   0.295  0.00  0.00     0.253 HD
ENDBRANCH  19  22
ENDBRANCH  18  19
ENDBRANCH  15  18
ENDBRANCH  14  15
ENDBRANCH  13  14
ENDBRANCH   8  13
BRANCH  10  24
HETATM   24  O   UNK N   1      -4.819  -1.004  -2.000  0.00  0.00    -0.216 OA
BRANCH  24  25
HETATM   25  S   UNK N   1      -6.448  -1.151  -1.426  0.00  0.00     0.432 S 
HETATM   26  O   UNK N   1      -6.501  -0.896   0.094  0.00  0.00    -0.166 OA
HETATM   27  O   UNK N   1      -7.274  -0.008  -2.034  0.00  0.00    -0.166 OA
BRANCH  25  28
HETATM   28  O   UNK N   1      -7.203  -2.658  -1.831  0.00  0.00    -0.066 OA
BRANCH  28  29
HETATM   29 Al   UNK N   1      -8.224  -3.307  -0.423  0.00  0.00     0.000 Al
BRANCH  29  30
HETATM   30  O   UNK N   1      -9.070  -4.854  -0.927  0.00  0.00    -0.253 OA
HETATM   31  H   UNK N   1     -10.002  -4.876  -1.194  0.00  0.00     0.253 HD
ENDBRANCH  29  30
BRANCH  29  32
HETATM   32  O   UNK N   1      -9.473  -2.064   0.091  0.00  0.00    -0.253 OA
HETATM   33  H   UNK N   1      -9.234  -1.164   0.363  0.00  0.00     0.253 HD
ENDBRANCH  29  32
ENDBRANCH  28  29
ENDBRANCH  25  28
ENDBRANCH  24  25
ENDBRANCH  10  24
BRANCH  11  34
HETATM   34  O   UNK N   1      -3.587  -1.597   1.028  0.00  0.00    -0.239 OA
BRANCH  34  35
HETATM   35  S   UNK N   1      -3.608  -3.309   1.291  0.00  0.00     0.430 S 
HETATM   36  O   UNK N   1      -2.358  -3.690   2.099  0.00  0.00    -0.166 OA
HETATM   37  O   UNK N   1      -3.471  -4.062  -0.048  0.00  0.00    -0.166 OA
BRANCH  35  38
HETATM   38  O   UNK N   1      -5.015  -3.850   2.137  0.00  0.00    -0.066 OA
BRANCH  38  39
HETATM   39 Al   UNK N   1      -5.154  -5.695   2.025  0.00  0.00     0.000 Al
BRANCH  39  40
HETATM   40  O   UNK N   1      -6.161  -6.138   0.557  0.00  0.00    -0.253 OA
HETATM   41  H   UNK N   1      -6.630  -5.794  -0.219  0.00  0.00     0.253 HD
ENDBRANCH  39  40
BRANCH  39  42
HETATM   42  O   UNK N   1      -3.500  -6.485   1.889  0.00  0.00    -0.253 OA
HETATM   43  H   UNK N   1      -3.424  -7.449   1.817  0.00  0.00     0.253 HD
ENDBRANCH  39  42
ENDBRANCH  38  39
ENDBRANCH  35  38
ENDBRANCH  34  35
ENDBRANCH  11  34
BRANCH  12  44
HETATM   44  O   UNK N   1      -1.211  -1.108  -1.535  0.00  0.00    -0.238 OA
BRANCH  44  45
HETATM   45  S   UNK N   1      -0.300  -2.540  -1.231  0.00  0.00     0.430 S 
HETATM   46  O   UNK N   1      -0.982  -3.696  -1.984  0.00  0.00    -0.166 OA
HETATM   47  O   UNK N   1       1.067  -2.374  -1.914  0.00  0.00    -0.166 OA
BRANCH  45  48
HETATM   48  O   UNK N   1      -0.065  -2.948   0.432  0.00  0.00    -0.066 OA
BRANCH  48  49
HETATM   49 Al   UNK N   1       0.674  -4.643   0.544  0.00  0.00     0.000 Al
BRANCH  49  50
HETATM   50  O   UNK N   1      -0.603  -5.899   0.139  0.00  0.00    -0.253 OA
HETATM   51  H   UNK N   1      -1.515  -5.647  -0.074  0.00  0.00     0.253 HD
ENDBRANCH  49  50
BRANCH  49  52
HETATM   52  O   UNK N   1       2.091  -4.814  -0.611  0.00  0.00    -0.253 OA
HETATM   53  H   UNK N   1       2.387  -5.507  -1.221  0.00  0.00     0.253 HD
ENDBRANCH  49  52
ENDBRANCH  48  49
ENDBRANCH  45  48
ENDBRANCH  44  45
ENDBRANCH  12  44
ENDBRANCH   7   8
ENDBRANCH   3   7
BRANCH   4  54
HETATM   54  O   UNK N   1      -4.940   2.594   2.057  0.00  0.00    -0.239 OA
BRANCH  54  55
HETATM   55  S   UNK N   1      -6.558   1.994   1.971  0.00  0.00     0.430 S 
HETATM   56  O   UNK N   1      -7.415   2.837   2.929  0.00  0.00    -0.166 OA
HETATM   57  O   UNK N   1      -6.580   0.574   2.555  0.00  0.00    -0.166 OA
BRANCH  55  58
HETATM   58  O   UNK N   1      -7.260   1.998   0.388  0.00  0.00    -0.066 OA
BRANCH  58  59
HETATM   59 Al   UNK N   1      -9.069   1.588   0.473  0.00  0.00     0.000 Al
BRANCH  59  60
HETATM   60  O   UNK N   1     -10.079   3.089   0.163  0.00  0.00    -0.253 OA
HETATM   61  H   UNK N   1      -9.659   3.948  -0.000  0.00  0.00     0.253 HD
ENDBRANCH  59  60
BRANCH  59  62
HETATM   62  O   UNK N   1      -9.534   0.841   2.085  0.00  0.00    -0.253 OA
HETATM   63  H   UNK N   1      -9.998   0.856   2.936  0.00  0.00     0.253 HD
ENDBRANCH  59  62
ENDBRANCH  58  59
ENDBRANCH  55  58
ENDBRANCH  54  55
ENDBRANCH   4  54
BRANCH   1  64
HETATM   64  C   UNK N   1      -0.996   5.291   0.691  0.00  0.00     0.227 C 
BRANCH  64  65
HETATM   65  O   UNK N   1      -0.728   4.775  -0.579  0.00  0.00    -0.250 OA
BRANCH  65  66
HETATM   66  S   UNK N   1       0.915   5.163  -0.905  0.00  0.00     0.429 S 
HETATM   67  O   UNK N   1       1.047   6.686  -1.073  0.00  0.00    -0.166 OA
HETATM   68  O   UNK N   1       1.245   4.582  -2.291  0.00  0.00    -0.166 OA
BRANCH  66  69
HETATM   69  O   UNK N   1       2.034   4.557   0.264  0.00  0.00    -0.066 OA
BRANCH  69  70
HETATM   70 Al   UNK N   1       3.762   4.926  -0.290  0.00  0.00     0.000 Al
BRANCH  70  71
HETATM   71  O   UNK N   1       4.120   4.076  -1.877  0.00  0.00    -0.253 OA
HETATM   72  H   UNK N   1       3.825   3.688  -2.716  0.00  0.00     0.253 HD
ENDBRANCH  70  71
BRANCH  70  73
HETATM   73  O   UNK N   1       4.002   6.734  -0.485  0.00  0.00    -0.253 OA
HETATM   74  H   UNK N   1       4.894   7.102  -0.588  0.00  0.00     0.253 HD
ENDBRANCH  70  73
ENDBRANCH  69  70
ENDBRANCH  66  69
ENDBRANCH  65  66
ENDBRANCH  64  65
ENDBRANCH   1  64
BRANCH   5  75
HETATM   75  O   UNK N   1      -5.763   5.000   1.415  0.00  0.00    -0.241 OA
BRANCH  75  76
HETATM   76  S   UNK N   1      -7.142   5.523   0.512  0.00  0.00     0.430 S 
HETATM   77  O   UNK N   1      -7.290   4.701  -0.782  0.00  0.00    -0.166 OA
HETATM   78  O   UNK N   1      -8.373   5.146   1.350  0.00  0.00    -0.166 OA
BRANCH  76  79
HETATM   79  O   UNK N   1      -7.182   7.217   0.179  0.00  0.00    -0.066 OA
BRANCH  79  80
HETATM   80 Al   UNK N   1      -8.755   7.650  -0.709  0.00  0.00     0.000 Al
BRANCH  80  81
HETATM   81  O   UNK N   1     -10.142   6.542  -0.232  0.00  0.00    -0.253 OA
HETATM   82  H   UNK N   1     -11.014   6.884   0.020  0.00  0.00     0.253 HD
ENDBRANCH  80  81
BRANCH  80  83
HETATM   83  O   UNK N   1      -9.219   9.380  -0.311  0.00  0.00    -0.253 OA
HETATM   84  H   UNK N   1      -8.549  10.050  -0.101  0.00  0.00     0.253 HD
ENDBRANCH  80  83
ENDBRANCH  79  80
ENDBRANCH  76  79
ENDBRANCH  75  76
ENDBRANCH   5  75
BRANCH   6  85
HETATM   85  O   UNK N   1      -3.305   5.719  -0.873  0.00  0.00    -0.241 OA
BRANCH  85  86
HETATM   86  S   UNK N   1      -3.411   7.441  -0.873  0.00  0.00     0.430 S 
HETATM   87  O   UNK N   1      -4.720   7.849  -1.568  0.00  0.00    -0.166 OA
HETATM   88  O   UNK N   1      -2.282   7.990  -1.761  0.00  0.00    -0.166 OA
BRANCH  86  89
HETATM   89  O   UNK N   1      -3.295   8.147   0.705  0.00  0.00    -0.066 OA
BRANCH  89  90
HETATM   90 Al   UNK N   1      -3.713   9.946   0.637  0.00  0.00     0.000 Al
BRANCH  90  91
HETATM   91  O   UNK N   1      -5.474  10.174   0.176  0.00  0.00    -0.253 OA
HETATM   92  H   UNK N   1      -5.835  11.041  -0.068  0.00  0.00     0.253 HD
ENDBRANCH  90  91
BRANCH  90  93
HETATM   93  O   UNK N   1      -2.625  10.816  -0.557  0.00  0.00    -0.253 OA
HETATM   94  H   UNK N   1      -1.939  10.548  -1.189  0.00  0.00     0.253 HD
ENDBRANCH  90  93
ENDBRANCH  89  90
ENDBRANCH  86  89
ENDBRANCH  85  86
ENDBRANCH   6  85
TORSDOF 52
