MODEL 1
REMARK VINA RESULT:      -8.8      0.000      0.000
REMARK  13 active torsions:
REMARK  status: ('A' for Active; 'I' for Inactive)
REMARK    1  A    between atoms: C_16  and  C_3 
REMARK    2  A    between atoms: C_25  and  C_4 
REMARK    3  A    between atoms: C_17  and  C_15 
REMARK    4  A    between atoms: C_21  and  C_15 
REMARK    5  A    between atoms: C_30  and  C_16 
REMARK    6  A    between atoms: C_30  and  C_17 
REMARK    7  A    between atoms: C_25  and  C_22 
REMARK    8  A    between atoms: C_31  and  C_23 
REMARK    9  A    between atoms: N_37  and  C_24 
REMARK   10  A    between atoms: C_25  and  C_28 
REMARK   11  A    between atoms: O_38  and  C_26 
REMARK   12  A    between atoms: S_43  and  C_27 
REMARK   13  A    between atoms: S_43  and  N_37 
ROOT
HETATM    1  C   UNK N   1      31.569  16.730   8.270  0.00  0.00     0.060 C 
ENDROOT
BRANCH   1   2
HETATM    2  C   UNK N   1      31.353  18.207   8.682  0.00  0.00     0.010 C 
HETATM    3  C   UNK N   1      30.074  18.537   9.433  0.00  0.00     0.006 C 
ENDBRANCH   1   2
BRANCH   1   4
HETATM    4  C   UNK N   1      31.518  16.877   6.758  0.00  0.00    -0.047 A 
HETATM    5  C   UNK N   1      32.693  16.951   5.980  0.00  0.00     0.008 A 
HETATM    6  C   UNK N   1      32.620  17.238   4.612  0.00  0.00     0.003 A 
HETATM    7  C   UNK N   1      31.388  17.553   4.029  0.00  0.00     0.030 A 
HETATM    8  C   UNK N   1      30.226  17.554   4.810  0.00  0.00     0.043 A 
HETATM    9  C   UNK N   1      30.311  17.196   6.158  0.00  0.00     0.038 A 
BRANCH   8  10
HETATM   10  N   UNK N   1      29.008  18.090   4.273  0.00  0.00    -0.279 N 
HETATM   11  H   UNK N   1      28.860  17.974   3.306  0.00  0.00     0.179 HD
BRANCH  10  12
HETATM   12  S   UNK N   1      27.724  18.955   5.190  0.00  0.00     0.278 S 
HETATM   13  O   UNK N   1      27.703  19.791   3.902  0.00  0.00    -0.199 OA
HETATM   14  O   UNK N   1      27.108  17.566   4.936  0.00  0.00    -0.199 OA
BRANCH  12  15
HETATM   15  C   UNK N   1      25.947  19.045   4.627  0.00  0.00     0.149 A 
HETATM   16  C   UNK N   1      25.581  20.034   3.703  0.00  0.00     0.044 A 
HETATM   17  C   UNK N   1      24.242  20.155   3.307  0.00  0.00     0.020 A 
HETATM   18  C   UNK N   1      23.269  19.302   3.841  0.00  0.00     0.063 A 
HETATM   19  C   UNK N   1      23.665  18.321   4.742  0.00  0.00     0.105 A 
HETATM   20  N   UNK N   1      24.964  18.208   5.108  0.00  0.00    -0.355 N 
ATOM     21  HN  UNK N   1      25.225  17.473   5.767  1.00  0.00     0.166 HD
BRANCH  18  22
HETATM   22  C   UNK N   1      21.819  19.443   3.465  0.00  0.00     0.418 C 
HETATM   23  F   UNK N   1      21.050  19.533   4.609  0.00  0.00    -0.166 F 
HETATM   24  F   UNK N   1      21.607  20.578   2.698  0.00  0.00    -0.166 F 
HETATM   25  F   UNK N   1      21.420  18.341   2.731  0.00  0.00    -0.166 F 
ENDBRANCH  18  22
ENDBRANCH  12  15
ENDBRANCH  10  12
ENDBRANCH   8  10
ENDBRANCH   1   4
BRANCH   1  26
HETATM   26  C   UNK N   1      32.929  16.214   8.787  0.00  0.00     0.055 C 
HETATM   27  C   UNK N   1      33.126  14.899   9.055  0.00  0.00     0.059 C 
HETATM   28  C   UNK N   1      34.223  14.491   9.989  0.00  0.00     0.103 C 
HETATM   29  C   UNK N   1      35.500  15.299   9.881  0.00  0.00     0.077 C 
HETATM   30  O   UNK N   1      35.298  16.582   9.381  0.00  0.00    -0.306 OA
HETATM   31  C   UNK N   1      34.104  17.108   9.033  0.00  0.00     0.293 C 
HETATM   32  O   UNK N   1      34.060  18.302   8.749  0.00  0.00    -0.259 OA
BRANCH  27  33
HETATM   33  O   UNK N   1      32.280  13.948   8.631  0.00  0.00    -0.364 OA
HETATM   34  H   UNK N   1      31.388  14.150   8.431  0.00  0.00     0.217 HD
ENDBRANCH  27  33
BRANCH  29  35
HETATM   35  C   UNK N   1      36.501  14.484   9.035  0.00  0.00     0.038 C 
BRANCH  35  36
HETATM   36  C   UNK N   1      36.215  12.998   8.900  0.00  0.00    -0.002 C 
HETATM   37  C   UNK N   1      37.535  12.248   8.929  0.00  0.00     0.005 C 
ENDBRANCH  35  36
ENDBRANCH  29  35
BRANCH  29  38
HETATM   38  C   UNK N   1      36.087  15.505  11.283  0.00  0.00     0.043 C 
BRANCH  38  39
HETATM   39  C   UNK N   1      35.339  14.583  12.242  0.00  0.00     0.041 C 
BRANCH  39  40
HETATM   40  C   UNK N   1      36.109  13.632  13.083  0.00  0.00    -0.058 A 
HETATM   41  C   UNK N   1      35.842  13.624  14.452  0.00  0.00     0.007 A 
HETATM   42  C   UNK N   1      36.407  12.651  15.275  0.00  0.00     0.001 A 
HETATM   43  C   UNK N   1      37.237  11.672  14.727  0.00  0.00     0.000 A 
HETATM   44  C   UNK N   1      37.508  11.671  13.353  0.00  0.00     0.001 A 
HETATM   45  C   UNK N   1      36.933  12.643  12.524  0.00  0.00     0.007 A 
ENDBRANCH  39  40
ENDBRANCH  38  39
ENDBRANCH  29  38
ENDBRANCH   1  26
TORSDOF 13
ENDMDL
MODEL 2
REMARK VINA RESULT:      -8.7      5.781      9.223
REMARK  13 active torsions:
REMARK  status: ('A' for Active; 'I' for Inactive)
REMARK    1  A    between atoms: C_16  and  C_3 
REMARK    2  A    between atoms: C_25  and  C_4 
REMARK    3  A    between atoms: C_17  and  C_15 
REMARK    4  A    between atoms: C_21  and  C_15 
REMARK    5  A    between atoms: C_30  and  C_16 
REMARK    6  A    between atoms: C_30  and  C_17 
REMARK    7  A    between atoms: C_25  and  C_22 
REMARK    8  A    between atoms: C_31  and  C_23 
REMARK    9  A    between atoms: N_37  and  C_24 
REMARK   10  A    between atoms: C_25  and  C_28 
REMARK   11  A    between atoms: O_38  and  C_26 
REMARK   12  A    between atoms: S_43  and  C_27 
REMARK   13  A    between atoms: S_43  and  N_37 
ROOT
HETATM    1  C   UNK N   1      24.646  19.980   4.354  0.00  0.00     0.060 C 
ENDROOT
BRANCH   1   2
HETATM    2  C   UNK N   1      24.917  20.239   2.852  0.00  0.00     0.010 C 
HETATM    3  C   UNK N   1      26.196  20.976   2.494  0.00  0.00     0.006 C 
ENDBRANCH   1   2
BRANCH   1   4
HETATM    4  C   UNK N   1      23.373  19.156   4.246  0.00  0.00    -0.047 A 
HETATM    5  C   UNK N   1      22.519  19.256   3.128  0.00  0.00     0.008 A 
HETATM    6  C   UNK N   1      21.281  18.603   3.122  0.00  0.00     0.003 A 
HETATM    7  C   UNK N   1      20.840  17.930   4.267  0.00  0.00     0.030 A 
HETATM    8  C   UNK N   1      21.651  17.888   5.407  0.00  0.00     0.043 A 
HETATM    9  C   UNK N   1      22.913  18.487   5.368  0.00  0.00     0.038 A 
BRANCH   8  10
HETATM   10  N   UNK N   1      21.115  17.397   6.645  0.00  0.00    -0.279 N 
HETATM   11  H   UNK N   1      21.072  18.035   7.394  0.00  0.00     0.179 HD
BRANCH  10  12
HETATM   12  S   UNK N   1      20.514  15.731   6.965  0.00  0.00     0.278 S 
HETATM   13  O   UNK N   1      21.951  15.392   6.541  0.00  0.00    -0.199 OA
HETATM   14  O   UNK N   1      20.510  16.388   8.359  0.00  0.00    -0.199 OA
BRANCH  12  15
HETATM   15  C   UNK N   1      21.226  14.623   8.287  0.00  0.00     0.149 A 
HETATM   16  C   UNK N   1      22.512  14.096   8.105  0.00  0.00     0.044 A 
HETATM   17  C   UNK N   1      23.045  13.217   9.058  0.00  0.00     0.020 A 
HETATM   18  C   UNK N   1      22.293  12.855  10.182  0.00  0.00     0.063 A 
HETATM   19  C   UNK N   1      21.029  13.408  10.343  0.00  0.00     0.105 A 
HETATM   20  N   UNK N   1      20.530  14.264   9.420  0.00  0.00    -0.355 N 
ATOM     21  HN  UNK N   1      19.600  14.658   9.569  1.00  0.00     0.166 HD
BRANCH  18  22
HETATM   22  C   UNK N   1      22.828  11.880  11.195  0.00  0.00     0.418 C 
HETATM   23  F   UNK N   1      22.943  10.630  10.618  0.00  0.00    -0.166 F 
HETATM   24  F   UNK N   1      24.074  12.270  11.659  0.00  0.00    -0.166 F 
HETATM   25  F   UNK N   1      21.965  11.808  12.273  0.00  0.00    -0.166 F 
ENDBRANCH  18  22
ENDBRANCH  12  15
ENDBRANCH  10  12
ENDBRANCH   8  10
ENDBRANCH   1   4
BRANCH   1  26
HETATM   26  C   UNK N   1      25.820  19.208   4.994  0.00  0.00     0.055 C 
HETATM   27  C   UNK N   1      26.537  19.739   6.015  0.00  0.00     0.059 C 
HETATM   28  C   UNK N   1      27.921  19.238   6.285  0.00  0.00     0.103 C 
HETATM   29  C   UNK N   1      28.120  17.747   6.099  0.00  0.00     0.077 C 
HETATM   30  O   UNK N   1      27.213  17.179   5.209  0.00  0.00    -0.306 OA
HETATM   31  C   UNK N   1      26.250  17.849   4.539  0.00  0.00     0.293 C 
HETATM   32  O   UNK N   1      25.621  17.243   3.675  0.00  0.00    -0.259 OA
BRANCH  27  33
HETATM   33  O   UNK N   1      26.112  20.806   6.709  0.00  0.00    -0.364 OA
HETATM   34  H   UNK N   1      26.718  21.364   7.155  0.00  0.00     0.217 HD
ENDBRANCH  27  33
BRANCH  29  35
HETATM   35  C   UNK N   1      28.072  17.089   7.494  0.00  0.00     0.038 C 
BRANCH  35  36
HETATM   36  C   UNK N   1      28.074  18.034   8.684  0.00  0.00    -0.002 C 
HETATM   37  C   UNK N   1      28.769  17.346   9.846  0.00  0.00     0.005 C 
ENDBRANCH  35  36
ENDBRANCH  29  35
BRANCH  29  38
HETATM   38  C   UNK N   1      29.499  17.494   5.477  0.00  0.00     0.043 C 
BRANCH  38  39
HETATM   39  C   UNK N   1      30.270  16.566   6.414  0.00  0.00     0.041 C 
BRANCH  39  40
HETATM   40  C   UNK N   1      31.636  16.949   6.852  0.00  0.00    -0.058 A 
HETATM   41  C   UNK N   1      32.664  16.842   5.915  0.00  0.00     0.007 A 
HETATM   42  C   UNK N   1      33.935  17.334   6.205  0.00  0.00     0.001 A 
HETATM   43  C   UNK N   1      34.182  17.945   7.436  0.00  0.00     0.000 A 
HETATM   44  C   UNK N   1      33.155  18.057   8.381  0.00  0.00     0.001 A 
HETATM   45  C   UNK N   1      31.874  17.572   8.086  0.00  0.00     0.007 A 
ENDBRANCH  39  40
ENDBRANCH  38  39
ENDBRANCH  29  38
ENDBRANCH   1  26
TORSDOF 13
ENDMDL
MODEL 3
REMARK VINA RESULT:      -8.7      6.286     12.229
REMARK  13 active torsions:
REMARK  status: ('A' for Active; 'I' for Inactive)
REMARK    1  A    between atoms: C_16  and  C_3 
REMARK    2  A    between atoms: C_25  and  C_4 
REMARK    3  A    between atoms: C_17  and  C_15 
REMARK    4  A    between atoms: C_21  and  C_15 
REMARK    5  A    between atoms: C_30  and  C_16 
REMARK    6  A    between atoms: C_30  and  C_17 
REMARK    7  A    between atoms: C_25  and  C_22 
REMARK    8  A    between atoms: C_31  and  C_23 
REMARK    9  A    between atoms: N_37  and  C_24 
REMARK   10  A    between atoms: C_25  and  C_28 
REMARK   11  A    between atoms: O_38  and  C_26 
REMARK   12  A    between atoms: S_43  and  C_27 
REMARK   13  A    between atoms: S_43  and  N_37 
ROOT
HETATM    1  C   UNK N   1      20.680  16.890   4.108  0.00  0.00     0.060 C 
ENDROOT
BRANCH   1   2
HETATM    2  C   UNK N   1      21.227  18.303   3.790  0.00  0.00     0.010 C 
HETATM    3  C   UNK N   1      20.275  19.281   3.123  0.00  0.00     0.006 C 
ENDBRANCH   1   2
BRANCH   1   4
HETATM    4  C   UNK N   1      21.906  16.059   3.763  0.00  0.00    -0.047 A 
HETATM    5  C   UNK N   1      21.900  14.652   3.864  0.00  0.00     0.008 A 
HETATM    6  C   UNK N   1      23.082  13.924   3.688  0.00  0.00     0.003 A 
HETATM    7  C   UNK N   1      24.297  14.596   3.511  0.00  0.00     0.030 A 
HETATM    8  C   UNK N   1      24.323  15.995   3.482  0.00  0.00     0.043 A 
HETATM    9  C   UNK N   1      23.122  16.701   3.590  0.00  0.00     0.038 A 
BRANCH   8  10
HETATM   10  N   UNK N   1      25.581  16.686   3.526  0.00  0.00    -0.279 N 
HETATM   11  H   UNK N   1      26.298  16.338   2.949  0.00  0.00     0.179 HD
BRANCH  10  12
HETATM   12  S   UNK N   1      25.977  18.124   4.533  0.00  0.00     0.278 S 
HETATM   13  O   UNK N   1      25.568  17.154   5.650  0.00  0.00    -0.199 OA
HETATM   14  O   UNK N   1      27.339  17.714   3.942  0.00  0.00    -0.199 OA
BRANCH  12  15
HETATM   15  C   UNK N   1      27.347  18.141   5.799  0.00  0.00     0.149 A 
HETATM   16  C   UNK N   1      28.446  17.290   5.615  0.00  0.00     0.044 A 
HETATM   17  C   UNK N   1      29.461  17.246   6.582  0.00  0.00     0.020 A 
HETATM   18  C   UNK N   1      29.374  18.037   7.733  0.00  0.00     0.063 A 
HETATM   19  C   UNK N   1      28.281  18.884   7.877  0.00  0.00     0.105 A 
HETATM   20  N   UNK N   1      27.313  18.924   6.932  0.00  0.00    -0.355 N 
ATOM     21  HN  UNK N   1      26.526  19.561   7.063  1.00  0.00     0.166 HD
BRANCH  18  22
HETATM   22  C   UNK N   1      30.428  17.973   8.803  0.00  0.00     0.418 C 
HETATM   23  F   UNK N   1      31.680  18.065   8.226  0.00  0.00    -0.166 F 
HETATM   24  F   UNK N   1      30.283  19.008   9.714  0.00  0.00    -0.166 F 
HETATM   25  F   UNK N   1      30.326  16.774   9.485  0.00  0.00    -0.166 F 
ENDBRANCH  18  22
ENDBRANCH  12  15
ENDBRANCH  10  12
ENDBRANCH   8  10
ENDBRANCH   1   4
BRANCH   1  26
HETATM   26  C   UNK N   1      20.271  16.785   5.593  0.00  0.00     0.055 C 
HETATM   27  C   UNK N   1      21.048  17.305   6.575  0.00  0.00     0.059 C 
HETATM   28  C   UNK N   1      20.917  16.788   7.973  0.00  0.00     0.103 C 
HETATM   29  C   UNK N   1      19.505  16.455   8.412  0.00  0.00     0.077 C 
HETATM   30  O   UNK N   1      18.659  16.145   7.352  0.00  0.00    -0.306 OA
HETATM   31  C   UNK N   1      19.016  16.109   6.050  0.00  0.00     0.293 C 
HETATM   32  O   UNK N   1      18.202  15.675   5.240  0.00  0.00    -0.259 OA
BRANCH  27  33
HETATM   33  O   UNK N   1      22.043  18.168   6.319  0.00  0.00    -0.364 OA
HETATM   34  H   UNK N   1      22.636  18.435   6.993  0.00  0.00     0.217 HD
ENDBRANCH  27  33
BRANCH  29  35
HETATM   35  C   UNK N   1      18.986  17.637   9.258  0.00  0.00     0.038 C 
BRANCH  35  36
HETATM   36  C   UNK N   1      17.524  17.579   9.671  0.00  0.00    -0.002 C 
HETATM   37  C   UNK N   1      17.322  18.498  10.862  0.00  0.00     0.005 C 
ENDBRANCH  35  36
ENDBRANCH  29  35
BRANCH  29  38
HETATM   38  C   UNK N   1      19.530  15.193   9.284  0.00  0.00     0.043 C 
BRANCH  38  39
HETATM   39  C   UNK N   1      20.697  14.327   8.817  0.00  0.00     0.041 C 
BRANCH  39  40
HETATM   40  C   UNK N   1      21.325  13.379   9.771  0.00  0.00    -0.058 A 
HETATM   41  C   UNK N   1      22.715  13.263   9.740  0.00  0.00     0.007 A 
HETATM   42  C   UNK N   1      23.382  12.518  10.711  0.00  0.00     0.001 A 
HETATM   43  C   UNK N   1      22.658  11.889  11.726  0.00  0.00     0.000 A 
HETATM   44  C   UNK N   1      21.263  12.002  11.765  0.00  0.00     0.001 A 
HETATM   45  C   UNK N   1      20.593  12.759  10.795  0.00  0.00     0.007 A 
ENDBRANCH  39  40
ENDBRANCH  38  39
ENDBRANCH  29  38
ENDBRANCH   1  26
TORSDOF 13
ENDMDL
MODEL 4
REMARK VINA RESULT:      -8.7      1.345      2.451
REMARK  13 active torsions:
REMARK  status: ('A' for Active; 'I' for Inactive)
REMARK    1  A    between atoms: C_16  and  C_3 
REMARK    2  A    between atoms: C_25  and  C_4 
REMARK    3  A    between atoms: C_17  and  C_15 
REMARK    4  A    between atoms: C_21  and  C_15 
REMARK    5  A    between atoms: C_30  and  C_16 
REMARK    6  A    between atoms: C_30  and  C_17 
REMARK    7  A    between atoms: C_25  and  C_22 
REMARK    8  A    between atoms: C_31  and  C_23 
REMARK    9  A    between atoms: N_37  and  C_24 
REMARK   10  A    between atoms: C_25  and  C_28 
REMARK   11  A    between atoms: O_38  and  C_26 
REMARK   12  A    between atoms: S_43  and  C_27 
REMARK   13  A    between atoms: S_43  and  N_37 
ROOT
HETATM    1  C   UNK N   1      32.168  17.582   7.202  0.00  0.00     0.060 C 
ENDROOT
BRANCH   1   2
HETATM    2  C   UNK N   1      31.756  16.875   5.888  0.00  0.00     0.010 C 
HETATM    3  C   UNK N   1      32.810  16.765   4.799  0.00  0.00     0.006 C 
ENDBRANCH   1   2
BRANCH   1   4
HETATM    4  C   UNK N   1      30.791  17.899   7.764  0.00  0.00    -0.047 A 
HETATM    5  C   UNK N   1      30.595  18.170   9.134  0.00  0.00     0.008 A 
HETATM    6  C   UNK N   1      29.301  18.309   9.650  0.00  0.00     0.003 A 
HETATM    7  C   UNK N   1      28.192  18.079   8.828  0.00  0.00     0.030 A 
HETATM    8  C   UNK N   1      28.379  17.737   7.484  0.00  0.00     0.043 A 
HETATM    9  C   UNK N   1      29.678  17.673   6.971  0.00  0.00     0.038 A 
BRANCH   8  10
HETATM   10  N   UNK N   1      27.263  17.284   6.702  0.00  0.00    -0.279 N 
HETATM   11  H   UNK N   1      26.605  16.712   7.158  0.00  0.00     0.179 HD
BRANCH  10  12
HETATM   12  S   UNK N   1      26.949  17.659   4.970  0.00  0.00     0.278 S 
HETATM   13  O   UNK N   1      25.900  16.555   5.172  0.00  0.00    -0.199 OA
HETATM   14  O   UNK N   1      26.517  18.946   5.698  0.00  0.00    -0.199 OA
BRANCH  12  15
HETATM   15  C   UNK N   1      25.323  18.330   4.347  0.00  0.00     0.149 A 
HETATM   16  C   UNK N   1      25.325  19.517   3.600  0.00  0.00     0.044 A 
HETATM   17  C   UNK N   1      24.111  20.069   3.168  0.00  0.00     0.020 A 
HETATM   18  C   UNK N   1      22.899  19.448   3.492  0.00  0.00     0.063 A 
HETATM   19  C   UNK N   1      22.931  18.264   4.219  0.00  0.00     0.105 A 
HETATM   20  N   UNK N   1      24.111  17.736   4.621  0.00  0.00    -0.355 N 
ATOM     21  HN  UNK N   1      24.102  16.861   5.148  1.00  0.00     0.166 HD
BRANCH  18  22
HETATM   22  C   UNK N   1      21.582  20.047   3.078  0.00  0.00     0.418 C 
HETATM   23  F   UNK N   1      21.067  19.338   2.011  0.00  0.00    -0.166 F 
HETATM   24  F   UNK N   1      20.666  20.012   4.118  0.00  0.00    -0.166 F 
HETATM   25  F   UNK N   1      21.768  21.365   2.705  0.00  0.00    -0.166 F 
ENDBRANCH  18  22
ENDBRANCH  12  15
ENDBRANCH  10  12
ENDBRANCH   8  10
ENDBRANCH   1   4
BRANCH   1  26
HETATM   26  C   UNK N   1      32.988  16.629   8.099  0.00  0.00     0.055 C 
HETATM   27  C   UNK N   1      32.622  15.334   8.267  0.00  0.00     0.059 C 
HETATM   28  C   UNK N   1      33.096  14.583   9.472  0.00  0.00     0.103 C 
HETATM   29  C   UNK N   1      34.515  14.888   9.910  0.00  0.00     0.077 C 
HETATM   30  O   UNK N   1      34.950  16.150   9.520  0.00  0.00    -0.306 OA
HETATM   31  C   UNK N   1      34.216  17.057   8.839  0.00  0.00     0.293 C 
HETATM   32  O   UNK N   1      34.680  18.184   8.695  0.00  0.00    -0.259 OA
BRANCH  27  33
HETATM   33  O   UNK N   1      31.725  14.734   7.469  0.00  0.00    -0.364 OA
HETATM   34  H   UNK N   1      31.812  13.830   7.241  0.00  0.00     0.217 HD
ENDBRANCH  27  33
BRANCH  29  35
HETATM   35  C   UNK N   1      35.422  13.758   9.379  0.00  0.00     0.038 C 
BRANCH  35  36
HETATM   36  C   UNK N   1      36.454  14.156   8.337  0.00  0.00    -0.002 C 
HETATM   37  C   UNK N   1      35.838  13.985   6.960  0.00  0.00     0.005 C 
ENDBRANCH  35  36
ENDBRANCH  29  35
BRANCH  29  38
HETATM   38  C   UNK N   1      34.579  14.899  11.442  0.00  0.00     0.043 C 
BRANCH  38  39
HETATM   39  C   UNK N   1      35.025  13.512  11.900  0.00  0.00     0.041 C 
BRANCH  39  40
HETATM   40  C   UNK N   1      35.429  13.311  13.314  0.00  0.00    -0.058 A 
HETATM   41  C   UNK N   1      36.423  14.147  13.823  0.00  0.00     0.007 A 
HETATM   42  C   UNK N   1      36.737  14.123  15.181  0.00  0.00     0.001 A 
HETATM   43  C   UNK N   1      36.049  13.264  16.040  0.00  0.00     0.000 A 
HETATM   44  C   UNK N   1      35.050  12.422  15.537  0.00  0.00     0.001 A 
HETATM   45  C   UNK N   1      34.727  12.453  14.175  0.00  0.00     0.007 A 
ENDBRANCH  39  40
ENDBRANCH  38  39
ENDBRANCH  29  38
ENDBRANCH   1  26
TORSDOF 13
ENDMDL
MODEL 5
REMARK VINA RESULT:      -8.4      5.862     11.434
REMARK  13 active torsions:
REMARK  status: ('A' for Active; 'I' for Inactive)
REMARK    1  A    between atoms: C_16  and  C_3 
REMARK    2  A    between atoms: C_25  and  C_4 
REMARK    3  A    between atoms: C_17  and  C_15 
REMARK    4  A    between atoms: C_21  and  C_15 
REMARK    5  A    between atoms: C_30  and  C_16 
REMARK    6  A    between atoms: C_30  and  C_17 
REMARK    7  A    between atoms: C_25  and  C_22 
REMARK    8  A    between atoms: C_31  and  C_23 
REMARK    9  A    between atoms: N_37  and  C_24 
REMARK   10  A    between atoms: C_25  and  C_28 
REMARK   11  A    between atoms: O_38  and  C_26 
REMARK   12  A    between atoms: S_43  and  C_27 
REMARK   13  A    between atoms: S_43  and  N_37 
ROOT
HETATM    1  C   UNK N   1      22.031  18.139   3.528  0.00  0.00     0.060 C 
ENDROOT
BRANCH   1   2
HETATM    2  C   UNK N   1      21.048  19.237   4.003  0.00  0.00     0.010 C 
HETATM    3  C   UNK N   1      19.958  19.658   3.033  0.00  0.00     0.006 C 
ENDBRANCH   1   2
BRANCH   1   4
HETATM    4  C   UNK N   1      23.329  18.930   3.558  0.00  0.00    -0.047 A 
HETATM    5  C   UNK N   1      23.416  20.232   3.022  0.00  0.00     0.008 A 
HETATM    6  C   UNK N   1      24.655  20.877   2.925  0.00  0.00     0.003 A 
HETATM    7  C   UNK N   1      25.827  20.194   3.266  0.00  0.00     0.030 A 
HETATM    8  C   UNK N   1      25.756  18.875   3.729  0.00  0.00     0.043 A 
HETATM    9  C   UNK N   1      24.505  18.274   3.885  0.00  0.00     0.038 A 
BRANCH   8  10
HETATM   10  N   UNK N   1      26.958  18.102   3.865  0.00  0.00    -0.279 N 
HETATM   11  H   UNK N   1      27.482  17.948   3.045  0.00  0.00     0.179 HD
BRANCH  10  12
HETATM   12  S   UNK N   1      27.604  17.384   5.384  0.00  0.00     0.278 S 
HETATM   13  O   UNK N   1      28.277  16.447   4.370  0.00  0.00    -0.199 OA
HETATM   14  O   UNK N   1      28.258  18.778   5.340  0.00  0.00    -0.199 OA
BRANCH  12  15
HETATM   15  C   UNK N   1      29.421  17.342   5.804  0.00  0.00     0.149 A 
HETATM   16  C   UNK N   1      30.356  17.388   4.760  0.00  0.00     0.044 A 
HETATM   17  C   UNK N   1      31.726  17.302   5.048  0.00  0.00     0.020 A 
HETATM   18  C   UNK N   1      32.160  17.157   6.371  0.00  0.00     0.063 A 
HETATM   19  C   UNK N   1      31.210  17.132   7.385  0.00  0.00     0.105 A 
HETATM   20  N   UNK N   1      29.891  17.226   7.094  0.00  0.00    -0.355 N 
ATOM     21  HN  UNK N   1      29.218  17.211   7.861  1.00  0.00     0.166 HD
BRANCH  18  22
HETATM   22  C   UNK N   1      33.622  17.018   6.700  0.00  0.00     0.418 C 
HETATM   23  F   UNK N   1      33.793  16.016   7.635  0.00  0.00    -0.166 F 
HETATM   24  F   UNK N   1      34.362  16.702   5.571  0.00  0.00    -0.166 F 
HETATM   25  F   UNK N   1      34.098  18.210   7.213  0.00  0.00    -0.166 F 
ENDBRANCH  18  22
ENDBRANCH  12  15
ENDBRANCH  10  12
ENDBRANCH   8  10
ENDBRANCH   1   4
BRANCH   1  26
HETATM   26  C   UNK N   1      22.024  16.942   4.503  0.00  0.00     0.055 C 
HETATM   27  C   UNK N   1      22.088  15.666   4.048  0.00  0.00     0.059 C 
HETATM   28  C   UNK N   1      21.595  14.548   4.913  0.00  0.00     0.103 C 
HETATM   29  C   UNK N   1      21.889  14.694   6.393  0.00  0.00     0.077 C 
HETATM   30  O   UNK N   1      22.048  16.017   6.793  0.00  0.00    -0.306 OA
HETATM   31  C   UNK N   1      21.940  17.097   5.989  0.00  0.00     0.293 C 
HETATM   32  O   UNK N   1      21.959  18.209   6.510  0.00  0.00    -0.259 OA
BRANCH  27  33
HETATM   33  O   UNK N   1      22.441  15.372   2.788  0.00  0.00    -0.364 OA
HETATM   34  H   UNK N   1      22.368  16.009   2.105  0.00  0.00     0.217 HD
ENDBRANCH  27  33
BRANCH  29  35
HETATM   35  C   UNK N   1      23.123  13.825   6.714  0.00  0.00     0.038 C 
BRANCH  35  36
HETATM   36  C   UNK N   1      24.432  14.566   6.926  0.00  0.00    -0.002 C 
HETATM   37  C   UNK N   1      25.561  13.552   6.964  0.00  0.00     0.005 C 
ENDBRANCH  35  36
ENDBRANCH  29  35
BRANCH  29  38
HETATM   38  C   UNK N   1      20.692  14.174   7.199  0.00  0.00     0.043 C 
BRANCH  38  39
HETATM   39  C   UNK N   1      20.799  14.745   8.612  0.00  0.00     0.041 C 
BRANCH  39  40
HETATM   40  C   UNK N   1      21.179  13.845   9.730  0.00  0.00    -0.058 A 
HETATM   41  C   UNK N   1      20.145  13.248  10.453  0.00  0.00     0.007 A 
HETATM   42  C   UNK N   1      20.425  12.271  11.407  0.00  0.00     0.001 A 
HETATM   43  C   UNK N   1      21.746  11.881  11.637  0.00  0.00     0.000 A 
HETATM   44  C   UNK N   1      22.789  12.475  10.915  0.00  0.00     0.001 A 
HETATM   45  C   UNK N   1      22.506  13.449   9.949  0.00  0.00     0.007 A 
ENDBRANCH  39  40
ENDBRANCH  38  39
ENDBRANCH  29  38
ENDBRANCH   1  26
TORSDOF 13
ENDMDL
MODEL 6
REMARK VINA RESULT:      -8.4      7.597     12.565
REMARK  13 active torsions:
REMARK  status: ('A' for Active; 'I' for Inactive)
REMARK    1  A    between atoms: C_16  and  C_3 
REMARK    2  A    between atoms: C_25  and  C_4 
REMARK    3  A    between atoms: C_17  and  C_15 
REMARK    4  A    between atoms: C_21  and  C_15 
REMARK    5  A    between atoms: C_30  and  C_16 
REMARK    6  A    between atoms: C_30  and  C_17 
REMARK    7  A    between atoms: C_25  and  C_22 
REMARK    8  A    between atoms: C_31  and  C_23 
REMARK    9  A    between atoms: N_37  and  C_24 
REMARK   10  A    between atoms: C_25  and  C_28 
REMARK   11  A    between atoms: O_38  and  C_26 
REMARK   12  A    between atoms: S_43  and  C_27 
REMARK   13  A    between atoms: S_43  and  N_37 
ROOT
HETATM    1  C   UNK N   1      35.200  12.889   7.966  0.00  0.00     0.060 C 
ENDROOT
BRANCH   1   2
HETATM    2  C   UNK N   1      35.836  12.281   6.692  0.00  0.00     0.010 C 
HETATM    3  C   UNK N   1      34.921  11.497   5.767  0.00  0.00     0.006 C 
ENDBRANCH   1   2
BRANCH   1   4
HETATM    4  C   UNK N   1      36.452  13.085   8.806  0.00  0.00    -0.047 A 
HETATM    5  C   UNK N   1      37.731  12.733   8.325  0.00  0.00     0.008 A 
HETATM    6  C   UNK N   1      38.844  12.782   9.172  0.00  0.00     0.003 A 
HETATM    7  C   UNK N   1      38.678  13.084  10.528  0.00  0.00     0.030 A 
HETATM    8  C   UNK N   1      37.402  13.364  11.030  0.00  0.00     0.043 A 
HETATM    9  C   UNK N   1      36.314  13.378  10.154  0.00  0.00     0.038 A 
BRANCH   8  10
HETATM   10  N   UNK N   1      37.197  13.452  12.448  0.00  0.00    -0.279 N 
HETATM   11  H   UNK N   1      37.989  13.653  12.999  0.00  0.00     0.179 HD
BRANCH  10  12
HETATM   12  S   UNK N   1      35.639  13.230  13.320  0.00  0.00     0.278 S 
HETATM   13  O   UNK N   1      36.113  11.770  13.300  0.00  0.00    -0.199 OA
HETATM   14  O   UNK N   1      36.487  14.054  14.307  0.00  0.00    -0.199 OA
BRANCH  12  15
HETATM   15  C   UNK N   1      35.527  12.596  15.071  0.00  0.00     0.149 A 
HETATM   16  C   UNK N   1      35.006  13.440  16.062  0.00  0.00     0.044 A 
HETATM   17  C   UNK N   1      34.963  13.005  17.395  0.00  0.00     0.020 A 
HETATM   18  C   UNK N   1      35.451  11.739  17.739  0.00  0.00     0.063 A 
HETATM   19  C   UNK N   1      35.945  10.920  16.732  0.00  0.00     0.105 A 
HETATM   20  N   UNK N   1      35.971  11.348  15.447  0.00  0.00    -0.355 N 
ATOM     21  HN  UNK N   1      36.334  10.720  14.729  1.00  0.00     0.166 HD
BRANCH  18  22
HETATM   22  C   UNK N   1      35.456  11.269  19.168  0.00  0.00     0.418 C 
HETATM   23  F   UNK N   1      35.186  12.333  20.006  0.00  0.00    -0.166 F 
HETATM   24  F   UNK N   1      34.500  10.287  19.377  0.00  0.00    -0.166 F 
HETATM   25  F   UNK N   1      36.696  10.744  19.480  0.00  0.00    -0.166 F 
ENDBRANCH  18  22
ENDBRANCH  12  15
ENDBRANCH  10  12
ENDBRANCH   8  10
ENDBRANCH   1   4
BRANCH   1  26
HETATM   26  C   UNK N   1      34.474  14.210   7.636  0.00  0.00     0.055 C 
HETATM   27  C   UNK N   1      33.330  14.562   8.274  0.00  0.00     0.059 C 
HETATM   28  C   UNK N   1      32.398  15.542   7.633  0.00  0.00     0.103 C 
HETATM   29  C   UNK N   1      33.066  16.680   6.887  0.00  0.00     0.077 C 
HETATM   30  O   UNK N   1      34.344  16.366   6.437  0.00  0.00    -0.306 OA
HETATM   31  C   UNK N   1      34.963  15.177   6.603  0.00  0.00     0.293 C 
HETATM   32  O   UNK N   1      36.030  14.995   6.023  0.00  0.00    -0.259 OA
BRANCH  27  33
HETATM   33  O   UNK N   1      32.921  13.953   9.398  0.00  0.00    -0.364 OA
HETATM   34  H   UNK N   1      32.035  13.667   9.496  0.00  0.00     0.217 HD
ENDBRANCH  27  33
BRANCH  29  35
HETATM   35  C   UNK N   1      33.049  17.919   7.808  0.00  0.00     0.038 C 
BRANCH  35  36
HETATM   36  C   UNK N   1      34.402  18.426   8.279  0.00  0.00    -0.002 C 
HETATM   37  C   UNK N   1      34.863  17.563   9.439  0.00  0.00     0.005 C 
ENDBRANCH  35  36
ENDBRANCH  29  35
BRANCH  29  38
HETATM   38  C   UNK N   1      32.262  16.993   5.619  0.00  0.00     0.043 C 
BRANCH  38  39
HETATM   39  C   UNK N   1      30.854  16.433   5.809  0.00  0.00     0.041 C 
BRANCH  39  40
HETATM   40  C   UNK N   1      29.713  17.371   5.950  0.00  0.00    -0.058 A 
HETATM   41  C   UNK N   1      29.327  17.723   7.244  0.00  0.00     0.007 A 
HETATM   42  C   UNK N   1      28.374  18.718   7.450  0.00  0.00     0.001 A 
HETATM   43  C   UNK N   1      27.806  19.376   6.356  0.00  0.00     0.000 A 
HETATM   44  C   UNK N   1      28.189  19.030   5.054  0.00  0.00     0.001 A 
HETATM   45  C   UNK N   1      29.154  18.036   4.848  0.00  0.00     0.007 A 
ENDBRANCH  39  40
ENDBRANCH  38  39
ENDBRANCH  29  38
ENDBRANCH   1  26
TORSDOF 13
ENDMDL
MODEL 7
REMARK VINA RESULT:      -8.4      5.650     11.455
REMARK  13 active torsions:
REMARK  status: ('A' for Active; 'I' for Inactive)
REMARK    1  A    between atoms: C_16  and  C_3 
REMARK    2  A    between atoms: C_25  and  C_4 
REMARK    3  A    between atoms: C_17  and  C_15 
REMARK    4  A    between atoms: C_21  and  C_15 
REMARK    5  A    between atoms: C_30  and  C_16 
REMARK    6  A    between atoms: C_30  and  C_17 
REMARK    7  A    between atoms: C_25  and  C_22 
REMARK    8  A    between atoms: C_31  and  C_23 
REMARK    9  A    between atoms: N_37  and  C_24 
REMARK   10  A    between atoms: C_25  and  C_28 
REMARK   11  A    between atoms: O_38  and  C_26 
REMARK   12  A    between atoms: S_43  and  C_27 
REMARK   13  A    between atoms: S_43  and  N_37 
ROOT
HETATM    1  C   UNK N   1      22.939  17.928   3.459  0.00  0.00     0.060 C 
ENDROOT
BRANCH   1   2
HETATM    2  C   UNK N   1      22.041  19.189   3.449  0.00  0.00     0.010 C 
HETATM    3  C   UNK N   1      20.565  18.986   3.153  0.00  0.00     0.006 C 
ENDBRANCH   1   2
BRANCH   1   4
HETATM    4  C   UNK N   1      24.267  18.564   3.836  0.00  0.00    -0.047 A 
HETATM    5  C   UNK N   1      24.472  19.957   3.751  0.00  0.00     0.008 A 
HETATM    6  C   UNK N   1      25.746  20.499   3.958  0.00  0.00     0.003 A 
HETATM    7  C   UNK N   1      26.843  19.653   4.150  0.00  0.00     0.030 A 
HETATM    8  C   UNK N   1      26.660  18.265   4.162  0.00  0.00     0.043 A 
HETATM    9  C   UNK N   1      25.370  17.747   4.024  0.00  0.00     0.038 A 
BRANCH   8  10
HETATM   10  N   UNK N   1      27.802  17.395   4.134  0.00  0.00    -0.279 N 
HETATM   11  H   UNK N   1      28.266  17.301   3.270  0.00  0.00     0.179 HD
BRANCH  10  12
HETATM   12  S   UNK N   1      28.470  16.460   5.519  0.00  0.00     0.278 S 
HETATM   13  O   UNK N   1      29.568  16.175   4.484  0.00  0.00    -0.199 OA
HETATM   14  O   UNK N   1      28.554  17.921   5.999  0.00  0.00    -0.199 OA
BRANCH  12  15
HETATM   15  C   UNK N   1      30.101  16.859   6.332  0.00  0.00     0.149 A 
HETATM   16  C   UNK N   1      31.234  17.027   5.524  0.00  0.00     0.044 A 
HETATM   17  C   UNK N   1      32.481  17.273   6.116  0.00  0.00     0.020 A 
HETATM   18  C   UNK N   1      32.599  17.337   7.510  0.00  0.00     0.063 A 
HETATM   19  C   UNK N   1      31.455  17.184   8.282  0.00  0.00     0.105 A 
HETATM   20  N   UNK N   1      30.255  16.957   7.697  0.00  0.00    -0.355 N 
ATOM     21  HN  UNK N   1      29.431  16.854   8.292  1.00  0.00     0.166 HD
BRANCH  18  22
HETATM   22  C   UNK N   1      33.934  17.556   8.168  0.00  0.00     0.418 C 
HETATM   23  F   UNK N   1      34.349  18.856   7.954  0.00  0.00    -0.166 F 
HETATM   24  F   UNK N   1      33.863  17.332   9.534  0.00  0.00    -0.166 F 
HETATM   25  F   UNK N   1      34.865  16.685   7.632  0.00  0.00    -0.166 F 
ENDBRANCH  18  22
ENDBRANCH  12  15
ENDBRANCH  10  12
ENDBRANCH   8  10
ENDBRANCH   1   4
BRANCH   1  26
HETATM   26  C   UNK N   1      22.434  16.907   4.501  0.00  0.00     0.055 C 
HETATM   27  C   UNK N   1      22.468  17.182   5.828  0.00  0.00     0.059 C 
HETATM   28  C   UNK N   1      22.455  16.058   6.817  0.00  0.00     0.103 C 
HETATM   29  C   UNK N   1      21.571  14.883   6.451  0.00  0.00     0.077 C 
HETATM   30  O   UNK N   1      21.363  14.758   5.081  0.00  0.00    -0.306 OA
HETATM   31  C   UNK N   1      21.890  15.562   4.132  0.00  0.00     0.293 C 
HETATM   32  O   UNK N   1      21.740  15.242   2.956  0.00  0.00    -0.259 OA
BRANCH  27  33
HETATM   33  O   UNK N   1      22.662  18.425   6.297  0.00  0.00    -0.364 OA
HETATM   34  H   UNK N   1      22.010  18.852   6.816  0.00  0.00     0.217 HD
ENDBRANCH  27  33
BRANCH  29  35
HETATM   35  C   UNK N   1      20.252  15.023   7.240  0.00  0.00     0.038 C 
BRANCH  35  36
HETATM   36  C   UNK N   1      20.330  15.787   8.551  0.00  0.00    -0.002 C 
HETATM   37  C   UNK N   1      19.198  16.798   8.588  0.00  0.00     0.005 C 
ENDBRANCH  35  36
ENDBRANCH  29  35
BRANCH  29  38
HETATM   38  C   UNK N   1      22.265  13.580   6.870  0.00  0.00     0.043 C 
BRANCH  38  39
HETATM   39  C   UNK N   1      23.398  13.942   7.826  0.00  0.00     0.041 C 
BRANCH  39  40
HETATM   40  C   UNK N   1      23.435  13.322   9.175  0.00  0.00    -0.058 A 
HETATM   41  C   UNK N   1      22.213  13.041   9.786  0.00  0.00     0.007 A 
HETATM   42  C   UNK N   1      22.169  12.316  10.975  0.00  0.00     0.001 A 
HETATM   43  C   UNK N   1      23.354  11.859  11.556  0.00  0.00     0.000 A 
HETATM   44  C   UNK N   1      24.585  12.136  10.949  0.00  0.00     0.001 A 
HETATM   45  C   UNK N   1      24.628  12.857   9.748  0.00  0.00     0.007 A 
ENDBRANCH  39  40
ENDBRANCH  38  39
ENDBRANCH  29  38
ENDBRANCH   1  26
TORSDOF 13
ENDMDL
MODEL 8
REMARK VINA RESULT:      -8.3      4.124      7.123
REMARK  13 active torsions:
REMARK  status: ('A' for Active; 'I' for Inactive)
REMARK    1  A    between atoms: C_16  and  C_3 
REMARK    2  A    between atoms: C_25  and  C_4 
REMARK    3  A    between atoms: C_17  and  C_15 
REMARK    4  A    between atoms: C_21  and  C_15 
REMARK    5  A    between atoms: C_30  and  C_16 
REMARK    6  A    between atoms: C_30  and  C_17 
REMARK    7  A    between atoms: C_25  and  C_22 
REMARK    8  A    between atoms: C_31  and  C_23 
REMARK    9  A    between atoms: N_37  and  C_24 
REMARK   10  A    between atoms: C_25  and  C_28 
REMARK   11  A    between atoms: O_38  and  C_26 
REMARK   12  A    between atoms: S_43  and  C_27 
REMARK   13  A    between atoms: S_43  and  N_37 
ROOT
HETATM    1  C   UNK N   1      35.756  11.210  10.852  0.00  0.00     0.060 C 
ENDROOT
BRANCH   1   2
HETATM    2  C   UNK N   1      34.296  10.985  10.391  0.00  0.00     0.010 C 
HETATM    3  C   UNK N   1      33.480   9.954  11.152  0.00  0.00     0.006 C 
ENDBRANCH   1   2
BRANCH   1   4
HETATM    4  C   UNK N   1      36.223  12.165   9.765  0.00  0.00    -0.047 A 
HETATM    5  C   UNK N   1      37.488  12.786   9.816  0.00  0.00     0.008 A 
HETATM    6  C   UNK N   1      37.832  13.773   8.886  0.00  0.00     0.003 A 
HETATM    7  C   UNK N   1      36.883  14.221   7.960  0.00  0.00     0.030 A 
HETATM    8  C   UNK N   1      35.600  13.661   7.949  0.00  0.00     0.043 A 
HETATM    9  C   UNK N   1      35.300  12.628   8.841  0.00  0.00     0.038 A 
BRANCH   8  10
HETATM   10  N   UNK N   1      34.564  14.267   7.160  0.00  0.00    -0.279 N 
HETATM   11  H   UNK N   1      34.027  13.665   6.596  0.00  0.00     0.179 HD
BRANCH  10  12
HETATM   12  S   UNK N   1      34.152  16.018   7.099  0.00  0.00     0.278 S 
HETATM   13  O   UNK N   1      33.328  15.534   5.897  0.00  0.00    -0.199 OA
HETATM   14  O   UNK N   1      33.506  15.543   8.415  0.00  0.00    -0.199 OA
BRANCH  12  15
HETATM   15  C   UNK N   1      32.418  16.669   7.328  0.00  0.00     0.149 A 
HETATM   16  C   UNK N   1      32.157  17.528   8.405  0.00  0.00     0.044 A 
HETATM   17  C   UNK N   1      30.851  17.986   8.629  0.00  0.00     0.020 A 
HETATM   18  C   UNK N   1      29.807  17.578   7.790  0.00  0.00     0.063 A 
HETATM   19  C   UNK N   1      30.101  16.740   6.721  0.00  0.00     0.105 A 
HETATM   20  N   UNK N   1      31.369  16.313   6.510  0.00  0.00    -0.355 N 
ATOM     21  HN  UNK N   1      31.554  15.703   5.713  1.00  0.00     0.166 HD
BRANCH  18  22
HETATM   22  C   UNK N   1      28.391  18.021   8.037  0.00  0.00     0.418 C 
HETATM   23  F   UNK N   1      27.836  18.476   6.858  0.00  0.00    -0.166 F 
HETATM   24  F   UNK N   1      27.616  16.978   8.519  0.00  0.00    -0.166 F 
HETATM   25  F   UNK N   1      28.380  19.040   8.972  0.00  0.00    -0.166 F 
ENDBRANCH  18  22
ENDBRANCH  12  15
ENDBRANCH  10  12
ENDBRANCH   8  10
ENDBRANCH   1   4
BRANCH   1  26
HETATM   26  C   UNK N   1      35.791  11.832  12.265  0.00  0.00     0.055 C 
HETATM   27  C   UNK N   1      36.528  11.277  13.259  0.00  0.00     0.059 C 
HETATM   28  C   UNK N   1      36.183  11.568  14.686  0.00  0.00     0.103 C 
HETATM   29  C   UNK N   1      35.731  12.987  14.968  0.00  0.00     0.077 C 
HETATM   30  O   UNK N   1      35.182  13.619  13.857  0.00  0.00    -0.306 OA
HETATM   31  C   UNK N   1      35.024  13.062  12.637  0.00  0.00     0.293 C 
HETATM   32  O   UNK N   1      34.389  13.689  11.794  0.00  0.00    -0.259 OA
BRANCH  27  33
HETATM   33  O   UNK N   1      37.472  10.353  13.020  0.00  0.00    -0.364 OA
HETATM   34  H   UNK N   1      38.075  10.453  12.310  0.00  0.00     0.217 HD
ENDBRANCH  27  33
BRANCH  29  35
HETATM   35  C   UNK N   1      36.936  13.755  15.552  0.00  0.00     0.038 C 
BRANCH  35  36
HETATM   36  C   UNK N   1      37.070  15.211  15.140  0.00  0.00    -0.002 C 
HETATM   37  C   UNK N   1      37.449  16.027  16.363  0.00  0.00     0.005 C 
ENDBRANCH  35  36
ENDBRANCH  29  35
BRANCH  29  38
HETATM   38  C   UNK N   1      34.606  12.961  16.010  0.00  0.00     0.043 C 
BRANCH  38  39
HETATM   39  C   UNK N   1      35.247  13.062  17.392  0.00  0.00     0.041 C 
BRANCH  39  40
HETATM   40  C   UNK N   1      35.199  11.889  18.301  0.00  0.00    -0.058 A 
HETATM   41  C   UNK N   1      34.930  10.645  17.730  0.00  0.00     0.007 A 
HETATM   42  C   UNK N   1      35.029   9.483  18.493  0.00  0.00     0.001 A 
HETATM   43  C   UNK N   1      35.408   9.560  19.835  0.00  0.00     0.000 A 
HETATM   44  C   UNK N   1      35.681  10.805  20.415  0.00  0.00     0.001 A 
HETATM   45  C   UNK N   1      35.591  11.973  19.645  0.00  0.00     0.007 A 
ENDBRANCH  39  40
ENDBRANCH  38  39
ENDBRANCH  29  38
ENDBRANCH   1  26
TORSDOF 13
ENDMDL
MODEL 9
REMARK VINA RESULT:      -8.3      6.279     12.828
REMARK  13 active torsions:
REMARK  status: ('A' for Active; 'I' for Inactive)
REMARK    1  A    between atoms: C_16  and  C_3 
REMARK    2  A    between atoms: C_25  and  C_4 
REMARK    3  A    between atoms: C_17  and  C_15 
REMARK    4  A    between atoms: C_21  and  C_15 
REMARK    5  A    between atoms: C_30  and  C_16 
REMARK    6  A    between atoms: C_30  and  C_17 
REMARK    7  A    between atoms: C_25  and  C_22 
REMARK    8  A    between atoms: C_31  and  C_23 
REMARK    9  A    between atoms: N_37  and  C_24 
REMARK   10  A    between atoms: C_25  and  C_28 
REMARK   11  A    between atoms: O_38  and  C_26 
REMARK   12  A    between atoms: S_43  and  C_27 
REMARK   13  A    between atoms: S_43  and  N_37 
ROOT
HETATM    1  C   UNK N   1      30.676  16.029   6.714  0.00  0.00     0.060 C 
ENDROOT
BRANCH   1   2
HETATM    2  C   UNK N   1      31.293  15.074   5.664  0.00  0.00     0.010 C 
HETATM    3  C   UNK N   1      30.483  13.848   5.280  0.00  0.00     0.006 C 
ENDBRANCH   1   2
BRANCH   1   4
HETATM    4  C   UNK N   1      31.937  16.729   7.195  0.00  0.00    -0.047 A 
HETATM    5  C   UNK N   1      32.781  17.427   6.306  0.00  0.00     0.008 A 
HETATM    6  C   UNK N   1      34.011  17.932   6.746  0.00  0.00     0.003 A 
HETATM    7  C   UNK N   1      34.453  17.658   8.045  0.00  0.00     0.030 A 
HETATM    8  C   UNK N   1      33.653  16.904   8.911  0.00  0.00     0.043 A 
HETATM    9  C   UNK N   1      32.399  16.469   8.475  0.00  0.00     0.038 A 
BRANCH   8  10
HETATM   10  N   UNK N   1      34.195  16.434  10.155  0.00  0.00    -0.279 N 
HETATM   11  H   UNK N   1      34.074  17.017  10.940  0.00  0.00     0.179 HD
BRANCH  10  12
HETATM   12  S   UNK N   1      35.075  14.887  10.423  0.00  0.00     0.278 S 
HETATM   13  O   UNK N   1      35.945  15.812  11.288  0.00  0.00    -0.199 OA
HETATM   14  O   UNK N   1      33.713  14.647  11.101  0.00  0.00    -0.199 OA
BRANCH  12  15
HETATM   15  C   UNK N   1      35.235  14.078  12.097  0.00  0.00     0.149 A 
HETATM   16  C   UNK N   1      36.026  14.699  13.074  0.00  0.00     0.044 A 
HETATM   17  C   UNK N   1      36.205  14.081  14.320  0.00  0.00     0.020 A 
HETATM   18  C   UNK N   1      35.609  12.843  14.585  0.00  0.00     0.063 A 
HETATM   19  C   UNK N   1      34.817  12.261  13.602  0.00  0.00     0.105 A 
HETATM   20  N   UNK N   1      34.644  12.873  12.407  0.00  0.00    -0.355 N 
ATOM     21  HN  UNK N   1      34.051  12.424  11.708  1.00  0.00     0.166 HD
BRANCH  18  22
HETATM   22  C   UNK N   1      35.824  12.141  15.898  0.00  0.00     0.418 C 
HETATM   23  F   UNK N   1      36.860  11.236  15.775  0.00  0.00    -0.166 F 
HETATM   24  F   UNK N   1      36.139  13.042  16.903  0.00  0.00    -0.166 F 
HETATM   25  F   UNK N   1      34.670  11.470  16.261  0.00  0.00    -0.166 F 
ENDBRANCH  18  22
ENDBRANCH  12  15
ENDBRANCH  10  12
ENDBRANCH   8  10
ENDBRANCH   1   4
BRANCH   1  26
HETATM   26  C   UNK N   1      29.662  16.987   6.051  0.00  0.00     0.055 C 
HETATM   27  C   UNK N   1      28.672  17.570   6.772  0.00  0.00     0.059 C 
HETATM   28  C   UNK N   1      27.447  18.071   6.073  0.00  0.00     0.103 C 
HETATM   29  C   UNK N   1      27.686  18.709   4.719  0.00  0.00     0.077 C 
HETATM   30  O   UNK N   1      28.844  18.255   4.096  0.00  0.00    -0.306 OA
HETATM   31  C   UNK N   1      29.690  17.328   4.594  0.00  0.00     0.293 C 
HETATM   32  O   UNK N   1      30.591  16.918   3.867  0.00  0.00    -0.259 OA
BRANCH  27  33
HETATM   33  O   UNK N   1      28.678  17.588   8.113  0.00  0.00    -0.364 OA
HETATM   34  H   UNK N   1      28.009  17.154   8.604  0.00  0.00     0.217 HD
ENDBRANCH  27  33
BRANCH  29  35
HETATM   35  C   UNK N   1      27.678  20.240   4.914  0.00  0.00     0.038 C 
BRANCH  35  36
HETATM   36  C   UNK N   1      26.515  20.812   5.707  0.00  0.00    -0.002 C 
HETATM   37  C   UNK N   1      27.071  21.695   6.810  0.00  0.00     0.005 C 
ENDBRANCH  35  36
ENDBRANCH  29  35
BRANCH  29  38
HETATM   38  C   UNK N   1      26.545  18.323   3.770  0.00  0.00     0.043 C 
BRANCH  38  39
HETATM   39  C   UNK N   1      25.361  17.873   4.623  0.00  0.00     0.041 C 
BRANCH  39  40
HETATM   40  C   UNK N   1      24.025  18.477   4.387  0.00  0.00    -0.058 A 
HETATM   41  C   UNK N   1      23.954  19.548   3.497  0.00  0.00     0.007 A 
HETATM   42  C   UNK N   1      22.718  20.058   3.105  0.00  0.00     0.001 A 
HETATM   43  C   UNK N   1      21.542  19.489   3.598  0.00  0.00     0.000 A 
HETATM   44  C   UNK N   1      21.605  18.412   4.491  0.00  0.00     0.001 A 
HETATM   45  C   UNK N   1      22.848  17.894   4.877  0.00  0.00     0.007 A 
ENDBRANCH  39  40
ENDBRANCH  38  39
ENDBRANCH  29  38
ENDBRANCH   1  26
TORSDOF 13
ENDMDL
