REMARK  7 active torsions:
REMARK  status: ('A' for Active; 'I' for Inactive)
REMARK    1  A    between atoms: C_1  and  C_2 
REMARK    2  A    between atoms: C_1  and  C_3 
REMARK    3  A    between atoms: C_1  and  S_4 
REMARK    4  A    between atoms: C_2  and  C_5 
REMARK    5  A    between atoms: C_2  and  S_6 
REMARK    6  A    between atoms: C_3  and  O_7 
REMARK    7  A    between atoms: C_5  and  O_9 
ROOT
HETATM    1  C   UNK N   1       0.686   0.362  -0.000  0.00  0.00     0.166 C 
ENDROOT
BRANCH   1   2
HETATM    2  C   UNK N   1      -0.685  -0.361   0.000  0.00  0.00     0.166 C 
BRANCH   2   3
HETATM    3  C   UNK N   1      -1.999   0.374   0.000  0.00  0.00     0.155 C 
HETATM    4  O   UNK N   1      -2.034   1.594  -0.000  0.00  0.00    -0.649 OA
BRANCH   3   5
HETATM    5  O   UNK N   1      -3.154  -0.316  -0.000  0.00  0.00    -0.775 OA
HETATM    6  H   UNK N   1      -3.972   0.140  -0.000  0.00  0.00     0.167 HD
ENDBRANCH   3   5
ENDBRANCH   2   3
BRANCH   2   7
HETATM    7  S   UNK N   1      -0.788  -2.187   0.000  0.00  0.00    -0.165 SA
HETATM    8  H   UNK N   1      -2.002  -2.800  -0.000  0.00  0.00     0.102 HD
ENDBRANCH   2   7
ENDBRANCH   1   2
BRANCH   1   9
HETATM    9  C   UNK N   1       1.999  -0.374   0.000  0.00  0.00     0.155 C 
HETATM   10  O   UNK N   1       2.035  -1.594  -0.000  0.00  0.00    -0.649 OA
BRANCH   9  11
HETATM   11  O   UNK N   1       3.154   0.316  -0.000  0.00  0.00    -0.775 OA
HETATM   12  H   UNK N   1       3.973  -0.140  -0.000  0.00  0.00     0.167 HD
ENDBRANCH   9  11
ENDBRANCH   1   9
BRANCH   1  13
HETATM   13  S   UNK N   1       0.788   2.187   0.000  0.00  0.00    -0.165 SA
HETATM   14  H   UNK N   1       2.002   2.800   0.000  0.00  0.00     0.102 HD
ENDBRANCH   1  13
TORSDOF 7
