REMARK  8 active torsions:
REMARK  status: ('A' for Active; 'I' for Inactive)
REMARK    1  A    between atoms: C_8  and  O_1 
REMARK    2  A    between atoms: C_2  and  O_1 
REMARK    3  A    between atoms: C_2  and  C_15 
REMARK    4  A    between atoms: Br_10  and  Br_10 
REMARK    5  A    between atoms: C_15  and  C_16 
REMARK    6  A    between atoms: C_15  and  C_17 
REMARK    7  A    between atoms: C_16  and  C_18 
REMARK    8  A    between atoms: C_17  and  C_20 
ROOT
HETATM    1 Br   UNK N   1      -2.937   4.328  -1.991  0.00  0.00     0.000 Br
ENDROOT
TORSDOF 8
