MODEL 1
REMARK VINA RESULT:      -2.5      0.000      0.000
REMARK  1 active torsions:
REMARK  status: ('A' for Active; 'I' for Inactive)
REMARK    1  A    between atoms: O_1  and  C_2 
ROOT
HETATM    1  O   UNK N   1      17.839  26.311   7.111  0.00  0.00    -0.401 OA
HETATM    2  H   UNK N   1      17.202  26.001   6.447  0.00  0.00     0.209 HD
ENDROOT
BRANCH   1   3
HETATM    3  C   UNK N   1      17.390  26.952   8.262  0.00  0.00     0.159 C 
HETATM    4  C   UNK N   1      18.249  26.530   9.434  0.00  0.00     0.033 C 
ENDBRANCH   1   3
TORSDOF 1
ENDMDL
MODEL 2
REMARK VINA RESULT:      -2.3      9.986     10.072
REMARK  1 active torsions:
REMARK  status: ('A' for Active; 'I' for Inactive)
REMARK    1  A    between atoms: O_1  and  C_2 
ROOT
HETATM    1  O   UNK N   1      20.610  20.571  -0.095  0.00  0.00    -0.401 OA
HETATM    2  H   UNK N   1      21.385  20.468  -0.670  0.00  0.00     0.209 HD
ENDROOT
BRANCH   1   3
HETATM    3  C   UNK N   1      20.778  20.716   1.279  0.00  0.00     0.159 C 
HETATM    4  C   UNK N   1      20.587  19.374   1.949  0.00  0.00     0.033 C 
ENDBRANCH   1   3
TORSDOF 1
ENDMDL
MODEL 3
REMARK VINA RESULT:      -2.3     16.231     16.277
REMARK  1 active torsions:
REMARK  status: ('A' for Active; 'I' for Inactive)
REMARK    1  A    between atoms: O_1  and  C_2 
ROOT
HETATM    1  O   UNK N   1      25.067  12.385  11.635  0.00  0.00    -0.401 OA
HETATM    2  H   UNK N   1      25.728  11.869  12.124  0.00  0.00     0.209 HD
ENDROOT
BRANCH   1   3
HETATM    3  C   UNK N   1      23.745  11.952  11.582  0.00  0.00     0.159 C 
HETATM    4  C   UNK N   1      23.190  11.875  12.988  0.00  0.00     0.033 C 
ENDBRANCH   1   3
TORSDOF 1
ENDMDL
MODEL 4
REMARK VINA RESULT:      -2.3      2.392      2.769
REMARK  1 active torsions:
REMARK  status: ('A' for Active; 'I' for Inactive)
REMARK    1  A    between atoms: O_1  and  C_2 
ROOT
HETATM    1  O   UNK N   1      19.175  25.068  10.619  0.00  0.00    -0.401 OA
HETATM    2  H   UNK N   1      20.039  24.755  10.930  0.00  0.00     0.209 HD
ENDROOT
BRANCH   1   3
HETATM    3  C   UNK N   1      18.972  26.424  10.378  0.00  0.00     0.159 C 
HETATM    4  C   UNK N   1      18.104  26.587   9.150  0.00  0.00     0.033 C 
ENDBRANCH   1   3
TORSDOF 1
ENDMDL
MODEL 5
REMARK VINA RESULT:      -2.2     13.730     13.807
REMARK  1 active torsions:
REMARK  status: ('A' for Active; 'I' for Inactive)
REMARK    1  A    between atoms: O_1  and  C_2 
ROOT
HETATM    1  O   UNK N   1      27.420  18.242   9.351  0.00  0.00    -0.401 OA
HETATM    2  H   UNK N   1      27.326  19.165   9.639  0.00  0.00     0.209 HD
ENDROOT
BRANCH   1   3
HETATM    3  C   UNK N   1      28.650  17.601   9.463  0.00  0.00     0.159 C 
HETATM    4  C   UNK N   1      29.735  18.636   9.666  0.00  0.00     0.033 C 
ENDBRANCH   1   3
TORSDOF 1
ENDMDL
MODEL 6
REMARK VINA RESULT:      -2.0     18.631     18.654
REMARK  1 active torsions:
REMARK  status: ('A' for Active; 'I' for Inactive)
REMARK    1  A    between atoms: O_1  and  C_2 
ROOT
HETATM    1  O   UNK N   1      32.565  21.220  -2.041  0.00  0.00    -0.401 OA
HETATM    2  H   UNK N   1      33.105  21.682  -1.380  0.00  0.00     0.209 HD
ENDROOT
BRANCH   1   3
HETATM    3  C   UNK N   1      31.783  21.949  -2.933  0.00  0.00     0.159 C 
HETATM    4  C   UNK N   1      30.832  21.011  -3.643  0.00  0.00     0.033 C 
ENDBRANCH   1   3
TORSDOF 1
ENDMDL
MODEL 7
REMARK VINA RESULT:      -2.0     26.504     26.725
REMARK  1 active torsions:
REMARK  status: ('A' for Active; 'I' for Inactive)
REMARK    1  A    between atoms: O_1  and  C_2 
ROOT
HETATM    1  O   UNK N   1      43.546  23.967   4.266  0.00  0.00    -0.401 OA
HETATM    2  H   UNK N   1      43.016  24.712   3.942  0.00  0.00     0.209 HD
ENDROOT
BRANCH   1   3
HETATM    3  C   UNK N   1      43.495  22.740   3.610  0.00  0.00     0.159 C 
HETATM    4  C   UNK N   1      44.650  21.880   4.074  0.00  0.00     0.033 C 
ENDBRANCH   1   3
TORSDOF 1
ENDMDL
MODEL 8
REMARK VINA RESULT:      -2.0     19.116     19.352
REMARK  1 active torsions:
REMARK  status: ('A' for Active; 'I' for Inactive)
REMARK    1  A    between atoms: O_1  and  C_2 
ROOT
HETATM    1  O   UNK N   1      35.516  17.567  10.167  0.00  0.00    -0.401 OA
HETATM    2  H   UNK N   1      36.205  16.954  10.470  0.00  0.00     0.209 HD
ENDROOT
BRANCH   1   3
HETATM    3  C   UNK N   1      34.620  17.174   9.177  0.00  0.00     0.159 C 
HETATM    4  C   UNK N   1      34.454  18.298   8.179  0.00  0.00     0.033 C 
ENDBRANCH   1   3
TORSDOF 1
ENDMDL
MODEL 9
REMARK VINA RESULT:      -2.0     17.823     18.132
REMARK  1 active torsions:
REMARK  status: ('A' for Active; 'I' for Inactive)
REMARK    1  A    between atoms: O_1  and  C_2 
ROOT
HETATM    1  O   UNK N   1      34.462  18.011   6.680  0.00  0.00    -0.401 OA
HETATM    2  H   UNK N   1      33.933  17.397   6.145  0.00  0.00     0.209 HD
ENDROOT
BRANCH   1   3
HETATM    3  C   UNK N   1      34.147  18.216   8.020  0.00  0.00     0.159 C 
HETATM    4  C   UNK N   1      32.679  17.921   8.238  0.00  0.00     0.033 C 
ENDBRANCH   1   3
TORSDOF 1
ENDMDL
