MODEL 1
REMARK VINA RESULT:      -7.9      0.000      0.000
REMARK  8 active torsions:
REMARK  status: ('A' for Active; 'I' for Inactive)
REMARK    1  A    between atoms: N_4  and  C_58 
REMARK    2  A    between atoms: C_14  and  O_50 
REMARK    3  A    between atoms: C_15  and  O_44 
REMARK    4  A    between atoms: C_18  and  O_45 
REMARK    5  A    between atoms: C_19  and  O_20 
REMARK    6  A    between atoms: C_31  and  O_39 
REMARK    7  A    between atoms: O_44  and  C_46 
REMARK    8  A    between atoms: C_58  and  C_59 
ROOT
HETATM    1  C   UNK N   1      30.305  15.209   4.461  0.00  0.00     0.107 C 
HETATM    2  C   UNK N   1      31.375  15.510   3.406  0.00  0.00     0.084 C 
HETATM    3  C   UNK N   1      32.623  14.631   3.543  0.00  0.00     0.276 C 
HETATM    4  N   UNK N   1      33.136  14.591   4.918  0.00  0.00     0.089 N 
HETATM    5  C   UNK N   1      32.135  14.082   5.857  0.00  0.00     0.276 C 
HETATM    6  C   UNK N   1      30.900  14.971   5.857  0.00  0.00     0.084 C 
HETATM    7  C   UNK N   1      25.736  14.300   4.608  0.00  0.00     0.064 C 
HETATM    8  C   UNK N   1      26.915  13.679   4.114  0.00  0.00     0.027 C 
HETATM    9  C   UNK N   1      26.778  12.360   3.637  0.00  0.00     0.063 C 
HETATM   10  C   UNK N   1      27.605  11.489   2.842  0.00  0.00     0.225 C 
HETATM   11  C   UNK N   1      25.604  11.675   3.795  0.00  0.00     0.096 C 
HETATM   12  C   UNK N   1      22.476  13.309   0.961  0.00  0.00     0.044 C 
HETATM   13  C   UNK N   1      24.481  12.229   4.376  0.00  0.00     0.007 C 
HETATM   14  C   UNK N   1      24.528  13.566   4.754  0.00  0.00     0.089 C 
HETATM   15  C   UNK N   1      21.874  13.745   2.340  0.00  0.00     0.144 C 
HETATM   16  C   UNK N   1      21.749  15.297   2.611  0.00  0.00     0.041 C 
HETATM   17  C   UNK N   1      20.977  17.131   4.434  0.00  0.00     0.040 C 
HETATM   18  C   UNK N   1      21.154  15.638   4.021  0.00  0.00     0.130 C 
HETATM   19  C   UNK N   1      22.128  17.983   5.027  0.00  0.00     0.131 C 
HETATM   20  C   UNK N   1      23.232  18.392   4.024  0.00  0.00     0.033 C 
HETATM   21  C   UNK N   1      24.422  19.200   4.520  0.00  0.00    -0.020 C 
HETATM   22  C   UNK N   1      27.179  20.276   5.629  0.00  0.00     0.006 C 
HETATM   23  C   UNK N   1      25.888  20.512   5.984  0.00  0.00     0.012 C 
HETATM   24  C   UNK N   1      24.690  19.640   5.760  0.00  0.00    -0.003 C 
HETATM   25  C   UNK N   1      27.668  18.975   5.090  0.00  0.00     0.252 C 
HETATM   26  C   UNK N   1      25.764  15.740   4.948  0.00  0.00     0.214 C 
HETATM   27  C   UNK N   1      26.997  16.529   4.850  0.00  0.00     0.115 C 
HETATM   28  N   UNK N   1      26.872  17.896   5.224  0.00  0.00    -0.318 N 
HETATM   29  O   UNK N   1      28.717  11.752   2.409  0.00  0.00    -0.286 OA
HETATM   30  C   UNK N   1      22.822  11.792   0.774  0.00  0.00     0.151 C 
HETATM   31  C   UNK N   1      24.176  11.382   1.300  0.00  0.00     0.029 C 
HETATM   32  C   UNK N   1      25.140  10.775   0.570  0.00  0.00     0.137 C 
HETATM   33  O   UNK N   1      26.374  10.401   1.080  0.00  0.00    -0.319 OA
HETATM   34  C   UNK N   1      26.748  10.301   2.430  0.00  0.00     0.237 C 
HETATM   35  O   UNK N   1      25.637  10.455   3.240  0.00  0.00    -0.305 OA
HETATM   36  C   UNK N   1      27.427   8.977   2.727  0.00  0.00     0.089 C 
HETATM   37  C   UNK N   1      28.163  21.386   5.811  0.00  0.00     0.054 C 
HETATM   38  C   UNK N   1      23.638  14.187   0.520  0.00  0.00     0.015 C 
HETATM   39  C   UNK N   1      19.984  17.921   3.596  0.00  0.00     0.015 C 
HETATM   40  C   UNK N   1      22.622  19.207   2.900  0.00  0.00     0.017 C 
HETATM   41  O   UNK N   1      24.758  16.289   5.329  0.00  0.00    -0.285 OA
HETATM   42  C   UNK N   1      21.011  16.014   1.489  0.00  0.00     0.015 C 
HETATM   43  O   UNK N   1      28.765  18.896   4.562  0.00  0.00    -0.268 OA
HETATM   44  C   UNK N   1      28.123  15.887   4.517  0.00  0.00     0.089 C 
HETATM   45  C   UNK N   1      28.169  14.500   4.156  0.00  0.00     0.071 C 
HETATM   46  N   UNK N   1      29.390  14.101   4.104  0.00  0.00    -0.361 N 
ATOM     47  HN  UNK N   1      29.686  13.157   3.855  1.00  0.00     0.162 HD
HETATM   48  N   UNK N   1      29.428  16.355   4.590  0.00  0.00    -0.360 N 
HETATM   49  C   UNK N   1      23.218  11.442   4.495  0.00  0.00     0.054 C 
HETATM   50  H   UNK N   1      26.022  18.096   5.680  0.00  0.00     0.169 HD
HETATM   51  H   UNK N   1      29.706  17.291   4.707  0.00  0.00     0.162 HD
ENDROOT
BRANCH   4  52
HETATM   52  C   UNK N   1      33.906  15.785   5.333  0.00  0.00     0.276 C 
BRANCH  52  53
HETATM   53  C   UNK N   1      34.064  16.005   6.848  0.00  0.00     0.006 C 
HETATM   54  C   UNK N   1      35.312  15.302   7.339  0.00  0.00     0.011 C 
HETATM   55  C   UNK N   1      34.185  17.478   7.184  0.00  0.00     0.011 C 
ENDBRANCH  52  53
ENDBRANCH   4  52
BRANCH  14  56
HETATM   56  O   UNK N   1      23.420  14.144   5.249  0.00  0.00    -0.359 OA
HETATM   57  H   UNK N   1      22.725  13.662   5.652  0.00  0.00     0.217 HD
ENDBRANCH  14  56
BRANCH  30  58
HETATM   58  O   UNK N   1      21.841  10.984   1.365  0.00  0.00    -0.386 OA
HETATM   59  C   UNK N   1      21.499  10.031   0.404  0.00  0.00     0.202 C 
ENDBRANCH  30  58
BRANCH  19  60
HETATM   60  O   UNK N   1      22.635  17.354   6.165  0.00  0.00    -0.394 OA
HETATM   61  H   UNK N   1      23.196  16.671   6.562  0.00  0.00     0.210 HD
ENDBRANCH  19  60
BRANCH  15  62
HETATM   62  O   UNK N   1      20.684  13.066   2.592  0.00  0.00    -0.315 OA
BRANCH  62  63
HETATM   63  C   UNK N   1      19.505  13.225   1.924  0.00  0.00     0.255 C 
HETATM   64  C   UNK N   1      19.486  13.124   0.437  0.00  0.00     0.126 C 
HETATM   65  O   UNK N   1      18.466  13.463   2.518  0.00  0.00    -0.266 OA
ENDBRANCH  62  63
ENDBRANCH  15  62
BRANCH  18  66
HETATM   66  O   UNK N   1      19.917  15.011   4.189  0.00  0.00    -0.395 OA
HETATM   67  H   UNK N   1      19.683  14.114   3.902  0.00  0.00     0.210 HD
ENDBRANCH  18  66
TORSDOF 8
ENDMDL
MODEL 2
REMARK VINA RESULT:      -7.8      3.699     10.149
REMARK  8 active torsions:
REMARK  status: ('A' for Active; 'I' for Inactive)
REMARK    1  A    between atoms: N_4  and  C_58 
REMARK    2  A    between atoms: C_14  and  O_50 
REMARK    3  A    between atoms: C_15  and  O_44 
REMARK    4  A    between atoms: C_18  and  O_45 
REMARK    5  A    between atoms: C_19  and  O_20 
REMARK    6  A    between atoms: C_31  and  O_39 
REMARK    7  A    between atoms: O_44  and  C_46 
REMARK    8  A    between atoms: C_58  and  C_59 
ROOT
HETATM    1  C   UNK N   1      26.798  15.470   4.756  0.00  0.00     0.107 C 
HETATM    2  C   UNK N   1      25.590  14.907   5.512  0.00  0.00     0.084 C 
HETATM    3  C   UNK N   1      24.305  14.895   4.675  0.00  0.00     0.276 C 
HETATM    4  N   UNK N   1      24.050  16.181   4.016  0.00  0.00     0.089 N 
HETATM    5  C   UNK N   1      25.149  16.565   3.128  0.00  0.00     0.276 C 
HETATM    6  C   UNK N   1      26.446  16.704   3.912  0.00  0.00     0.084 C 
HETATM    7  C   UNK N   1      31.203  14.245   3.851  0.00  0.00     0.064 C 
HETATM    8  C   UNK N   1      29.898  13.783   3.531  0.00  0.00     0.027 C 
HETATM    9  C   UNK N   1      29.812  12.752   2.573  0.00  0.00     0.063 C 
HETATM   10  C   UNK N   1      28.771  11.843   2.167  0.00  0.00     0.225 C 
HETATM   11  C   UNK N   1      30.921  12.341   1.884  0.00  0.00     0.096 C 
HETATM   12  C   UNK N   1      33.628   9.950   4.612  0.00  0.00     0.044 C 
HETATM   13  C   UNK N   1      32.180  12.860   2.106  0.00  0.00     0.007 C 
HETATM   14  C   UNK N   1      32.338  13.794   3.123  0.00  0.00     0.089 C 
HETATM   15  C   UNK N   1      34.512  11.220   4.366  0.00  0.00     0.144 C 
HETATM   16  C   UNK N   1      34.839  12.120   5.623  0.00  0.00     0.041 C 
HETATM   17  C   UNK N   1      36.110  14.364   6.419  0.00  0.00     0.040 C 
HETATM   18  C   UNK N   1      35.712  13.377   5.280  0.00  0.00     0.130 C 
HETATM   19  C   UNK N   1      35.178  15.500   6.914  0.00  0.00     0.131 C 
HETATM   20  C   UNK N   1      33.956  15.037   7.743  0.00  0.00     0.033 C 
HETATM   21  C   UNK N   1      32.963  16.075   8.243  0.00  0.00    -0.020 C 
HETATM   22  C   UNK N   1      30.576  18.093   8.712  0.00  0.00     0.006 C 
HETATM   23  C   UNK N   1      31.928  18.239   8.752  0.00  0.00     0.012 C 
HETATM   24  C   UNK N   1      32.971  17.407   8.071  0.00  0.00    -0.003 C 
HETATM   25  C   UNK N   1      29.869  17.146   7.804  0.00  0.00     0.252 C 
HETATM   26  C   UNK N   1      31.382  15.188   4.978  0.00  0.00     0.214 C 
HETATM   27  C   UNK N   1      30.237  15.709   5.732  0.00  0.00     0.115 C 
HETATM   28  N   UNK N   1      30.564  16.618   6.777  0.00  0.00    -0.318 N 
HETATM   29  O   UNK N   1      27.631  11.814   2.605  0.00  0.00    -0.286 OA
HETATM   30  C   UNK N   1      33.104   9.183   3.349  0.00  0.00     0.151 C 
HETATM   31  C   UNK N   1      31.835   9.741   2.753  0.00  0.00     0.029 C 
HETATM   32  C   UNK N   1      30.697   9.034   2.552  0.00  0.00     0.137 C 
HETATM   33  O   UNK N   1      29.546   9.569   1.995  0.00  0.00    -0.319 OA
HETATM   34  C   UNK N   1      29.415  10.779   1.292  0.00  0.00     0.237 C 
HETATM   35  O   UNK N   1      30.665  11.322   1.052  0.00  0.00    -0.305 OA
HETATM   36  C   UNK N   1      28.673  10.588  -0.017  0.00  0.00     0.089 C 
HETATM   37  C   UNK N   1      29.759  18.949   9.623  0.00  0.00     0.054 C 
HETATM   38  C   UNK N   1      32.500  10.198   5.602  0.00  0.00     0.015 C 
HETATM   39  C   UNK N   1      37.008  13.780   7.498  0.00  0.00     0.015 C 
HETATM   40  C   UNK N   1      34.430  14.294   8.977  0.00  0.00     0.017 C 
HETATM   41  O   UNK N   1      32.490  15.555   5.286  0.00  0.00    -0.285 OA
HETATM   42  C   UNK N   1      35.429  11.309   6.769  0.00  0.00     0.015 C 
HETATM   43  O   UNK N   1      28.692  16.879   7.981  0.00  0.00    -0.268 OA
HETATM   44  C   UNK N   1      29.011  15.368   5.320  0.00  0.00     0.089 C 
HETATM   45  C   UNK N   1      28.761  14.445   4.250  0.00  0.00     0.071 C 
HETATM   46  N   UNK N   1      27.516  14.476   3.927  0.00  0.00    -0.361 N 
ATOM     47  HN  UNK N   1      27.088  13.900   3.203  1.00  0.00     0.162 HD
HETATM   48  N   UNK N   1      27.794  15.910   5.712  0.00  0.00    -0.360 N 
HETATM   49  C   UNK N   1      33.359  12.351   1.342  0.00  0.00     0.054 C 
HETATM   50  H   UNK N   1      31.499  16.927   6.742  0.00  0.00     0.169 HD
HETATM   51  H   UNK N   1      27.638  16.487   6.493  0.00  0.00     0.162 HD
ENDROOT
BRANCH   4  52
HETATM   52  C   UNK N   1      23.492  17.234   4.894  0.00  0.00     0.276 C 
BRANCH  52  53
HETATM   53  C   UNK N   1      22.205  17.921   4.406  0.00  0.00     0.006 C 
HETATM   54  C   UNK N   1      22.554  19.197   3.668  0.00  0.00     0.011 C 
HETATM   55  C   UNK N   1      21.422  17.027   3.465  0.00  0.00     0.011 C 
ENDBRANCH  52  53
ENDBRANCH   4  52
BRANCH  14  56
HETATM   56  O   UNK N   1      33.569  14.252   3.405  0.00  0.00    -0.359 OA
HETATM   57  H   UNK N   1      33.728  15.075   3.824  0.00  0.00     0.217 HD
ENDBRANCH  14  56
BRANCH  30  58
HETATM   58  O   UNK N   1      34.090   9.135   2.354  0.00  0.00    -0.386 OA
HETATM   59  C   UNK N   1      34.140   7.807   1.928  0.00  0.00     0.202 C 
ENDBRANCH  30  58
BRANCH  19  60
HETATM   60  O   UNK N   1      34.826  16.316   5.839  0.00  0.00    -0.394 OA
HETATM   61  H   UNK N   1      34.523  17.175   5.505  0.00  0.00     0.210 HD
ENDBRANCH  19  60
BRANCH  15  62
HETATM   62  O   UNK N   1      35.654  10.890   3.640  0.00  0.00    -0.315 OA
BRANCH  62  63
HETATM   63  C   UNK N   1      36.699  10.129   4.076  0.00  0.00     0.255 C 
HETATM   64  C   UNK N   1      36.433   8.778   4.645  0.00  0.00     0.126 C 
HETATM   65  O   UNK N   1      37.847  10.538   4.025  0.00  0.00    -0.266 OA
ENDBRANCH  62  63
ENDBRANCH  15  62
BRANCH  18  66
HETATM   66  O   UNK N   1      36.889  12.988   4.637  0.00  0.00    -0.395 OA
HETATM   67  H   UNK N   1      37.662  13.548   4.464  0.00  0.00     0.210 HD
ENDBRANCH  18  66
TORSDOF 8
ENDMDL
MODEL 3
REMARK VINA RESULT:      -7.6     13.340     15.867
REMARK  8 active torsions:
REMARK  status: ('A' for Active; 'I' for Inactive)
REMARK    1  A    between atoms: N_4  and  C_58 
REMARK    2  A    between atoms: C_14  and  O_50 
REMARK    3  A    between atoms: C_15  and  O_44 
REMARK    4  A    between atoms: C_18  and  O_45 
REMARK    5  A    between atoms: C_19  and  O_20 
REMARK    6  A    between atoms: C_31  and  O_39 
REMARK    7  A    between atoms: O_44  and  C_46 
REMARK    8  A    between atoms: C_58  and  C_59 
ROOT
HETATM    1  C   UNK N   1      32.796  17.996 -10.328  0.00  0.00     0.107 C 
HETATM    2  C   UNK N   1      33.782  18.129 -11.494  0.00  0.00     0.084 C 
HETATM    3  C   UNK N   1      33.587  17.061 -12.576  0.00  0.00     0.276 C 
HETATM    4  N   UNK N   1      33.500  15.705 -12.020  0.00  0.00     0.089 N 
HETATM    5  C   UNK N   1      32.393  15.576 -11.071  0.00  0.00     0.276 C 
HETATM    6  C   UNK N   1      32.574  16.536  -9.904  0.00  0.00     0.084 C 
HETATM    7  C   UNK N   1      29.840  20.708  -7.956  0.00  0.00     0.064 C 
HETATM    8  C   UNK N   1      29.967  20.196  -9.276  0.00  0.00     0.027 C 
HETATM    9  C   UNK N   1      28.875  20.407 -10.141  0.00  0.00     0.063 C 
HETATM   10  C   UNK N   1      28.687  20.304 -11.566  0.00  0.00     0.225 C 
HETATM   11  C   UNK N   1      27.702  20.937  -9.674  0.00  0.00     0.096 C 
HETATM   12  C   UNK N   1      28.237  25.353  -8.833  0.00  0.00     0.044 C 
HETATM   13  C   UNK N   1      27.526  21.337  -8.365  0.00  0.00     0.007 C 
HETATM   14  C   UNK N   1      28.612  21.260  -7.501  0.00  0.00     0.089 C 
HETATM   15  C   UNK N   1      28.033  24.803  -7.380  0.00  0.00     0.144 C 
HETATM   16  C   UNK N   1      29.246  24.955  -6.378  0.00  0.00     0.041 C 
HETATM   17  C   UNK N   1      30.065  24.431  -3.861  0.00  0.00     0.040 C 
HETATM   18  C   UNK N   1      28.958  24.361  -4.956  0.00  0.00     0.130 C 
HETATM   19  C   UNK N   1      31.209  23.391  -3.751  0.00  0.00     0.131 C 
HETATM   20  C   UNK N   1      32.292  23.482  -4.852  0.00  0.00     0.033 C 
HETATM   21  C   UNK N   1      33.438  22.481  -4.851  0.00  0.00    -0.020 C 
HETATM   22  C   UNK N   1      35.418  20.052  -5.258  0.00  0.00     0.006 C 
HETATM   23  C   UNK N   1      34.937  20.673  -4.148  0.00  0.00     0.012 C 
HETATM   24  C   UNK N   1      33.676  21.468  -4.002  0.00  0.00    -0.003 C 
HETATM   25  C   UNK N   1      34.649  19.905  -6.526  0.00  0.00     0.252 C 
HETATM   26  C   UNK N   1      31.014  20.689  -7.056  0.00  0.00     0.214 C 
HETATM   27  C   UNK N   1      32.289  20.095  -7.469  0.00  0.00     0.115 C 
HETATM   28  N   UNK N   1      33.322  20.137  -6.491  0.00  0.00    -0.318 N 
HETATM   29  O   UNK N   1      29.527  19.945 -12.377  0.00  0.00    -0.286 OA
HETATM   30  C   UNK N   1      27.140  25.002  -9.896  0.00  0.00     0.151 C 
HETATM   31  C   UNK N   1      27.313  23.660 -10.564  0.00  0.00     0.029 C 
HETATM   32  C   UNK N   1      27.402  23.464 -11.901  0.00  0.00     0.137 C 
HETATM   33  O   UNK N   1      27.553  22.218 -12.489  0.00  0.00    -0.319 OA
HETATM   34  C   UNK N   1      27.355  20.960 -11.896  0.00  0.00     0.237 C 
HETATM   35  O   UNK N   1      26.792  21.114 -10.643  0.00  0.00    -0.305 OA
HETATM   36  C   UNK N   1      26.476  20.069 -12.754  0.00  0.00     0.089 C 
HETATM   37  C   UNK N   1      36.792  19.469  -5.187  0.00  0.00     0.054 C 
HETATM   38  C   UNK N   1      29.630  25.073  -9.380  0.00  0.00     0.015 C 
HETATM   39  C   UNK N   1      30.454  25.834  -3.422  0.00  0.00     0.015 C 
HETATM   40  C   UNK N   1      32.944  24.852  -4.813  0.00  0.00     0.017 C 
HETATM   41  O   UNK N   1      30.930  21.159  -5.947  0.00  0.00    -0.285 OA
HETATM   42  C   UNK N   1      29.753  26.388  -6.308  0.00  0.00     0.015 C 
HETATM   43  O   UNK N   1      35.209  19.566  -7.555  0.00  0.00    -0.268 OA
HETATM   44  C   UNK N   1      32.340  19.495  -8.664  0.00  0.00     0.089 C 
HETATM   45  C   UNK N   1      31.250  19.490  -9.597  0.00  0.00     0.071 C 
HETATM   46  N   UNK N   1      31.494  18.662 -10.551  0.00  0.00    -0.361 N 
ATOM     47  HN  UNK N   1      30.878  18.490 -11.345  1.00  0.00     0.162 HD
HETATM   48  N   UNK N   1      33.338  18.672  -9.167  0.00  0.00    -0.360 N 
HETATM   49  C   UNK N   1      26.232  21.936  -7.920  0.00  0.00     0.054 C 
HETATM   50  H   UNK N   1      32.997  20.390  -5.596  0.00  0.00     0.169 HD
HETATM   51  H   UNK N   1      34.246  18.566  -8.802  0.00  0.00     0.162 HD
ENDROOT
BRANCH   4  52
HETATM   52  C   UNK N   1      34.796  15.104 -11.632  0.00  0.00     0.276 C 
BRANCH  52  53
HETATM   53  C   UNK N   1      34.736  13.720 -10.963  0.00  0.00     0.006 C 
HETATM   54  C   UNK N   1      35.550  12.727 -11.767  0.00  0.00     0.011 C 
HETATM   55  C   UNK N   1      35.293  13.762  -9.554  0.00  0.00     0.011 C 
ENDBRANCH  52  53
ENDBRANCH   4  52
BRANCH  14  56
HETATM   56  O   UNK N   1      28.481  21.718  -6.244  0.00  0.00    -0.359 OA
HETATM   57  H   UNK N   1      28.137  22.565  -6.040  0.00  0.00     0.217 HD
ENDBRANCH  14  56
BRANCH  30  58
HETATM   58  O   UNK N   1      25.861  25.065  -9.327  0.00  0.00    -0.386 OA
HETATM   59  C   UNK N   1      25.112  25.898 -10.159  0.00  0.00     0.202 C 
ENDBRANCH  30  58
BRANCH  19  60
HETATM   60  O   UNK N   1      30.666  22.112  -3.630  0.00  0.00    -0.394 OA
HETATM   61  H   UNK N   1      30.553  21.215  -3.981  0.00  0.00     0.210 HD
ENDBRANCH  19  60
BRANCH  15  62
HETATM   62  O   UNK N   1      26.839  25.275  -6.841  0.00  0.00    -0.315 OA
BRANCH  62  63
HETATM   63  C   UNK N   1      26.454  26.580  -6.747  0.00  0.00     0.255 C 
HETATM   64  C   UNK N   1      25.254  26.934  -5.938  0.00  0.00     0.126 C 
HETATM   65  O   UNK N   1      27.063  27.466  -7.326  0.00  0.00    -0.266 OA
ENDBRANCH  62  63
ENDBRANCH  15  62
BRANCH  18  66
HETATM   66  O   UNK N   1      27.804  24.934  -4.417  0.00  0.00    -0.395 OA
HETATM   67  H   UNK N   1      27.742  25.430  -3.585  0.00  0.00     0.210 HD
ENDBRANCH  18  66
TORSDOF 8
ENDMDL
MODEL 4
REMARK VINA RESULT:      -7.4      1.993      2.413
REMARK  8 active torsions:
REMARK  status: ('A' for Active; 'I' for Inactive)
REMARK    1  A    between atoms: N_4  and  C_58 
REMARK    2  A    between atoms: C_14  and  O_50 
REMARK    3  A    between atoms: C_15  and  O_44 
REMARK    4  A    between atoms: C_18  and  O_45 
REMARK    5  A    between atoms: C_19  and  O_20 
REMARK    6  A    between atoms: C_31  and  O_39 
REMARK    7  A    between atoms: O_44  and  C_46 
REMARK    8  A    between atoms: C_58  and  C_59 
ROOT
HETATM    1  C   UNK N   1      29.781  14.084   4.043  0.00  0.00     0.107 C 
HETATM    2  C   UNK N   1      30.630  14.165   2.770  0.00  0.00     0.084 C 
HETATM    3  C   UNK N   1      32.002  13.498   2.915  0.00  0.00     0.276 C 
HETATM    4  N   UNK N   1      32.709  13.920   4.130  0.00  0.00     0.089 N 
HETATM    5  C   UNK N   1      31.941  13.614   5.339  0.00  0.00     0.276 C 
HETATM    6  C   UNK N   1      30.601  14.333   5.318  0.00  0.00     0.084 C 
HETATM    7  C   UNK N   1      25.469  12.802   5.263  0.00  0.00     0.064 C 
HETATM    8  C   UNK N   1      26.644  12.185   4.754  0.00  0.00     0.027 C 
HETATM    9  C   UNK N   1      26.639  10.777   4.692  0.00  0.00     0.063 C 
HETATM   10  C   UNK N   1      27.462   9.798   4.030  0.00  0.00     0.225 C 
HETATM   11  C   UNK N   1      25.615  10.054   5.243  0.00  0.00     0.096 C 
HETATM   12  C   UNK N   1      21.901  10.449   2.687  0.00  0.00     0.044 C 
HETATM   13  C   UNK N   1      24.518  10.639   5.843  0.00  0.00     0.007 C 
HETATM   14  C   UNK N   1      24.419  12.026   5.823  0.00  0.00     0.089 C 
HETATM   15  C   UNK N   1      21.447  11.211   3.978  0.00  0.00     0.144 C 
HETATM   16  C   UNK N   1      21.131  12.752   3.829  0.00  0.00     0.041 C 
HETATM   17  C   UNK N   1      20.366  14.956   5.185  0.00  0.00     0.040 C 
HETATM   18  C   UNK N   1      20.703  13.434   5.174  0.00  0.00     0.130 C 
HETATM   19  C   UNK N   1      21.450  16.059   5.301  0.00  0.00     0.131 C 
HETATM   20  C   UNK N   1      22.324  16.261   4.041  0.00  0.00     0.033 C 
HETATM   21  C   UNK N   1      23.439  17.295   4.069  0.00  0.00    -0.020 C 
HETATM   22  C   UNK N   1      26.135  18.926   4.318  0.00  0.00     0.006 C 
HETATM   23  C   UNK N   1      24.888  19.124   4.824  0.00  0.00     0.012 C 
HETATM   24  C   UNK N   1      23.815  18.108   5.070  0.00  0.00    -0.003 C 
HETATM   25  C   UNK N   1      26.730  17.580   4.079  0.00  0.00     0.252 C 
HETATM   26  C   UNK N   1      25.331  14.273   5.182  0.00  0.00     0.214 C 
HETATM   27  C   UNK N   1      26.404  15.118   4.649  0.00  0.00     0.115 C 
HETATM   28  N   UNK N   1      26.132  16.515   4.648  0.00  0.00    -0.318 N 
HETATM   29  O   UNK N   1      28.447  10.032   3.348  0.00  0.00    -0.286 OA
HETATM   30  C   UNK N   1      22.439   8.987   2.865  0.00  0.00     0.151 C 
HETATM   31  C   UNK N   1      23.900   8.892   3.228  0.00  0.00     0.029 C 
HETATM   32  C   UNK N   1      24.829   8.196   2.531  0.00  0.00     0.137 C 
HETATM   33  O   UNK N   1      26.165   8.118   2.891  0.00  0.00    -0.319 OA
HETATM   34  C   UNK N   1      26.742   8.461   4.125  0.00  0.00     0.237 C 
HETATM   35  O   UNK N   1      25.750   8.735   5.049  0.00  0.00    -0.305 OA
HETATM   36  C   UNK N   1      27.647   7.360   4.647  0.00  0.00     0.089 C 
HETATM   37  C   UNK N   1      26.957  20.133   4.006  0.00  0.00     0.054 C 
HETATM   38  C   UNK N   1      22.842  11.270   1.817  0.00  0.00     0.015 C 
HETATM   39  C   UNK N   1      19.155  15.358   4.357  0.00  0.00     0.015 C 
HETATM   40  C   UNK N   1      21.442  16.640   2.866  0.00  0.00     0.017 C 
HETATM   41  O   UNK N   1      24.319  14.806   5.574  0.00  0.00    -0.285 OA
HETATM   42  C   UNK N   1      20.140  13.026   2.707  0.00  0.00     0.015 C 
HETATM   43  O   UNK N   1      27.738  17.459   3.403  0.00  0.00    -0.268 OA
HETATM   44  C   UNK N   1      27.553  14.524   4.306  0.00  0.00     0.089 C 
HETATM   45  C   UNK N   1      27.754  13.104   4.339  0.00  0.00     0.071 C 
HETATM   46  N   UNK N   1      29.001  12.833   4.178  0.00  0.00    -0.361 N 
ATOM     47  HN  UNK N   1      29.394  11.893   4.149  1.00  0.00     0.162 HD
HETATM   48  N   UNK N   1      28.770  15.122   4.009  0.00  0.00    -0.360 N 
HETATM   49  C   UNK N   1      23.417   9.799   6.402  0.00  0.00     0.054 C 
HETATM   50  H   UNK N   1      25.337  16.754   5.177  0.00  0.00     0.169 HD
HETATM   51  H   UNK N   1      28.919  16.074   3.811  0.00  0.00     0.162 HD
ENDROOT
BRANCH   4  52
HETATM   52  C   UNK N   1      33.343  15.255   4.053  0.00  0.00     0.276 C 
BRANCH  52  53
HETATM   53  C   UNK N   1      33.545  15.995   5.387  0.00  0.00     0.006 C 
HETATM   54  C   UNK N   1      34.937  15.721   5.918  0.00  0.00     0.011 C 
HETATM   55  C   UNK N   1      33.388  17.493   5.218  0.00  0.00     0.011 C 
ENDBRANCH  52  53
ENDBRANCH   4  52
BRANCH  14  56
HETATM   56  O   UNK N   1      23.320  12.609   6.332  0.00  0.00    -0.359 OA
HETATM   57  H   UNK N   1      23.326  13.458   6.728  0.00  0.00     0.217 HD
ENDBRANCH  14  56
BRANCH  30  58
HETATM   58  O   UNK N   1      21.686   8.296   3.824  0.00  0.00    -0.386 OA
HETATM   59  C   UNK N   1      21.449   7.031   3.285  0.00  0.00     0.202 C 
ENDBRANCH  30  58
BRANCH  19  60
HETATM   60  O   UNK N   1      22.205  15.850   6.456  0.00  0.00    -0.394 OA
HETATM   61  H   UNK N   1      23.004  15.503   6.881  0.00  0.00     0.210 HD
ENDBRANCH  19  60
BRANCH  15  62
HETATM   62  O   UNK N   1      20.421  10.520   4.619  0.00  0.00    -0.315 OA
BRANCH  62  63
HETATM   63  C   UNK N   1      19.154  10.332   4.148  0.00  0.00     0.255 C 
HETATM   64  C   UNK N   1      18.956   9.715   2.806  0.00  0.00     0.126 C 
HETATM   65  O   UNK N   1      18.178  10.674   4.795  0.00  0.00    -0.266 OA
ENDBRANCH  62  63
ENDBRANCH  15  62
BRANCH  18  66
HETATM   66  O   UNK N   1      19.611  12.764   5.730  0.00  0.00    -0.395 OA
HETATM   67  H   UNK N   1      18.674  12.968   5.583  0.00  0.00     0.210 HD
ENDBRANCH  18  66
TORSDOF 8
ENDMDL
MODEL 5
REMARK VINA RESULT:      -7.2      4.530     10.640
REMARK  8 active torsions:
REMARK  status: ('A' for Active; 'I' for Inactive)
REMARK    1  A    between atoms: N_4  and  C_58 
REMARK    2  A    between atoms: C_14  and  O_50 
REMARK    3  A    between atoms: C_15  and  O_44 
REMARK    4  A    between atoms: C_18  and  O_45 
REMARK    5  A    between atoms: C_19  and  O_20 
REMARK    6  A    between atoms: C_31  and  O_39 
REMARK    7  A    between atoms: O_44  and  C_46 
REMARK    8  A    between atoms: C_58  and  C_59 
ROOT
HETATM    1  C   UNK N   1      30.930  11.134   0.662  0.00  0.00     0.107 C 
HETATM    2  C   UNK N   1      30.194   9.791   0.627  0.00  0.00     0.084 C 
HETATM    3  C   UNK N   1      30.762   8.816  -0.411  0.00  0.00     0.276 C 
HETATM    4  N   UNK N   1      30.935   9.436  -1.730  0.00  0.00     0.089 N 
HETATM    5  C   UNK N   1      31.832  10.592  -1.675  0.00  0.00     0.276 C 
HETATM    6  C   UNK N   1      31.276  11.656  -0.740  0.00  0.00     0.084 C 
HETATM    7  C   UNK N   1      32.904  13.928   3.828  0.00  0.00     0.064 C 
HETATM    8  C   UNK N   1      33.126  12.632   3.286  0.00  0.00     0.027 C 
HETATM    9  C   UNK N   1      34.327  11.994   3.654  0.00  0.00     0.063 C 
HETATM   10  C   UNK N   1      34.814  10.641   3.564  0.00  0.00     0.225 C 
HETATM   11  C   UNK N   1      35.288  12.662   4.364  0.00  0.00     0.096 C 
HETATM   12  C   UNK N   1      33.941  13.188   8.653  0.00  0.00     0.044 C 
HETATM   13  C   UNK N   1      35.133  13.962   4.802  0.00  0.00     0.007 C 
HETATM   14  C   UNK N   1      33.917  14.594   4.569  0.00  0.00     0.089 C 
HETATM   15  C   UNK N   1      33.924  14.675   8.160  0.00  0.00     0.144 C 
HETATM   16  C   UNK N   1      32.524  15.407   8.134  0.00  0.00     0.041 C 
HETATM   17  C   UNK N   1      31.297  17.731   7.521  0.00  0.00     0.040 C 
HETATM   18  C   UNK N   1      32.602  16.882   7.610  0.00  0.00     0.130 C 
HETATM   19  C   UNK N   1      30.323  17.655   6.318  0.00  0.00     0.131 C 
HETATM   20  C   UNK N   1      29.485  16.358   6.227  0.00  0.00     0.033 C 
HETATM   21  C   UNK N   1      28.526  16.174   5.061  0.00  0.00    -0.020 C 
HETATM   22  C   UNK N   1      27.054  15.486   2.349  0.00  0.00     0.006 C 
HETATM   23  C   UNK N   1      27.201  16.642   3.051  0.00  0.00     0.012 C 
HETATM   24  C   UNK N   1      28.274  17.001   4.033  0.00  0.00    -0.003 C 
HETATM   25  C   UNK N   1      28.079  14.404   2.308  0.00  0.00     0.252 C 
HETATM   26  C   UNK N   1      31.587  14.576   3.638  0.00  0.00     0.214 C 
HETATM   27  C   UNK N   1      30.526  13.943   2.849  0.00  0.00     0.115 C 
HETATM   28  N   UNK N   1      29.321  14.693   2.743  0.00  0.00    -0.318 N 
HETATM   29  O   UNK N   1      34.220   9.696   3.068  0.00  0.00    -0.286 OA
HETATM   30  C   UNK N   1      35.271  12.381   8.464  0.00  0.00     0.151 C 
HETATM   31  C   UNK N   1      35.439  11.751   7.103  0.00  0.00     0.029 C 
HETATM   32  C   UNK N   1      35.655  10.433   6.880  0.00  0.00     0.137 C 
HETATM   33  O   UNK N   1      35.815   9.881   5.619  0.00  0.00    -0.319 OA
HETATM   34  C   UNK N   1      36.073  10.555   4.413  0.00  0.00     0.237 C 
HETATM   35  O   UNK N   1      36.340  11.888   4.667  0.00  0.00    -0.305 OA
HETATM   36  C   UNK N   1      37.231   9.929   3.658  0.00  0.00     0.089 C 
HETATM   37  C   UNK N   1      25.797  15.306   1.562  0.00  0.00     0.054 C 
HETATM   38  C   UNK N   1      32.746  12.387   8.155  0.00  0.00     0.015 C 
HETATM   39  C   UNK N   1      30.623  18.022   8.852  0.00  0.00     0.015 C 
HETATM   40  C   UNK N   1      28.643  16.207   7.479  0.00  0.00     0.017 C 
HETATM   41  O   UNK N   1      31.373  15.659   4.129  0.00  0.00    -0.285 OA
HETATM   42  C   UNK N   1      31.806  15.313   9.473  0.00  0.00     0.015 C 
HETATM   43  O   UNK N   1      27.797  13.300   1.874  0.00  0.00    -0.268 OA
HETATM   44  C   UNK N   1      30.809  12.789   2.234  0.00  0.00     0.089 C 
HETATM   45  C   UNK N   1      32.054  12.093   2.387  0.00  0.00     0.071 C 
HETATM   46  N   UNK N   1      32.137  11.147   1.520  0.00  0.00    -0.361 N 
ATOM     47  HN  UNK N   1      32.920  10.500   1.435  1.00  0.00     0.162 HD
HETATM   48  N   UNK N   1      30.068  12.134   1.260  0.00  0.00    -0.360 N 
HETATM   49  C   UNK N   1      36.204  14.630   5.600  0.00  0.00     0.054 C 
HETATM   50  H   UNK N   1      29.416  15.623   3.054  0.00  0.00     0.169 HD
HETATM   51  H   UNK N   1      29.131  12.315   1.020  0.00  0.00     0.162 HD
ENDROOT
BRANCH   4  52
HETATM   52  C   UNK N   1      29.691   9.583  -2.520  0.00  0.00     0.276 C 
BRANCH  52  53
HETATM   53  C   UNK N   1      29.735   9.067  -3.968  0.00  0.00     0.006 C 
HETATM   54  C   UNK N   1      30.724   7.925  -4.074  0.00  0.00     0.011 C 
HETATM   55  C   UNK N   1      28.378   8.563  -4.417  0.00  0.00     0.011 C 
ENDBRANCH  52  53
ENDBRANCH   4  52
BRANCH  14  56
HETATM   56  O   UNK N   1      33.720  15.831   5.057  0.00  0.00    -0.359 OA
HETATM   57  H   UNK N   1      32.881  16.248   5.076  0.00  0.00     0.217 HD
ENDBRANCH  14  56
BRANCH  30  58
HETATM   58  O   UNK N   1      36.384  13.191   8.730  0.00  0.00    -0.386 OA
HETATM   59  C   UNK N   1      37.125  12.515   9.700  0.00  0.00     0.202 C 
ENDBRANCH  30  58
BRANCH  19  60
HETATM   60  O   UNK N   1      31.014  17.937   5.139  0.00  0.00    -0.394 OA
HETATM   61  H   UNK N   1      31.051  18.377   4.276  0.00  0.00     0.210 HD
ENDBRANCH  19  60
BRANCH  15  62
HETATM   62  O   UNK N   1      34.900  15.420   8.817  0.00  0.00    -0.315 OA
BRANCH  62  63
HETATM   63  C   UNK N   1      35.014  15.593  10.166  0.00  0.00     0.255 C 
HETATM   64  C   UNK N   1      35.688  16.812  10.694  0.00  0.00     0.126 C 
HETATM   65  O   UNK N   1      34.591  14.760  10.951  0.00  0.00    -0.266 OA
ENDBRANCH  62  63
ENDBRANCH  15  62
BRANCH  18  66
HETATM   66  O   UNK N   1      33.524  17.616   8.361  0.00  0.00    -0.395 OA
HETATM   67  H   UNK N   1      34.410  17.889   8.076  0.00  0.00     0.210 HD
ENDBRANCH  18  66
TORSDOF 8
ENDMDL
MODEL 6
REMARK VINA RESULT:      -7.1      4.125     10.605
REMARK  8 active torsions:
REMARK  status: ('A' for Active; 'I' for Inactive)
REMARK    1  A    between atoms: N_4  and  C_58 
REMARK    2  A    between atoms: C_14  and  O_50 
REMARK    3  A    between atoms: C_15  and  O_44 
REMARK    4  A    between atoms: C_18  and  O_45 
REMARK    5  A    between atoms: C_19  and  O_20 
REMARK    6  A    between atoms: C_31  and  O_39 
REMARK    7  A    between atoms: O_44  and  C_46 
REMARK    8  A    between atoms: C_58  and  C_59 
ROOT
HETATM    1  C   UNK N   1      27.224  11.418   3.431  0.00  0.00     0.107 C 
HETATM    2  C   UNK N   1      25.964  10.872   4.110  0.00  0.00     0.084 C 
HETATM    3  C   UNK N   1      25.369   9.655   3.392  0.00  0.00     0.276 C 
HETATM    4  N   UNK N   1      25.223   9.868   1.948  0.00  0.00     0.089 N 
HETATM    5  C   UNK N   1      26.506  10.171   1.310  0.00  0.00     0.276 C 
HETATM    6  C   UNK N   1      27.111  11.437   1.899  0.00  0.00     0.084 C 
HETATM    7  C   UNK N   1      31.571  12.605   4.623  0.00  0.00     0.064 C 
HETATM    8  C   UNK N   1      30.784  11.422   4.563  0.00  0.00     0.027 C 
HETATM    9  C   UNK N   1      31.460  10.205   4.780  0.00  0.00     0.063 C 
HETATM   10  C   UNK N   1      31.036   8.858   5.063  0.00  0.00     0.225 C 
HETATM   11  C   UNK N   1      32.824  10.169   4.884  0.00  0.00     0.096 C 
HETATM   12  C   UNK N   1      34.110  11.904   8.863  0.00  0.00     0.044 C 
HETATM   13  C   UNK N   1      33.614  11.300   4.833  0.00  0.00     0.007 C 
HETATM   14  C   UNK N   1      32.986  12.537   4.740  0.00  0.00     0.089 C 
HETATM   15  C   UNK N   1      34.673  12.985   7.879  0.00  0.00     0.144 C 
HETATM   16  C   UNK N   1      34.063  14.439   7.985  0.00  0.00     0.041 C 
HETATM   17  C   UNK N   1      34.163  16.922   6.931  0.00  0.00     0.040 C 
HETATM   18  C   UNK N   1      34.672  15.448   6.951  0.00  0.00     0.130 C 
HETATM   19  C   UNK N   1      32.883  17.361   6.176  0.00  0.00     0.131 C 
HETATM   20  C   UNK N   1      31.550  16.910   6.818  0.00  0.00     0.033 C 
HETATM   21  C   UNK N   1      30.239  17.262   6.131  0.00  0.00    -0.020 C 
HETATM   22  C   UNK N   1      27.588  17.393   4.415  0.00  0.00     0.006 C 
HETATM   23  C   UNK N   1      28.634  18.250   4.562  0.00  0.00     0.012 C 
HETATM   24  C   UNK N   1      30.036  17.937   4.989  0.00  0.00    -0.003 C 
HETATM   25  C   UNK N   1      27.714  15.910   4.486  0.00  0.00     0.252 C 
HETATM   26  C   UNK N   1      30.900  13.923   4.592  0.00  0.00     0.214 C 
HETATM   27  C   UNK N   1      29.447  14.043   4.434  0.00  0.00     0.115 C 
HETATM   28  N   UNK N   1      28.948  15.375   4.407  0.00  0.00    -0.318 N 
HETATM   29  O   UNK N   1      29.881   8.471   5.147  0.00  0.00    -0.286 OA
HETATM   30  C   UNK N   1      34.532  10.415   8.614  0.00  0.00     0.151 C 
HETATM   31  C   UNK N   1      33.691   9.681   7.597  0.00  0.00     0.029 C 
HETATM   32  C   UNK N   1      33.033   8.520   7.828  0.00  0.00     0.137 C 
HETATM   33  O   UNK N   1      32.274   7.862   6.874  0.00  0.00    -0.319 OA
HETATM   34  C   UNK N   1      32.270   8.074   5.486  0.00  0.00     0.237 C 
HETATM   35  O   UNK N   1      33.292   8.938   5.138  0.00  0.00    -0.305 OA
HETATM   36  C   UNK N   1      32.409   6.772   4.720  0.00  0.00     0.089 C 
HETATM   37  C   UNK N   1      26.242  17.982   4.146  0.00  0.00     0.054 C 
HETATM   38  C   UNK N   1      32.605  12.013   9.062  0.00  0.00     0.015 C 
HETATM   39  C   UNK N   1      34.449  17.722   8.192  0.00  0.00     0.015 C 
HETATM   40  C   UNK N   1      31.443  17.476   8.222  0.00  0.00     0.017 C 
HETATM   41  O   UNK N   1      31.554  14.934   4.685  0.00  0.00    -0.285 OA
HETATM   42  C   UNK N   1      34.113  14.977   9.408  0.00  0.00     0.015 C 
HETATM   43  O   UNK N   1      26.721  15.208   4.594  0.00  0.00    -0.268 OA
HETATM   44  C   UNK N   1      28.747  12.920   4.238  0.00  0.00     0.089 C 
HETATM   45  C   UNK N   1      29.324  11.607   4.275  0.00  0.00     0.071 C 
HETATM   46  N   UNK N   1      28.478  10.743   3.838  0.00  0.00    -0.361 N 
ATOM     47  HN  UNK N   1      28.646   9.739   3.779  1.00  0.00     0.162 HD
HETATM   48  N   UNK N   1      27.424  12.795   3.835  0.00  0.00    -0.360 N 
HETATM   49  C   UNK N   1      35.096  11.202   4.982  0.00  0.00     0.054 C 
HETATM   50  H   UNK N   1      29.657  16.051   4.309  0.00  0.00     0.169 HD
HETATM   51  H   UNK N   1      26.748  13.509   3.824  0.00  0.00     0.162 HD
ENDROOT
BRANCH   4  52
HETATM   52  C   UNK N   1      24.061  10.695   1.552  0.00  0.00     0.276 C 
BRANCH  52  53
HETATM   53  C   UNK N   1      24.062  11.233   0.111  0.00  0.00     0.006 C 
HETATM   54  C   UNK N   1      23.313  10.277  -0.794  0.00  0.00     0.011 C 
HETATM   55  C   UNK N   1      23.394  12.591   0.025  0.00  0.00     0.011 C 
ENDBRANCH  52  53
ENDBRANCH   4  52
BRANCH  14  56
HETATM   56  O   UNK N   1      33.734  13.653   4.768  0.00  0.00    -0.359 OA
HETATM   57  H   UNK N   1      33.763  14.270   4.063  0.00  0.00     0.217 HD
ENDBRANCH  14  56
BRANCH  30  58
HETATM   58  O   UNK N   1      35.878  10.339   8.230  0.00  0.00    -0.386 OA
HETATM   59  C   UNK N   1      36.459   9.377   9.056  0.00  0.00     0.202 C 
ENDBRANCH  30  58
BRANCH  19  60
HETATM   60  O   UNK N   1      32.987  17.000   4.833  0.00  0.00    -0.394 OA
HETATM   61  H   UNK N   1      32.911  16.326   4.140  0.00  0.00     0.210 HD
ENDBRANCH  19  60
BRANCH  15  62
HETATM   62  O   UNK N   1      36.065  12.992   7.903  0.00  0.00    -0.315 OA
BRANCH  62  63
HETATM   63  C   UNK N   1      36.854  13.382   8.946  0.00  0.00     0.255 C 
HETATM   64  C   UNK N   1      36.597  12.831  10.306  0.00  0.00     0.126 C 
HETATM   65  O   UNK N   1      37.759  14.187   8.791  0.00  0.00    -0.266 OA
ENDBRANCH  62  63
ENDBRANCH  15  62
BRANCH  18  66
HETATM   66  O   UNK N   1      36.062  15.491   7.079  0.00  0.00    -0.395 OA
HETATM   67  H   UNK N   1      36.636  14.765   7.372  0.00  0.00     0.210 HD
ENDBRANCH  18  66
TORSDOF 8
ENDMDL
MODEL 7
REMARK VINA RESULT:      -7.1      9.155     13.917
REMARK  8 active torsions:
REMARK  status: ('A' for Active; 'I' for Inactive)
REMARK    1  A    between atoms: N_4  and  C_58 
REMARK    2  A    between atoms: C_14  and  O_50 
REMARK    3  A    between atoms: C_15  and  O_44 
REMARK    4  A    between atoms: C_18  and  O_45 
REMARK    5  A    between atoms: C_19  and  O_20 
REMARK    6  A    between atoms: C_31  and  O_39 
REMARK    7  A    between atoms: O_44  and  C_46 
REMARK    8  A    between atoms: C_58  and  C_59 
ROOT
HETATM    1  C   UNK N   1      35.632  11.621  13.070  0.00  0.00     0.107 C 
HETATM    2  C   UNK N   1      34.419  11.471  13.994  0.00  0.00     0.084 C 
HETATM    3  C   UNK N   1      34.387  12.507  15.122  0.00  0.00     0.276 C 
HETATM    4  N   UNK N   1      35.668  12.607  15.832  0.00  0.00     0.089 N 
HETATM    5  C   UNK N   1      36.762  12.973  14.930  0.00  0.00     0.276 C 
HETATM    6  C   UNK N   1      36.927  11.928  13.837  0.00  0.00     0.084 C 
HETATM    7  C   UNK N   1      36.499  11.912   8.499  0.00  0.00     0.064 C 
HETATM    8  C   UNK N   1      35.847  12.688   9.496  0.00  0.00     0.027 C 
HETATM    9  C   UNK N   1      35.431  13.980   9.117  0.00  0.00     0.063 C 
HETATM   10  C   UNK N   1      34.541  14.957   9.689  0.00  0.00     0.225 C 
HETATM   11  C   UNK N   1      35.784  14.501   7.901  0.00  0.00     0.096 C 
HETATM   12  C   UNK N   1      33.419  12.481   4.614  0.00  0.00     0.044 C 
HETATM   13  C   UNK N   1      36.515  13.799   6.964  0.00  0.00     0.007 C 
HETATM   14  C   UNK N   1      36.846  12.478   7.243  0.00  0.00     0.089 C 
HETATM   15  C   UNK N   1      34.862  11.961   4.294  0.00  0.00     0.144 C 
HETATM   16  C   UNK N   1      35.108  10.405   4.416  0.00  0.00     0.041 C 
HETATM   17  C   UNK N   1      36.979   8.474   4.182  0.00  0.00     0.040 C 
HETATM   18  C   UNK N   1      36.583   9.980   4.097  0.00  0.00     0.130 C 
HETATM   19  C   UNK N   1      37.368   7.779   5.512  0.00  0.00     0.131 C 
HETATM   20  C   UNK N   1      36.198   7.527   6.492  0.00  0.00     0.033 C 
HETATM   21  C   UNK N   1      36.484   6.882   7.839  0.00  0.00    -0.020 C 
HETATM   22  C   UNK N   1      37.132   6.176  10.852  0.00  0.00     0.006 C 
HETATM   23  C   UNK N   1      37.673   5.769   9.672  0.00  0.00     0.012 C 
HETATM   24  C   UNK N   1      37.657   6.475   8.351  0.00  0.00    -0.003 C 
HETATM   25  C   UNK N   1      36.559   7.534  11.077  0.00  0.00     0.252 C 
HETATM   26  C   UNK N   1      36.793  10.487   8.768  0.00  0.00     0.214 C 
HETATM   27  C   UNK N   1      36.487   9.870  10.063  0.00  0.00     0.115 C 
HETATM   28  N   UNK N   1      36.841   8.496  10.177  0.00  0.00    -0.318 N 
HETATM   29  O   UNK N   1      33.937  14.847  10.745  0.00  0.00    -0.286 OA
HETATM   30  C   UNK N   1      33.220  14.032   4.725  0.00  0.00     0.151 C 
HETATM   31  C   UNK N   1      33.544  14.614   6.078  0.00  0.00     0.029 C 
HETATM   32  C   UNK N   1      32.691  15.349   6.831  0.00  0.00     0.137 C 
HETATM   33  O   UNK N   1      33.017  15.881   8.069  0.00  0.00    -0.319 OA
HETATM   34  C   UNK N   1      34.297  16.022   8.631  0.00  0.00     0.237 C 
HETATM   35  O   UNK N   1      35.262  15.718   7.689  0.00  0.00    -0.305 OA
HETATM   36  C   UNK N   1      34.520  17.423   9.168  0.00  0.00     0.089 C 
HETATM   37  C   UNK N   1      37.133   5.206  11.988  0.00  0.00     0.054 C 
HETATM   38  C   UNK N   1      32.783  11.767   5.798  0.00  0.00     0.015 C 
HETATM   39  C   UNK N   1      36.282   7.564   3.183  0.00  0.00     0.015 C 
HETATM   40  C   UNK N   1      35.159   6.644   5.827  0.00  0.00     0.017 C 
HETATM   41  O   UNK N   1      37.308   9.807   7.913  0.00  0.00    -0.285 OA
HETATM   42  C   UNK N   1      34.094   9.602   3.614  0.00  0.00     0.015 C 
HETATM   43  O   UNK N   1      35.872   7.761  12.059  0.00  0.00    -0.268 OA
HETATM   44  C   UNK N   1      36.003  10.657  11.030  0.00  0.00     0.089 C 
HETATM   45  C   UNK N   1      35.675  12.041  10.838  0.00  0.00     0.071 C 
HETATM   46  N   UNK N   1      35.448  12.599  11.974  0.00  0.00    -0.361 N 
ATOM     47  HN  UNK N   1      35.181  13.575  12.101  1.00  0.00     0.162 HD
HETATM   48  N   UNK N   1      35.864  10.367  12.380  0.00  0.00    -0.360 N 
HETATM   49  C   UNK N   1      36.845  14.411   5.642  0.00  0.00     0.054 C 
HETATM   50  H   UNK N   1      37.415   8.182   9.442  0.00  0.00     0.169 HD
HETATM   51  H   UNK N   1      35.913   9.476  12.793  0.00  0.00     0.162 HD
ENDROOT
BRANCH   4  52
HETATM   52  C   UNK N   1      35.930  11.524  16.806  0.00  0.00     0.276 C 
BRANCH  52  53
HETATM   53  C   UNK N   1      35.239  11.652  18.175  0.00  0.00     0.006 C 
HETATM   54  C   UNK N   1      35.982  10.824  19.203  0.00  0.00     0.011 C 
HETATM   55  C   UNK N   1      35.215  13.091  18.650  0.00  0.00     0.011 C 
ENDBRANCH  52  53
ENDBRANCH   4  52
BRANCH  14  56
HETATM   56  O   UNK N   1      37.489  11.755   6.310  0.00  0.00    -0.359 OA
HETATM   57  H   UNK N   1      37.695  12.084   5.457  0.00  0.00     0.217 HD
ENDBRANCH  14  56
BRANCH  30  58
HETATM   58  O   UNK N   1      33.975  14.698   3.750  0.00  0.00    -0.386 OA
HETATM   59  C   UNK N   1      33.130  15.669   3.210  0.00  0.00     0.202 C 
ENDBRANCH  30  58
BRANCH  19  60
HETATM   60  O   UNK N   1      38.431   8.464   6.102  0.00  0.00    -0.394 OA
HETATM   61  H   UNK N   1      39.332   8.460   6.460  0.00  0.00     0.210 HD
ENDBRANCH  19  60
BRANCH  15  62
HETATM   62  O   UNK N   1      35.310  12.474   3.079  0.00  0.00    -0.315 OA
BRANCH  62  63
HETATM   63  C   UNK N   1      34.811  12.181   1.844  0.00  0.00     0.255 C 
HETATM   64  C   UNK N   1      33.356  12.367   1.578  0.00  0.00     0.126 C 
HETATM   65  O   UNK N   1      35.528  11.752   0.954  0.00  0.00    -0.266 OA
ENDBRANCH  62  63
ENDBRANCH  15  62
BRANCH  18  66
HETATM   66  O   UNK N   1      36.954  10.435   2.830  0.00  0.00    -0.395 OA
HETATM   67  H   UNK N   1      37.579  11.153   2.636  0.00  0.00     0.210 HD
ENDBRANCH  18  66
TORSDOF 8
ENDMDL
MODEL 8
REMARK VINA RESULT:      -7.0      8.843     12.018
REMARK  8 active torsions:
REMARK  status: ('A' for Active; 'I' for Inactive)
REMARK    1  A    between atoms: N_4  and  C_58 
REMARK    2  A    between atoms: C_14  and  O_50 
REMARK    3  A    between atoms: C_15  and  O_44 
REMARK    4  A    between atoms: C_18  and  O_45 
REMARK    5  A    between atoms: C_19  and  O_20 
REMARK    6  A    between atoms: C_31  and  O_39 
REMARK    7  A    between atoms: O_44  and  C_46 
REMARK    8  A    between atoms: C_58  and  C_59 
ROOT
HETATM    1  C   UNK N   1      35.218  10.772  13.398  0.00  0.00     0.107 C 
HETATM    2  C   UNK N   1      36.611  10.626  14.018  0.00  0.00     0.084 C 
HETATM    3  C   UNK N   1      36.590   9.983  15.410  0.00  0.00     0.276 C 
HETATM    4  N   UNK N   1      35.602  10.603  16.301  0.00  0.00     0.089 N 
HETATM    5  C   UNK N   1      34.246  10.516  15.756  0.00  0.00     0.276 C 
HETATM    6  C   UNK N   1      34.162  11.231  14.415  0.00  0.00     0.084 C 
HETATM    7  C   UNK N   1      33.082   9.751   9.383  0.00  0.00     0.064 C 
HETATM    8  C   UNK N   1      33.670   9.047  10.468  0.00  0.00     0.027 C 
HETATM    9  C   UNK N   1      33.488   7.649  10.484  0.00  0.00     0.063 C 
HETATM   10  C   UNK N   1      34.102   6.565  11.206  0.00  0.00     0.225 C 
HETATM   11  C   UNK N   1      32.655   7.040   9.585  0.00  0.00     0.096 C 
HETATM   12  C   UNK N   1      34.573   7.015   5.485  0.00  0.00     0.044 C 
HETATM   13  C   UNK N   1      31.987   7.728   8.592  0.00  0.00     0.007 C 
HETATM   14  C   UNK N   1      32.227   9.091   8.459  0.00  0.00     0.089 C 
HETATM   15  C   UNK N   1      33.373   7.992   5.238  0.00  0.00     0.144 C 
HETATM   16  C   UNK N   1      33.729   9.487   4.868  0.00  0.00     0.041 C 
HETATM   17  C   UNK N   1      32.660  11.897   4.294  0.00  0.00     0.040 C 
HETATM   18  C   UNK N   1      32.467  10.393   4.657  0.00  0.00     0.130 C 
HETATM   19  C   UNK N   1      32.920  12.995   5.357  0.00  0.00     0.131 C 
HETATM   20  C   UNK N   1      34.326  12.971   6.001  0.00  0.00     0.033 C 
HETATM   21  C   UNK N   1      34.665  13.986   7.082  0.00  0.00    -0.020 C 
HETATM   22  C   UNK N   1      35.160  15.615   9.745  0.00  0.00     0.006 C 
HETATM   23  C   UNK N   1      34.492  15.907   8.596  0.00  0.00     0.012 C 
HETATM   24  C   UNK N   1      33.897  14.956   7.603  0.00  0.00    -0.003 C 
HETATM   25  C   UNK N   1      35.263  14.244  10.320  0.00  0.00     0.252 C 
HETATM   26  C   UNK N   1      33.389  11.187   9.201  0.00  0.00     0.214 C 
HETATM   27  C   UNK N   1      34.234  11.919  10.150  0.00  0.00     0.115 C 
HETATM   28  N   UNK N   1      34.427  13.297   9.850  0.00  0.00    -0.318 N 
HETATM   29  O   UNK N   1      34.972   6.670  12.057  0.00  0.00    -0.286 OA
HETATM   30  C   UNK N   1      34.241   5.602   6.077  0.00  0.00     0.151 C 
HETATM   31  C   UNK N   1      34.120   5.561   7.581  0.00  0.00     0.029 C 
HETATM   32  C   UNK N   1      34.836   4.748   8.394  0.00  0.00     0.137 C 
HETATM   33  O   UNK N   1      34.700   4.723   9.773  0.00  0.00    -0.319 OA
HETATM   34  C   UNK N   1      33.659   5.270  10.542  0.00  0.00     0.237 C 
HETATM   35  O   UNK N   1      32.640   5.706   9.714  0.00  0.00    -0.305 OA
HETATM   36  C   UNK N   1      33.118   4.269  11.546  0.00  0.00     0.089 C 
HETATM   37  C   UNK N   1      35.810  16.744  10.475  0.00  0.00     0.054 C 
HETATM   38  C   UNK N   1      35.717   7.667   6.247  0.00  0.00     0.015 C 
HETATM   39  C   UNK N   1      33.326  12.158   2.952  0.00  0.00     0.015 C 
HETATM   40  C   UNK N   1      35.382  13.147   4.926  0.00  0.00     0.017 C 
HETATM   41  O   UNK N   1      32.928  11.787   8.258  0.00  0.00    -0.285 OA
HETATM   42  C   UNK N   1      34.696   9.570   3.695  0.00  0.00     0.015 C 
HETATM   43  O   UNK N   1      36.070  14.001  11.202  0.00  0.00    -0.268 OA
HETATM   44  C   UNK N   1      34.659  11.267  11.237  0.00  0.00     0.089 C 
HETATM   45  C   UNK N   1      34.418   9.872  11.472  0.00  0.00     0.071 C 
HETATM   46  N   UNK N   1      34.740   9.569  12.680  0.00  0.00    -0.361 N 
ATOM     47  HN  UNK N   1      34.675   8.635  13.083  1.00  0.00     0.162 HD
HETATM   48  N   UNK N   1      35.257  11.795  12.373  0.00  0.00    -0.360 N 
HETATM   49  C   UNK N   1      31.113   7.005   7.620  0.00  0.00     0.054 C 
HETATM   50  H   UNK N   1      33.819  13.630   9.151  0.00  0.00     0.169 HD
HETATM   51  H   UNK N   1      35.637  12.698  12.466  0.00  0.00     0.162 HD
ENDROOT
BRANCH   4  52
HETATM   52  C   UNK N   1      36.014  11.900  16.884  0.00  0.00     0.276 C 
BRANCH  52  53
HETATM   53  C   UNK N   1      35.076  12.502  17.945  0.00  0.00     0.006 C 
HETATM   54  C   UNK N   1      35.359  11.873  19.294  0.00  0.00     0.011 C 
HETATM   55  C   UNK N   1      35.270  14.000  18.070  0.00  0.00     0.011 C 
ENDBRANCH  52  53
ENDBRANCH   4  52
BRANCH  14  56
HETATM   56  O   UNK N   1      31.646   9.761   7.450  0.00  0.00    -0.359 OA
HETATM   57  H   UNK N   1      31.552   9.410   6.587  0.00  0.00     0.217 HD
ENDBRANCH  14  56
BRANCH  30  58
HETATM   58  O   UNK N   1      33.064   5.093   5.512  0.00  0.00    -0.386 OA
HETATM   59  C   UNK N   1      33.359   3.783   5.131  0.00  0.00     0.202 C 
ENDBRANCH  30  58
BRANCH  19  60
HETATM   60  O   UNK N   1      31.892  12.983   6.300  0.00  0.00    -0.394 OA
HETATM   61  H   UNK N   1      31.488  12.596   7.091  0.00  0.00     0.210 HD
ENDBRANCH  19  60
BRANCH  15  62
HETATM   62  O   UNK N   1      32.458   7.430   4.350  0.00  0.00    -0.315 OA
BRANCH  62  63
HETATM   63  C   UNK N   1      32.662   7.190   3.023  0.00  0.00     0.255 C 
HETATM   64  C   UNK N   1      33.856   6.409   2.594  0.00  0.00     0.126 C 
HETATM   65  O   UNK N   1      31.894   7.617   2.175  0.00  0.00    -0.266 OA
ENDBRANCH  62  63
ENDBRANCH  15  62
BRANCH  18  66
HETATM   66  O   UNK N   1      31.627   9.837   3.690  0.00  0.00    -0.395 OA
HETATM   67  H   UNK N   1      30.832  10.247   3.314  0.00  0.00     0.210 HD
ENDBRANCH  18  66
TORSDOF 8
ENDMDL
MODEL 9
REMARK VINA RESULT:      -7.0      1.699      2.921
REMARK  8 active torsions:
REMARK  status: ('A' for Active; 'I' for Inactive)
REMARK    1  A    between atoms: N_4  and  C_58 
REMARK    2  A    between atoms: C_14  and  O_50 
REMARK    3  A    between atoms: C_15  and  O_44 
REMARK    4  A    between atoms: C_18  and  O_45 
REMARK    5  A    between atoms: C_19  and  O_20 
REMARK    6  A    between atoms: C_31  and  O_39 
REMARK    7  A    between atoms: O_44  and  C_46 
REMARK    8  A    between atoms: C_58  and  C_59 
ROOT
HETATM    1  C   UNK N   1      29.285  15.170   4.231  0.00  0.00     0.107 C 
HETATM    2  C   UNK N   1      30.316  15.689   3.223  0.00  0.00     0.084 C 
HETATM    3  C   UNK N   1      31.762  15.378   3.624  0.00  0.00     0.276 C 
HETATM    4  N   UNK N   1      32.053  15.743   5.015  0.00  0.00     0.089 N 
HETATM    5  C   UNK N   1      31.176  15.043   5.956  0.00  0.00     0.276 C 
HETATM    6  C   UNK N   1      29.719  15.389   5.688  0.00  0.00     0.084 C 
HETATM    7  C   UNK N   1      25.371  12.639   4.200  0.00  0.00     0.064 C 
HETATM    8  C   UNK N   1      26.753  12.441   3.928  0.00  0.00     0.027 C 
HETATM    9  C   UNK N   1      27.166  11.112   3.707  0.00  0.00     0.063 C 
HETATM   10  C   UNK N   1      28.355  10.508   3.162  0.00  0.00     0.225 C 
HETATM   11  C   UNK N   1      26.305  10.067   3.904  0.00  0.00     0.096 C 
HETATM   12  C   UNK N   1      23.241   9.950   0.575  0.00  0.00     0.044 C 
HETATM   13  C   UNK N   1      24.987  10.238   4.278  0.00  0.00     0.007 C 
HETATM   14  C   UNK N   1      24.498  11.534   4.392  0.00  0.00     0.089 C 
HETATM   15  C   UNK N   1      22.331  10.330   1.793  0.00  0.00     0.144 C 
HETATM   16  C   UNK N   1      21.622  11.742   1.746  0.00  0.00     0.041 C 
HETATM   17  C   UNK N   1      19.994  13.403   3.114  0.00  0.00     0.040 C 
HETATM   18  C   UNK N   1      20.750  12.043   3.014  0.00  0.00     0.130 C 
HETATM   19  C   UNK N   1      20.666  14.706   3.618  0.00  0.00     0.131 C 
HETATM   20  C   UNK N   1      21.683  15.344   2.642  0.00  0.00     0.033 C 
HETATM   21  C   UNK N   1      22.421  16.606   3.061  0.00  0.00    -0.020 C 
HETATM   22  C   UNK N   1      24.422  18.797   4.149  0.00  0.00     0.006 C 
HETATM   23  C   UNK N   1      23.095  18.579   4.351  0.00  0.00     0.012 C 
HETATM   24  C   UNK N   1      22.334  17.297   4.209  0.00  0.00    -0.003 C 
HETATM   25  C   UNK N   1      25.416  17.711   3.912  0.00  0.00     0.252 C 
HETATM   26  C   UNK N   1      24.834  14.016   4.255  0.00  0.00     0.214 C 
HETATM   27  C   UNK N   1      25.704  15.187   4.101  0.00  0.00     0.115 C 
HETATM   28  N   UNK N   1      25.047  16.446   4.192  0.00  0.00    -0.318 N 
HETATM   29  O   UNK N   1      29.349  11.101   2.773  0.00  0.00    -0.286 OA
HETATM   30  C   UNK N   1      24.129   8.666   0.713  0.00  0.00     0.151 C 
HETATM   31  C   UNK N   1      25.449   8.883   1.411  0.00  0.00     0.029 C 
HETATM   32  C   UNK N   1      26.661   8.580   0.889  0.00  0.00     0.137 C 
HETATM   33  O   UNK N   1      27.859   8.782   1.555  0.00  0.00    -0.319 OA
HETATM   34  C   UNK N   1      28.047   9.037   2.924  0.00  0.00     0.237 C 
HETATM   35  O   UNK N   1      26.851   8.881   3.601  0.00  0.00    -0.305 OA
HETATM   36  C   UNK N   1      29.104   8.128   3.523  0.00  0.00     0.089 C 
HETATM   37  C   UNK N   1      24.907  20.210   4.187  0.00  0.00     0.054 C 
HETATM   38  C   UNK N   1      24.062  11.124   0.063  0.00  0.00     0.015 C 
HETATM   39  C   UNK N   1      18.915  13.623   2.065  0.00  0.00     0.015 C 
HETATM   40  C   UNK N   1      20.990  15.688   1.337  0.00  0.00     0.017 C 
HETATM   41  O   UNK N   1      23.655  14.196   4.444  0.00  0.00    -0.285 OA
HETATM   42  C   UNK N   1      20.846  11.949   0.454  0.00  0.00     0.015 C 
HETATM   43  O   UNK N   1      26.532  17.973   3.496  0.00  0.00    -0.268 OA
HETATM   44  C   UNK N   1      27.020  14.975   3.986  0.00  0.00     0.089 C 
HETATM   45  C   UNK N   1      27.611  13.670   3.906  0.00  0.00     0.071 C 
HETATM   46  N   UNK N   1      28.888  13.759   4.027  0.00  0.00    -0.361 N 
ATOM     47  HN  UNK N   1      29.534  12.970   3.988  1.00  0.00     0.162 HD
HETATM   48  N   UNK N   1      28.047  15.906   4.067  0.00  0.00    -0.360 N 
HETATM   49  C   UNK N   1      24.085   9.060   4.451  0.00  0.00     0.054 C 
HETATM   50  H   UNK N   1      24.126  16.377   4.533  0.00  0.00     0.169 HD
HETATM   51  H   UNK N   1      27.952  16.884   4.021  0.00  0.00     0.162 HD
ENDROOT
BRANCH   4  52
HETATM   52  C   UNK N   1      32.277  17.188   5.249  0.00  0.00     0.276 C 
BRANCH  52  53
HETATM   53  C   UNK N   1      33.503  17.561   6.100  0.00  0.00     0.006 C 
HETATM   54  C   UNK N   1      33.062  17.913   7.506  0.00  0.00     0.011 C 
HETATM   55  C   UNK N   1      34.489  16.413   6.185  0.00  0.00     0.011 C 
ENDBRANCH  52  53
ENDBRANCH   4  52
BRANCH  14  56
HETATM   56  O   UNK N   1      23.198  11.719   4.679  0.00  0.00    -0.359 OA
HETATM   57  H   UNK N   1      22.706  12.457   4.378  0.00  0.00     0.217 HD
ENDBRANCH  14  56
BRANCH  30  58
HETATM   58  O   UNK N   1      23.428   7.647   1.372  0.00  0.00    -0.386 OA
HETATM   59  C   UNK N   1      23.592   6.502   0.592  0.00  0.00     0.202 C 
ENDBRANCH  30  58
BRANCH  19  60
HETATM   60  O   UNK N   1      21.195  14.495   4.891  0.00  0.00    -0.394 OA
HETATM   61  H   UNK N   1      21.955  14.292   5.458  0.00  0.00     0.210 HD
ENDBRANCH  19  60
BRANCH  15  62
HETATM   62  O   UNK N   1      21.440   9.299   2.080  0.00  0.00    -0.315 OA
BRANCH  62  63
HETATM   63  C   UNK N   1      20.389   8.900   1.306  0.00  0.00     0.255 C 
HETATM   64  C   UNK N   1      20.617   8.582  -0.132  0.00  0.00     0.126 C 
HETATM   65  O   UNK N   1      19.261   8.813   1.763  0.00  0.00    -0.266 OA
ENDBRANCH  62  63
ENDBRANCH  15  62
BRANCH  18  66
HETATM   66  O   UNK N   1      19.808  11.029   3.205  0.00  0.00    -0.395 OA
HETATM   67  H   UNK N   1      19.337  10.829   4.030  0.00  0.00     0.210 HD
ENDBRANCH  18  66
TORSDOF 8
ENDMDL
