MODEL 1
REMARK VINA RESULT:      -6.2      0.000      0.000
REMARK  6 active torsions:
REMARK  status: ('A' for Active; 'I' for Inactive)
REMARK    1  A    between atoms: C_19  and  O_1 
REMARK    2  A    between atoms: C_2  and  O_1 
REMARK    3  A    between atoms: C_3  and  C_2 
REMARK    4  A    between atoms: C_3  and  C_7 
REMARK    5  A    between atoms: C_3  and  C_5 
REMARK    6  A    between atoms: O_6  and  C_5 
ROOT
HETATM    1  C   UNK N   1      27.148  24.705  -3.402  0.00  0.00     0.270 C 
HETATM    2  O   UNK N   1      26.689  23.952  -2.550  0.00  0.00    -0.264 OA
ENDROOT
BRANCH   1   3
HETATM    3  O   UNK N   1      28.474  24.662  -3.727  0.00  0.00    -0.315 OA
BRANCH   3   4
HETATM    4  C   UNK N   1      29.204  23.498  -3.923  0.00  0.00     0.136 C 
HETATM    5  C   UNK N   1      30.330  23.340  -2.871  0.00  0.00     0.068 C 
HETATM    6  C   UNK N   1      31.495  22.447  -3.352  0.00  0.00     0.225 C 
HETATM    7  C   UNK N   1      30.969  21.043  -3.605  0.00  0.00     0.038 C 
HETATM    8  N   UNK N   1      31.980  22.868  -4.667  0.00  0.00     0.093 N 
HETATM    9  C   UNK N   1      30.536  21.065  -5.072  0.00  0.00     0.038 C 
HETATM   10  C   UNK N   1      30.894  22.467  -5.556  0.00  0.00     0.225 C 
HETATM   11  C   UNK N   1      29.684  23.412  -5.384  0.00  0.00     0.068 C 
HETATM   12  C   UNK N   1      32.321  24.289  -4.755  0.00  0.00     0.310 C 
ENDBRANCH   3   4
ENDBRANCH   1   3
BRANCH   1  13
HETATM   13  C   UNK N   1      26.207  25.661  -4.090  0.00  0.00     0.142 C 
BRANCH  13  14
HETATM   14  C   UNK N   1      26.068  25.410  -5.580  0.00  0.00    -0.043 A 
HETATM   15  C   UNK N   1      26.029  26.471  -6.505  0.00  0.00     0.008 A 
HETATM   16  C   UNK N   1      25.897  26.215  -7.872  0.00  0.00     0.001 A 
HETATM   17  C   UNK N   1      25.803  24.899  -8.331  0.00  0.00     0.000 A 
HETATM   18  C   UNK N   1      25.845  23.839  -7.423  0.00  0.00     0.001 A 
HETATM   19  C   UNK N   1      25.977  24.093  -6.054  0.00  0.00     0.008 A 
ENDBRANCH  13  14
BRANCH  13  20
HETATM   20  C   UNK N   1      26.572  27.113  -3.797  0.00  0.00     0.183 C 
BRANCH  20  21
HETATM   21  O   UNK N   1      25.677  27.647  -2.869  0.00  0.00    -0.400 OA
HETATM   22  H   UNK N   1      24.763  27.340  -2.766  0.00  0.00     0.209 HD
ENDBRANCH  20  21
ENDBRANCH  13  20
ENDBRANCH   1  13
TORSDOF 6
ENDMDL
MODEL 2
REMARK VINA RESULT:      -6.2      2.472      5.731
REMARK  6 active torsions:
REMARK  status: ('A' for Active; 'I' for Inactive)
REMARK    1  A    between atoms: C_19  and  O_1 
REMARK    2  A    between atoms: C_2  and  O_1 
REMARK    3  A    between atoms: C_3  and  C_2 
REMARK    4  A    between atoms: C_3  and  C_7 
REMARK    5  A    between atoms: C_3  and  C_5 
REMARK    6  A    between atoms: O_6  and  C_5 
ROOT
HETATM    1  C   UNK N   1      28.918  24.117  -3.538  0.00  0.00     0.270 C 
HETATM    2  O   UNK N   1      28.013  23.662  -2.847  0.00  0.00    -0.264 OA
ENDROOT
BRANCH   1   3
HETATM    3  O   UNK N   1      28.881  25.414  -3.965  0.00  0.00    -0.315 OA
BRANCH   3   4
HETATM    4  C   UNK N   1      27.722  26.128  -4.232  0.00  0.00     0.136 C 
HETATM    5  C   UNK N   1      27.226  25.901  -5.682  0.00  0.00     0.068 C 
HETATM    6  C   UNK N   1      26.347  27.054  -6.215  0.00  0.00     0.225 C 
HETATM    7  C   UNK N   1      25.092  27.152  -5.363  0.00  0.00     0.038 C 
HETATM    8  N   UNK N   1      26.994  28.351  -6.016  0.00  0.00     0.093 N 
HETATM    9  C   UNK N   1      25.476  28.121  -4.243  0.00  0.00     0.038 C 
HETATM   10  C   UNK N   1      26.907  28.538  -4.571  0.00  0.00     0.225 C 
HETATM   11  C   UNK N   1      27.908  27.608  -3.850  0.00  0.00     0.068 C 
HETATM   12  C   UNK N   1      28.358  28.430  -6.540  0.00  0.00     0.310 C 
ENDBRANCH   3   4
ENDBRANCH   1   3
BRANCH   1  13
HETATM   13  C   UNK N   1      30.074  23.214  -3.885  0.00  0.00     0.142 C 
BRANCH  13  14
HETATM   14  C   UNK N   1      29.808  22.323  -5.085  0.00  0.00    -0.043 A 
HETATM   15  C   UNK N   1      28.855  22.668  -6.062  0.00  0.00     0.008 A 
HETATM   16  C   UNK N   1      28.626  21.829  -7.156  0.00  0.00     0.001 A 
HETATM   17  C   UNK N   1      29.346  20.641  -7.288  0.00  0.00     0.000 A 
HETATM   18  C   UNK N   1      30.297  20.290  -6.327  0.00  0.00     0.001 A 
HETATM   19  C   UNK N   1      30.528  21.128  -5.231  0.00  0.00     0.008 A 
ENDBRANCH  13  14
BRANCH  13  20
HETATM   20  C   UNK N   1      30.538  22.407  -2.678  0.00  0.00     0.183 C 
BRANCH  20  21
HETATM   21  O   UNK N   1      30.442  23.186  -1.524  0.00  0.00    -0.400 OA
HETATM   22  H   UNK N   1      29.601  23.422  -1.103  0.00  0.00     0.209 HD
ENDBRANCH  20  21
ENDBRANCH  13  20
ENDBRANCH   1  13
TORSDOF 6
ENDMDL
MODEL 3
REMARK VINA RESULT:      -6.1     11.629     13.678
REMARK  6 active torsions:
REMARK  status: ('A' for Active; 'I' for Inactive)
REMARK    1  A    between atoms: C_19  and  O_1 
REMARK    2  A    between atoms: C_2  and  O_1 
REMARK    3  A    between atoms: C_3  and  C_2 
REMARK    4  A    between atoms: C_3  and  C_7 
REMARK    5  A    between atoms: C_3  and  C_5 
REMARK    6  A    between atoms: O_6  and  C_5 
ROOT
HETATM    1  C   UNK N   1      29.369  16.966   6.677  0.00  0.00     0.270 C 
HETATM    2  O   UNK N   1      29.121  15.890   6.144  0.00  0.00    -0.264 OA
ENDROOT
BRANCH   1   3
HETATM    3  O   UNK N   1      30.657  17.408   6.786  0.00  0.00    -0.315 OA
BRANCH   3   4
HETATM    4  C   UNK N   1      31.767  16.587   6.927  0.00  0.00     0.136 C 
HETATM    5  C   UNK N   1      32.170  16.414   8.411  0.00  0.00     0.068 C 
HETATM    6  C   UNK N   1      33.657  16.039   8.602  0.00  0.00     0.225 C 
HETATM    7  C   UNK N   1      33.913  14.691   7.946  0.00  0.00     0.038 C 
HETATM    8  N   UNK N   1      34.533  16.947   7.861  0.00  0.00     0.093 N 
HETATM    9  C   UNK N   1      34.308  15.043   6.510  0.00  0.00     0.038 C 
HETATM   10  C   UNK N   1      34.292  16.569   6.472  0.00  0.00     0.225 C 
HETATM   11  C   UNK N   1      32.907  17.073   6.012  0.00  0.00     0.068 C 
HETATM   12  C   UNK N   1      34.298  18.366   8.136  0.00  0.00     0.310 C 
ENDBRANCH   3   4
ENDBRANCH   1   3
BRANCH   1  13
HETATM   13  C   UNK N   1      28.216  17.790   7.191  0.00  0.00     0.142 C 
BRANCH  13  14
HETATM   14  C   UNK N   1      27.754  18.860   6.220  0.00  0.00    -0.043 A 
HETATM   15  C   UNK N   1      27.436  20.161   6.654  0.00  0.00     0.008 A 
HETATM   16  C   UNK N   1      27.009  21.129   5.741  0.00  0.00     0.001 A 
HETATM   17  C   UNK N   1      26.897  20.811   4.387  0.00  0.00     0.000 A 
HETATM   18  C   UNK N   1      27.214  19.525   3.943  0.00  0.00     0.001 A 
HETATM   19  C   UNK N   1      27.641  18.555   4.856  0.00  0.00     0.008 A 
ENDBRANCH  13  14
BRANCH  13  20
HETATM   20  C   UNK N   1      28.514  18.373   8.568  0.00  0.00     0.183 C 
BRANCH  20  21
HETATM   21  O   UNK N   1      27.465  18.082   9.442  0.00  0.00    -0.400 OA
HETATM   22  H   UNK N   1      27.358  18.501  10.310  0.00  0.00     0.209 HD
ENDBRANCH  20  21
ENDBRANCH  13  20
ENDBRANCH   1  13
TORSDOF 6
ENDMDL
MODEL 4
REMARK VINA RESULT:      -6.0     11.598     13.394
REMARK  6 active torsions:
REMARK  status: ('A' for Active; 'I' for Inactive)
REMARK    1  A    between atoms: C_19  and  O_1 
REMARK    2  A    between atoms: C_2  and  O_1 
REMARK    3  A    between atoms: C_3  and  C_2 
REMARK    4  A    between atoms: C_3  and  C_7 
REMARK    5  A    between atoms: C_3  and  C_5 
REMARK    6  A    between atoms: O_6  and  C_5 
ROOT
HETATM    1  C   UNK N   1      30.361  17.585   8.096  0.00  0.00     0.270 C 
HETATM    2  O   UNK N   1      30.917  18.445   8.770  0.00  0.00    -0.264 OA
ENDROOT
BRANCH   1   3
HETATM    3  O   UNK N   1      31.085  16.593   7.499  0.00  0.00    -0.315 OA
BRANCH   3   4
HETATM    4  C   UNK N   1      31.409  16.550   6.150  0.00  0.00     0.136 C 
HETATM    5  C   UNK N   1      31.704  15.106   5.675  0.00  0.00     0.068 C 
HETATM    6  C   UNK N   1      32.605  15.048   4.421  0.00  0.00     0.225 C 
HETATM    7  C   UNK N   1      31.885  15.722   3.264  0.00  0.00     0.038 C 
HETATM    8  N   UNK N   1      33.807  15.864   4.592  0.00  0.00     0.093 N 
HETATM    9  C   UNK N   1      32.314  17.188   3.359  0.00  0.00     0.038 C 
HETATM   10  C   UNK N   1      33.285  17.226   4.536  0.00  0.00     0.225 C 
HETATM   11  C   UNK N   1      32.526  17.562   5.838  0.00  0.00     0.068 C 
HETATM   12  C   UNK N   1      34.564  15.571   5.810  0.00  0.00     0.310 C 
ENDBRANCH   3   4
ENDBRANCH   1   3
BRANCH   1  13
HETATM   13  C   UNK N   1      28.861  17.645   7.960  0.00  0.00     0.142 C 
BRANCH  13  14
HETATM   14  C   UNK N   1      28.387  18.595   6.876  0.00  0.00    -0.043 A 
HETATM   15  C   UNK N   1      28.507  18.273   5.511  0.00  0.00     0.008 A 
HETATM   16  C   UNK N   1      28.066  19.165   4.530  0.00  0.00     0.001 A 
HETATM   17  C   UNK N   1      27.499  20.386   4.900  0.00  0.00     0.000 A 
HETATM   18  C   UNK N   1      27.371  20.715   6.252  0.00  0.00     0.001 A 
HETATM   19  C   UNK N   1      27.812  19.823   7.235  0.00  0.00     0.008 A 
ENDBRANCH  13  14
BRANCH  13  20
HETATM   20  C   UNK N   1      28.188  17.937   9.296  0.00  0.00     0.183 C 
BRANCH  20  21
HETATM   21  O   UNK N   1      27.632  16.766   9.812  0.00  0.00    -0.400 OA
HETATM   22  H   UNK N   1      28.155  16.050  10.205  0.00  0.00     0.209 HD
ENDBRANCH  20  21
ENDBRANCH  13  20
ENDBRANCH   1  13
TORSDOF 6
ENDMDL
MODEL 5
REMARK VINA RESULT:      -6.0     11.222     13.487
REMARK  6 active torsions:
REMARK  status: ('A' for Active; 'I' for Inactive)
REMARK    1  A    between atoms: C_19  and  O_1 
REMARK    2  A    between atoms: C_2  and  O_1 
REMARK    3  A    between atoms: C_3  and  C_2 
REMARK    4  A    between atoms: C_3  and  C_7 
REMARK    5  A    between atoms: C_3  and  C_5 
REMARK    6  A    between atoms: O_6  and  C_5 
ROOT
HETATM    1  C   UNK N   1      28.814  16.647   6.146  0.00  0.00     0.270 C 
HETATM    2  O   UNK N   1      27.948  15.781   6.079  0.00  0.00    -0.264 OA
ENDROOT
BRANCH   1   3
HETATM    3  O   UNK N   1      29.669  16.695   7.210  0.00  0.00    -0.315 OA
BRANCH   3   4
HETATM    4  C   UNK N   1      31.027  16.970   7.123  0.00  0.00     0.136 C 
HETATM    5  C   UNK N   1      31.825  15.762   6.573  0.00  0.00     0.068 C 
HETATM    6  C   UNK N   1      33.312  15.771   6.991  0.00  0.00     0.225 C 
HETATM    7  C   UNK N   1      33.981  17.005   6.409  0.00  0.00     0.038 C 
HETATM    8  N   UNK N   1      33.457  15.958   8.436  0.00  0.00     0.093 N 
HETATM    9  C   UNK N   1      33.794  18.076   7.486  0.00  0.00     0.038 C 
HETATM   10  C   UNK N   1      33.074  17.354   8.622  0.00  0.00     0.225 C 
HETATM   11  C   UNK N   1      31.546  17.515   8.466  0.00  0.00     0.068 C 
HETATM   12  C   UNK N   1      32.677  15.019   9.245  0.00  0.00     0.310 C 
ENDBRANCH   3   4
ENDBRANCH   1   3
BRANCH   1  13
HETATM   13  C   UNK N   1      28.917  17.640   5.017  0.00  0.00     0.142 C 
BRANCH  13  14
HETATM   14  C   UNK N   1      28.066  18.880   5.220  0.00  0.00    -0.043 A 
HETATM   15  C   UNK N   1      27.431  19.522   4.140  0.00  0.00     0.008 A 
HETATM   16  C   UNK N   1      26.655  20.665   4.351  0.00  0.00     0.001 A 
HETATM   17  C   UNK N   1      26.503  21.178   5.640  0.00  0.00     0.000 A 
HETATM   18  C   UNK N   1      27.125  20.547   6.720  0.00  0.00     0.001 A 
HETATM   19  C   UNK N   1      27.903  19.404   6.510  0.00  0.00     0.008 A 
ENDBRANCH  13  14
BRANCH  13  20
HETATM   20  C   UNK N   1      28.642  16.986   3.667  0.00  0.00     0.183 C 
BRANCH  20  21
HETATM   21  O   UNK N   1      29.798  17.010   2.886  0.00  0.00    -0.400 OA
HETATM   22  H   UNK N   1      29.814  17.293   1.959  0.00  0.00     0.209 HD
ENDBRANCH  20  21
ENDBRANCH  13  20
ENDBRANCH   1  13
TORSDOF 6
ENDMDL
MODEL 6
REMARK VINA RESULT:      -6.0     15.112     17.635
REMARK  6 active torsions:
REMARK  status: ('A' for Active; 'I' for Inactive)
REMARK    1  A    between atoms: C_19  and  O_1 
REMARK    2  A    between atoms: C_2  and  O_1 
REMARK    3  A    between atoms: C_3  and  C_2 
REMARK    4  A    between atoms: C_3  and  C_7 
REMARK    5  A    between atoms: C_3  and  C_5 
REMARK    6  A    between atoms: O_6  and  C_5 
ROOT
HETATM    1  C   UNK N   1      33.846  16.055   8.668  0.00  0.00     0.270 C 
HETATM    2  O   UNK N   1      34.735  15.698   7.902  0.00  0.00    -0.264 OA
ENDROOT
BRANCH   1   3
HETATM    3  O   UNK N   1      33.333  15.187   9.589  0.00  0.00    -0.315 OA
BRANCH   3   4
HETATM    4  C   UNK N   1      34.040  14.660  10.662  0.00  0.00     0.136 C 
HETATM    5  C   UNK N   1      35.074  15.668  11.220  0.00  0.00     0.068 C 
HETATM    6  C   UNK N   1      36.245  14.992  11.968  0.00  0.00     0.225 C 
HETATM    7  C   UNK N   1      35.696  14.253  13.178  0.00  0.00     0.038 C 
HETATM    8  N   UNK N   1      36.844  13.926  11.164  0.00  0.00     0.093 N 
HETATM    9  C   UNK N   1      35.380  12.853  12.649  0.00  0.00     0.038 C 
HETATM   10  C   UNK N   1      35.819  12.888  11.188  0.00  0.00     0.225 C 
HETATM   11  C   UNK N   1      34.629  13.288  10.288  0.00  0.00     0.068 C 
HETATM   12  C   UNK N   1      37.236  14.338   9.815  0.00  0.00     0.310 C 
ENDBRANCH   3   4
ENDBRANCH   1   3
BRANCH   1  13
HETATM   13  C   UNK N   1      33.352  17.475   8.575  0.00  0.00     0.142 C 
BRANCH  13  14
HETATM   14  C   UNK N   1      31.898  17.586   8.152  0.00  0.00    -0.043 A 
HETATM   15  C   UNK N   1      30.955  18.280   8.934  0.00  0.00     0.008 A 
HETATM   16  C   UNK N   1      29.621  18.365   8.526  0.00  0.00     0.001 A 
HETATM   17  C   UNK N   1      29.215  17.762   7.334  0.00  0.00     0.000 A 
HETATM   18  C   UNK N   1      30.143  17.075   6.547  0.00  0.00     0.001 A 
HETATM   19  C   UNK N   1      31.478  16.988   6.955  0.00  0.00     0.008 A 
ENDBRANCH  13  14
BRANCH  13  20
HETATM   20  C   UNK N   1      34.258  18.329   7.695  0.00  0.00     0.183 C 
BRANCH  20  21
HETATM   21  O   UNK N   1      35.081  19.124   8.494  0.00  0.00    -0.400 OA
HETATM   22  H   UNK N   1      34.912  20.062   8.673  0.00  0.00     0.209 HD
ENDBRANCH  20  21
ENDBRANCH  13  20
ENDBRANCH   1  13
TORSDOF 6
ENDMDL
MODEL 7
REMARK VINA RESULT:      -5.9      2.917      5.785
REMARK  6 active torsions:
REMARK  status: ('A' for Active; 'I' for Inactive)
REMARK    1  A    between atoms: C_19  and  O_1 
REMARK    2  A    between atoms: C_2  and  O_1 
REMARK    3  A    between atoms: C_3  and  C_2 
REMARK    4  A    between atoms: C_3  and  C_7 
REMARK    5  A    between atoms: C_3  and  C_5 
REMARK    6  A    between atoms: O_6  and  C_5 
ROOT
HETATM    1  C   UNK N   1      26.125  24.236  -7.252  0.00  0.00     0.270 C 
HETATM    2  O   UNK N   1      26.955  24.660  -8.049  0.00  0.00    -0.264 OA
ENDROOT
BRANCH   1   3
HETATM    3  O   UNK N   1      25.191  25.072  -6.709  0.00  0.00    -0.315 OA
BRANCH   3   4
HETATM    4  C   UNK N   1      25.439  25.983  -5.691  0.00  0.00     0.136 C 
HETATM    5  C   UNK N   1      26.047  27.300  -6.231  0.00  0.00     0.068 C 
HETATM    6  C   UNK N   1      26.863  28.076  -5.173  0.00  0.00     0.225 C 
HETATM    7  C   UNK N   1      25.938  28.485  -4.039  0.00  0.00     0.038 C 
HETATM    8  N   UNK N   1      27.841  27.208  -4.515  0.00  0.00     0.093 N 
HETATM    9  C   UNK N   1      26.005  27.313  -3.059  0.00  0.00     0.038 C 
HETATM   10  C   UNK N   1      27.003  26.344  -3.689  0.00  0.00     0.225 C 
HETATM   11  C   UNK N   1      26.259  25.317  -4.571  0.00  0.00     0.068 C 
HETATM   12  C   UNK N   1      28.713  26.478  -5.436  0.00  0.00     0.310 C 
ENDBRANCH   3   4
ENDBRANCH   1   3
BRANCH   1  13
HETATM   13  C   UNK N   1      26.156  22.770  -6.902  0.00  0.00     0.142 C 
BRANCH  13  14
HETATM   14  C   UNK N   1      27.541  22.156  -6.980  0.00  0.00    -0.043 A 
HETATM   15  C   UNK N   1      28.561  22.524  -6.083  0.00  0.00     0.008 A 
HETATM   16  C   UNK N   1      29.830  21.947  -6.176  0.00  0.00     0.001 A 
HETATM   17  C   UNK N   1      30.095  20.996  -7.164  0.00  0.00     0.000 A 
HETATM   18  C   UNK N   1      29.089  20.620  -8.057  0.00  0.00     0.001 A 
HETATM   19  C   UNK N   1      27.818  21.197  -7.965  0.00  0.00     0.008 A 
ENDBRANCH  13  14
BRANCH  13  20
HETATM   20  C   UNK N   1      25.143  21.977  -7.721  0.00  0.00     0.183 C 
BRANCH  20  21
HETATM   21  O   UNK N   1      24.437  22.838  -8.562  0.00  0.00    -0.400 OA
HETATM   22  H   UNK N   1      23.615  23.285  -8.307  0.00  0.00     0.209 HD
ENDBRANCH  20  21
ENDBRANCH  13  20
ENDBRANCH   1  13
TORSDOF 6
ENDMDL
MODEL 8
REMARK VINA RESULT:      -5.9     20.485     23.757
REMARK  6 active torsions:
REMARK  status: ('A' for Active; 'I' for Inactive)
REMARK    1  A    between atoms: C_19  and  O_1 
REMARK    2  A    between atoms: C_2  and  O_1 
REMARK    3  A    between atoms: C_3  and  C_2 
REMARK    4  A    between atoms: C_3  and  C_7 
REMARK    5  A    between atoms: C_3  and  C_5 
REMARK    6  A    between atoms: O_6  and  C_5 
ROOT
HETATM    1  C   UNK N   1      35.810  13.192  14.690  0.00  0.00     0.270 C 
HETATM    2  O   UNK N   1      36.932  13.476  15.095  0.00  0.00    -0.264 OA
ENDROOT
BRANCH   1   3
HETATM    3  O   UNK N   1      35.284  13.825  13.599  0.00  0.00    -0.315 OA
BRANCH   3   4
HETATM    4  C   UNK N   1      35.831  13.794  12.324  0.00  0.00     0.136 C 
HETATM    5  C   UNK N   1      36.020  15.216  11.743  0.00  0.00     0.068 C 
HETATM    6  C   UNK N   1      36.051  15.247  10.199  0.00  0.00     0.225 C 
HETATM    7  C   UNK N   1      37.247  14.443   9.714  0.00  0.00     0.038 C 
HETATM    8  N   UNK N   1      34.909  14.531   9.630  0.00  0.00     0.093 N 
HETATM    9  C   UNK N   1      36.703  13.022   9.557  0.00  0.00     0.038 C 
HETATM   10  C   UNK N   1      35.224  13.136   9.920  0.00  0.00     0.225 C 
HETATM   11  C   UNK N   1      35.024  12.842  11.422  0.00  0.00     0.068 C 
HETATM   12  C   UNK N   1      33.610  14.962  10.149  0.00  0.00     0.310 C 
ENDBRANCH   3   4
ENDBRANCH   1   3
BRANCH   1  13
HETATM   13  C   UNK N   1      35.039  12.119  15.415  0.00  0.00     0.142 C 
BRANCH  13  14
HETATM   14  C   UNK N   1      35.165  12.196  16.925  0.00  0.00    -0.043 A 
HETATM   15  C   UNK N   1      35.454  11.056  17.699  0.00  0.00     0.008 A 
HETATM   16  C   UNK N   1      35.561  11.151  19.089  0.00  0.00     0.001 A 
HETATM   17  C   UNK N   1      35.385  12.384  19.721  0.00  0.00     0.000 A 
HETATM   18  C   UNK N   1      35.103  13.523  18.963  0.00  0.00     0.001 A 
HETATM   19  C   UNK N   1      34.994  13.429  17.572  0.00  0.00     0.008 A 
ENDBRANCH  13  14
BRANCH  13  20
HETATM   20  C   UNK N   1      35.387  10.729  14.893  0.00  0.00     0.183 C 
BRANCH  20  21
HETATM   21  O   UNK N   1      36.415  10.820  13.954  0.00  0.00    -0.400 OA
HETATM   22  H   UNK N   1      36.839  11.654  13.701  0.00  0.00     0.209 HD
ENDBRANCH  20  21
ENDBRANCH  13  20
ENDBRANCH   1  13
TORSDOF 6
ENDMDL
MODEL 9
REMARK VINA RESULT:      -5.9      2.174      5.481
REMARK  6 active torsions:
REMARK  status: ('A' for Active; 'I' for Inactive)
REMARK    1  A    between atoms: C_19  and  O_1 
REMARK    2  A    between atoms: C_2  and  O_1 
REMARK    3  A    between atoms: C_3  and  C_2 
REMARK    4  A    between atoms: C_3  and  C_7 
REMARK    5  A    between atoms: C_3  and  C_5 
REMARK    6  A    between atoms: O_6  and  C_5 
ROOT
HETATM    1  C   UNK N   1      30.127  24.577  -3.459  0.00  0.00     0.270 C 
HETATM    2  O   UNK N   1      30.587  25.681  -3.191  0.00  0.00    -0.264 OA
ENDROOT
BRANCH   1   3
HETATM    3  O   UNK N   1      28.776  24.377  -3.498  0.00  0.00    -0.315 OA
BRANCH   3   4
HETATM    4  C   UNK N   1      27.885  25.130  -4.250  0.00  0.00     0.136 C 
HETATM    5  C   UNK N   1      26.426  24.646  -4.068  0.00  0.00     0.068 C 
HETATM    6  C   UNK N   1      25.508  25.010  -5.256  0.00  0.00     0.225 C 
HETATM    7  C   UNK N   1      25.427  26.524  -5.370  0.00  0.00     0.038 C 
HETATM    8  N   UNK N   1      26.103  24.606  -6.530  0.00  0.00     0.093 N 
HETATM    9  C   UNK N   1      26.583  26.891  -6.304  0.00  0.00     0.038 C 
HETATM   10  C   UNK N   1      27.204  25.550  -6.688  0.00  0.00     0.225 C 
HETATM   11  C   UNK N   1      28.352  25.201  -5.715  0.00  0.00     0.068 C 
HETATM   12  C   UNK N   1      26.516  23.203  -6.583  0.00  0.00     0.310 C 
ENDBRANCH   3   4
ENDBRANCH   1   3
BRANCH   1  13
HETATM   13  C   UNK N   1      31.090  23.457  -3.760  0.00  0.00     0.142 C 
BRANCH  13  14
HETATM   14  C   UNK N   1      30.837  22.780  -5.094  0.00  0.00    -0.043 A 
HETATM   15  C   UNK N   1      31.393  23.276  -6.289  0.00  0.00     0.008 A 
HETATM   16  C   UNK N   1      31.144  22.637  -7.506  0.00  0.00     0.001 A 
HETATM   17  C   UNK N   1      30.339  21.497  -7.545  0.00  0.00     0.000 A 
HETATM   18  C   UNK N   1      29.785  20.993  -6.366  0.00  0.00     0.001 A 
HETATM   19  C   UNK N   1      30.034  21.632  -5.146  0.00  0.00     0.008 A 
ENDBRANCH  13  14
BRANCH  13  20
HETATM   20  C   UNK N   1      31.148  22.446  -2.620  0.00  0.00     0.183 C 
BRANCH  20  21
HETATM   21  O   UNK N   1      30.537  22.979  -1.484  0.00  0.00    -0.400 OA
HETATM   22  H   UNK N   1      29.837  22.525  -0.989  0.00  0.00     0.209 HD
ENDBRANCH  20  21
ENDBRANCH  13  20
ENDBRANCH   1  13
TORSDOF 6
ENDMDL
