REMARK  3 active torsions:
REMARK  status: ('A' for Active; 'I' for Inactive)
REMARK    1  A    between atoms: C_9  and  C_11 
REMARK    2  A    between atoms: C_10  and  O_21 
REMARK       I    between atoms: C_11  and  N_12 
REMARK    3  A    between atoms: N_12  and  C_13 
ROOT
HETATM    1  C   UNK N   1      -4.630   0.643   0.048  0.00  0.00     0.023 A 
HETATM    2  C   UNK N   1      -5.734   1.513   0.100  0.00  0.00     0.016 A 
HETATM    3  C   UNK N   1      -7.040   1.016   0.151  0.00  0.00     0.001 A 
HETATM    4  C   UNK N   1      -7.261  -0.361   0.156  0.00  0.00     0.002 A 
HETATM    5  C   UNK N   1      -6.178  -1.238   0.094  0.00  0.00     0.026 A 
HETATM    6  C   UNK N   1      -4.875  -0.734   0.039  0.00  0.00     0.093 A 
HETATM    7  S   UNK N   1      -3.518  -1.820  -0.105  0.00  0.00     0.266 S 
HETATM    8  N   UNK N   1      -2.041  -0.915   0.051  0.00  0.00    -0.268 N 
HETATM    9  C   UNK N   1      -2.055   0.534   0.019  0.00  0.00     0.146 C 
HETATM   10  C   UNK N   1      -3.251   1.244   0.006  0.00  0.00     0.110 C 
HETATM   11  C   UNK N   1      -0.817  -1.677   0.126  0.00  0.00     0.170 C 
HETATM   12  O   UNK N   1      -3.429  -2.969   0.913  0.00  0.00    -0.200 OA
HETATM   13  O   UNK N   1      -3.411  -2.491  -1.481  0.00  0.00    -0.200 OA
ENDROOT
BRANCH   9  14
HETATM   14  C   UNK N   1      -0.732   1.293   0.007  0.00  0.00     0.277 C 
HETATM   15  N   UNK N   1      -0.710   2.655  -0.010  0.00  0.00    -0.308 N 
HETATM   16  H   UNK N   1      -1.584   3.108  -0.019  0.00  0.00     0.170 HD
HETATM   17  O   UNK N   1       0.323   0.676   0.014  0.00  0.00    -0.266 OA
BRANCH  15  18
HETATM   18  C   UNK N   1       0.440   3.498  -0.016  0.00  0.00     0.107 A 
HETATM   19  N   UNK N   1       0.263   4.848  -0.024  0.00  0.00    -0.352 N 
HETATM   20  C   UNK N   1       1.313   5.713  -0.024  0.00  0.00     0.089 A 
ATOM     21  HN  UNK N   1      -0.686   5.222  -0.031  1.00  0.00     0.166 HD
HETATM   22  C   UNK N   1       2.621   5.226  -0.016  0.00  0.00     0.017 A 
HETATM   23  C   UNK N   1       2.835   3.849  -0.008  0.00  0.00     0.005 A 
HETATM   24  C   UNK N   1       1.745   2.978  -0.008  0.00  0.00     0.048 A 
ENDBRANCH  15  18
ENDBRANCH   9  14
BRANCH  10  25
HETATM   25  O   UNK N   1      -3.213   2.593  -0.031  0.00  0.00    -0.357 OA
HETATM   26  H   UNK N   1      -2.389   3.038  -0.056  0.00  0.00     0.217 HD
ENDBRANCH  10  25
TORSDOF 3
