MODEL 1
REMARK VINA RESULT:      -6.5      0.000      0.000
REMARK  17 active torsions:
REMARK  status: ('A' for Active; 'I' for Inactive)
REMARK    1  A    between atoms: C_3  and  O_18 
REMARK    2  A    between atoms: C_9  and  C_19 
REMARK    3  A    between atoms: C_15  and  O_40 
REMARK    4  A    between atoms: C_19  and  C_20 
REMARK    5  A    between atoms: C_20  and  C_21 
REMARK    6  A    between atoms: C_21  and  C_22 
REMARK    7  A    between atoms: C_22  and  C_23 
REMARK    8  A    between atoms: C_23  and  C_24 
REMARK    9  A    between atoms: C_24  and  C_25 
REMARK   10  A    between atoms: C_25  and  C_26 
REMARK   11  A    between atoms: C_26  and  C_27 
REMARK   12  A    between atoms: C_27  and  S_28 
REMARK   13  A    between atoms: S_28  and  C_30 
REMARK   14  A    between atoms: C_30  and  C_31 
REMARK   15  A    between atoms: C_31  and  C_32 
REMARK   16  A    between atoms: C_32  and  C_33 
REMARK   17  A    between atoms: C_33  and  C_34 
ROOT
HETATM    1  C   UNK N   1      25.480  23.084  -6.323  0.00  0.00     0.011 A 
HETATM    2  C   UNK N   1      25.283  22.021  -7.208  0.00  0.00     0.037 A 
HETATM    3  C   UNK N   1      25.335  22.240  -8.584  0.00  0.00     0.066 A 
HETATM    4  C   UNK N   1      25.564  23.526  -9.079  0.00  0.00     0.044 A 
HETATM    5  C   UNK N   1      25.764  24.596  -8.200  0.00  0.00    -0.048 A 
HETATM    6  C   UNK N   1      25.737  24.377  -6.805  0.00  0.00    -0.047 A 
HETATM    7  C   UNK N   1      25.978  25.498  -5.813  0.00  0.00     0.024 C 
HETATM    8  C   UNK N   1      25.943  25.969  -8.766  0.00  0.00     0.044 C 
HETATM    9  C   UNK N   1      26.863  26.824  -7.916  0.00  0.00    -0.005 C 
HETATM   10  C   UNK N   1      26.350  26.877  -6.459  0.00  0.00     0.003 C 
HETATM   11  C   UNK N   1      27.154  26.116  -3.607  0.00  0.00     0.013 C 
HETATM   12  C   UNK N   1      27.021  25.081  -4.754  0.00  0.00     0.010 C 
HETATM   13  C   UNK N   1      27.262  27.716  -5.530  0.00  0.00     0.001 C 
HETATM   14  C   UNK N   1      26.888  27.561  -4.068  0.00  0.00    -0.014 C 
HETATM   15  C   UNK N   1      27.826  28.588  -3.454  0.00  0.00     0.126 C 
HETATM   16  C   UNK N   1      27.288  29.219  -5.753  0.00  0.00     0.008 C 
HETATM   17  C   UNK N   1      27.745  29.789  -4.399  0.00  0.00     0.033 C 
HETATM   18  C   UNK N   1      25.421  27.939  -3.810  0.00  0.00     0.018 C 
ENDROOT
BRANCH   9  19
HETATM   19  C   UNK N   1      28.318  26.398  -8.107  0.00  0.00     0.005 C 
BRANCH  19  20
HETATM   20  C   UNK N   1      29.003  27.315  -9.112  0.00  0.00     0.000 C 
BRANCH  20  21
HETATM   21  C   UNK N   1      29.599  28.531  -8.416  0.00  0.00     0.000 C 
BRANCH  21  22
HETATM   22  C   UNK N   1      30.900  28.171  -7.714  0.00  0.00     0.000 C 
BRANCH  22  23
HETATM   23  C   UNK N   1      30.808  28.377  -6.208  0.00  0.00     0.000 C 
BRANCH  23  24
HETATM   24  C   UNK N   1      31.522  27.268  -5.449  0.00  0.00     0.000 C 
BRANCH  24  25
HETATM   25  C   UNK N   1      30.604  26.084  -5.182  0.00  0.00     0.001 C 
BRANCH  25  26
HETATM   26  C   UNK N   1      30.870  25.451  -3.824  0.00  0.00     0.012 C 
BRANCH  26  27
HETATM   27  C   UNK N   1      30.290  24.039  -3.721  0.00  0.00     0.108 C 
BRANCH  27  28
HETATM   28  S   UNK N   1      31.346  22.803  -2.861  0.00  0.00     0.014 S 
HETATM   29  O   UNK N   1      30.536  22.841  -1.554  0.00  0.00    -0.258 OA
BRANCH  28  30
HETATM   30  C   UNK N   1      30.455  21.366  -3.542  0.00  0.00     0.109 C 
BRANCH  30  31
HETATM   31  C   UNK N   1      31.263  20.700  -4.636  0.00  0.00     0.019 C 
BRANCH  31  32
HETATM   32  C   UNK N   1      30.405  20.541  -5.883  0.00  0.00     0.090 C 
BRANCH  32  33
HETATM   33  C   UNK N   1      30.533  21.725  -6.842  0.00  0.00     0.339 C 
HETATM   34  F   UNK N   1      31.535  22.573  -6.400  0.00  0.00    -0.196 F 
HETATM   35  F   UNK N   1      30.896  21.228  -8.080  0.00  0.00    -0.196 F 
BRANCH  33  36
HETATM   36  C   UNK N   1      29.219  22.503  -6.989  0.00  0.00     0.454 C 
HETATM   37  F   UNK N   1      29.498  23.853  -7.102  0.00  0.00    -0.165 F 
HETATM   38  F   UNK N   1      28.406  22.314  -5.887  0.00  0.00    -0.165 F 
HETATM   39  F   UNK N   1      28.549  22.089  -8.126  0.00  0.00    -0.165 F 
ENDBRANCH  33  36
ENDBRANCH  32  33
ENDBRANCH  31  32
ENDBRANCH  30  31
ENDBRANCH  28  30
ENDBRANCH  27  28
ENDBRANCH  26  27
ENDBRANCH  25  26
ENDBRANCH  24  25
ENDBRANCH  23  24
ENDBRANCH  22  23
ENDBRANCH  21  22
ENDBRANCH  20  21
ENDBRANCH  19  20
ENDBRANCH   9  19
BRANCH   3  40
HETATM   40  O   UNK N   1      25.157  21.215  -9.433  0.00  0.00    -0.361 OA
HETATM   41  H   UNK N   1      25.854  20.614  -9.606  0.00  0.00     0.217 HD
ENDBRANCH   3  40
BRANCH  15  42
HETATM   42  O   UNK N   1      27.489  28.923  -2.141  0.00  0.00    -0.395 OA
HETATM   43  H   UNK N   1      27.854  28.420  -1.397  0.00  0.00     0.210 HD
ENDBRANCH  15  42
TORSDOF 17
ENDMDL
MODEL 2
REMARK VINA RESULT:      -6.4      1.831      3.128
REMARK  17 active torsions:
REMARK  status: ('A' for Active; 'I' for Inactive)
REMARK    1  A    between atoms: C_3  and  O_18 
REMARK    2  A    between atoms: C_9  and  C_19 
REMARK    3  A    between atoms: C_15  and  O_40 
REMARK    4  A    between atoms: C_19  and  C_20 
REMARK    5  A    between atoms: C_20  and  C_21 
REMARK    6  A    between atoms: C_21  and  C_22 
REMARK    7  A    between atoms: C_22  and  C_23 
REMARK    8  A    between atoms: C_23  and  C_24 
REMARK    9  A    between atoms: C_24  and  C_25 
REMARK   10  A    between atoms: C_25  and  C_26 
REMARK   11  A    between atoms: C_26  and  C_27 
REMARK   12  A    between atoms: C_27  and  S_28 
REMARK   13  A    between atoms: S_28  and  C_30 
REMARK   14  A    between atoms: C_30  and  C_31 
REMARK   15  A    between atoms: C_31  and  C_32 
REMARK   16  A    between atoms: C_32  and  C_33 
REMARK   17  A    between atoms: C_33  and  C_34 
ROOT
HETATM    1  C   UNK N   1      25.248  22.965  -6.389  0.00  0.00     0.011 A 
HETATM    2  C   UNK N   1      25.077  21.869  -7.238  0.00  0.00     0.037 A 
HETATM    3  C   UNK N   1      25.352  21.991  -8.600  0.00  0.00     0.066 A 
HETATM    4  C   UNK N   1      25.778  23.215  -9.119  0.00  0.00     0.044 A 
HETATM    5  C   UNK N   1      25.955  24.318  -8.277  0.00  0.00    -0.048 A 
HETATM    6  C   UNK N   1      25.702  24.195  -6.893  0.00  0.00    -0.047 A 
HETATM    7  C   UNK N   1      25.907  25.351  -5.935  0.00  0.00     0.024 C 
HETATM    8  C   UNK N   1      26.351  25.629  -8.879  0.00  0.00     0.044 C 
HETATM    9  C   UNK N   1      27.219  26.450  -7.944  0.00  0.00    -0.005 C 
HETATM   10  C   UNK N   1      26.506  26.645  -6.586  0.00  0.00     0.003 C 
HETATM   11  C   UNK N   1      26.804  26.003  -3.611  0.00  0.00     0.013 C 
HETATM   12  C   UNK N   1      26.737  24.912  -4.710  0.00  0.00     0.010 C 
HETATM   13  C   UNK N   1      27.353  27.456  -5.574  0.00  0.00     0.001 C 
HETATM   14  C   UNK N   1      26.755  27.433  -4.180  0.00  0.00    -0.014 C 
HETATM   15  C   UNK N   1      27.692  28.407  -3.484  0.00  0.00     0.126 C 
HETATM   16  C   UNK N   1      27.562  28.933  -5.868  0.00  0.00     0.008 C 
HETATM   17  C   UNK N   1      27.871  29.546  -4.491  0.00  0.00     0.033 C 
HETATM   18  C   UNK N   1      25.311  27.960  -4.167  0.00  0.00     0.018 C 
ENDROOT
BRANCH   9  19
HETATM   19  C   UNK N   1      28.636  25.880  -7.890  0.00  0.00     0.005 C 
BRANCH  19  20
HETATM   20  C   UNK N   1      29.111  25.532  -9.294  0.00  0.00     0.000 C 
BRANCH  20  21
HETATM   21  C   UNK N   1      30.113  24.384  -9.257  0.00  0.00     0.000 C 
BRANCH  21  22
HETATM   22  C   UNK N   1      29.407  23.044  -9.394  0.00  0.00     0.000 C 
BRANCH  22  23
HETATM   23  C   UNK N   1      29.836  22.064  -8.311  0.00  0.00     0.000 C 
BRANCH  23  24
HETATM   24  C   UNK N   1      28.752  21.888  -7.257  0.00  0.00     0.000 C 
BRANCH  24  25
HETATM   25  C   UNK N   1      29.276  22.164  -5.855  0.00  0.00     0.001 C 
BRANCH  25  26
HETATM   26  C   UNK N   1      30.194  21.055  -5.360  0.00  0.00     0.012 C 
BRANCH  26  27
HETATM   27  C   UNK N   1      30.456  21.151  -3.856  0.00  0.00     0.108 C 
BRANCH  27  28
HETATM   28  S   UNK N   1      31.431  22.611  -3.307  0.00  0.00     0.014 S 
HETATM   29  O   UNK N   1      32.057  21.891  -2.101  0.00  0.00    -0.258 OA
BRANCH  28  30
HETATM   30  C   UNK N   1      32.829  22.267  -4.425  0.00  0.00     0.109 C 
BRANCH  30  31
HETATM   31  C   UNK N   1      33.297  23.535  -5.108  0.00  0.00     0.019 C 
BRANCH  31  32
HETATM   32  C   UNK N   1      32.102  24.273  -5.694  0.00  0.00     0.090 C 
BRANCH  32  33
HETATM   33  C   UNK N   1      32.130  25.772  -5.396  0.00  0.00     0.339 C 
HETATM   34  F   UNK N   1      33.291  26.087  -4.710  0.00  0.00    -0.196 F 
HETATM   35  F   UNK N   1      32.143  26.443  -6.606  0.00  0.00    -0.196 F 
BRANCH  33  36
HETATM   36  C   UNK N   1      30.908  26.232  -4.591  0.00  0.00     0.454 C 
HETATM   37  F   UNK N   1      31.218  26.222  -3.243  0.00  0.00    -0.165 F 
HETATM   38  F   UNK N   1      29.832  25.388  -4.800  0.00  0.00    -0.165 F 
HETATM   39  F   UNK N   1      30.555  27.518  -4.960  0.00  0.00    -0.165 F 
ENDBRANCH  33  36
ENDBRANCH  32  33
ENDBRANCH  31  32
ENDBRANCH  30  31
ENDBRANCH  28  30
ENDBRANCH  27  28
ENDBRANCH  26  27
ENDBRANCH  25  26
ENDBRANCH  24  25
ENDBRANCH  23  24
ENDBRANCH  22  23
ENDBRANCH  21  22
ENDBRANCH  20  21
ENDBRANCH  19  20
ENDBRANCH   9  19
BRANCH   3  40
HETATM   40  O   UNK N   1      25.198  20.933  -9.412  0.00  0.00    -0.361 OA
HETATM   41  H   UNK N   1      25.047  20.079  -9.058  0.00  0.00     0.217 HD
ENDBRANCH   3  40
BRANCH  15  42
HETATM   42  O   UNK N   1      27.202  28.857  -2.256  0.00  0.00    -0.395 OA
HETATM   43  H   UNK N   1      26.666  28.273  -1.698  0.00  0.00     0.210 HD
ENDBRANCH  15  42
TORSDOF 17
ENDMDL
MODEL 3
REMARK VINA RESULT:      -6.2      2.096      3.424
REMARK  17 active torsions:
REMARK  status: ('A' for Active; 'I' for Inactive)
REMARK    1  A    between atoms: C_3  and  O_18 
REMARK    2  A    between atoms: C_9  and  C_19 
REMARK    3  A    between atoms: C_15  and  O_40 
REMARK    4  A    between atoms: C_19  and  C_20 
REMARK    5  A    between atoms: C_20  and  C_21 
REMARK    6  A    between atoms: C_21  and  C_22 
REMARK    7  A    between atoms: C_22  and  C_23 
REMARK    8  A    between atoms: C_23  and  C_24 
REMARK    9  A    between atoms: C_24  and  C_25 
REMARK   10  A    between atoms: C_25  and  C_26 
REMARK   11  A    between atoms: C_26  and  C_27 
REMARK   12  A    between atoms: C_27  and  S_28 
REMARK   13  A    between atoms: S_28  and  C_30 
REMARK   14  A    between atoms: C_30  and  C_31 
REMARK   15  A    between atoms: C_31  and  C_32 
REMARK   16  A    between atoms: C_32  and  C_33 
REMARK   17  A    between atoms: C_33  and  C_34 
ROOT
HETATM    1  C   UNK N   1      25.396  22.976  -6.360  0.00  0.00     0.011 A 
HETATM    2  C   UNK N   1      25.222  21.890  -7.221  0.00  0.00     0.037 A 
HETATM    3  C   UNK N   1      25.399  22.053  -8.595  0.00  0.00     0.066 A 
HETATM    4  C   UNK N   1      25.729  23.307  -9.113  0.00  0.00     0.044 A 
HETATM    5  C   UNK N   1      25.907  24.400  -8.258  0.00  0.00    -0.048 A 
HETATM    6  C   UNK N   1      25.754  24.237  -6.864  0.00  0.00    -0.047 A 
HETATM    7  C   UNK N   1      25.965  25.383  -5.895  0.00  0.00     0.024 C 
HETATM    8  C   UNK N   1      26.198  25.741  -8.855  0.00  0.00     0.044 C 
HETATM    9  C   UNK N   1      27.084  26.587  -7.960  0.00  0.00    -0.005 C 
HETATM   10  C   UNK N   1      26.455  26.719  -6.554  0.00  0.00     0.003 C 
HETATM   11  C   UNK N   1      26.982  26.033  -3.620  0.00  0.00     0.013 C 
HETATM   12  C   UNK N   1      26.895  24.962  -4.738  0.00  0.00     0.010 C 
HETATM   13  C   UNK N   1      27.327  27.551  -5.581  0.00  0.00     0.001 C 
HETATM   14  C   UNK N   1      26.825  27.469  -4.152  0.00  0.00    -0.014 C 
HETATM   15  C   UNK N   1      27.758  28.476  -3.496  0.00  0.00     0.126 C 
HETATM   16  C   UNK N   1      27.443  29.042  -5.853  0.00  0.00     0.008 C 
HETATM   17  C   UNK N   1      27.813  29.642  -4.486  0.00  0.00     0.033 C 
HETATM   18  C   UNK N   1      25.361  27.922  -4.032  0.00  0.00     0.018 C 
ENDROOT
BRANCH   9  19
HETATM   19  C   UNK N   1      28.528  26.088  -8.012  0.00  0.00     0.005 C 
BRANCH  19  20
HETATM   20  C   UNK N   1      28.902  25.722  -9.443  0.00  0.00     0.000 C 
BRANCH  20  21
HETATM   21  C   UNK N   1      29.936  24.605  -9.463  0.00  0.00     0.000 C 
BRANCH  21  22
HETATM   22  C   UNK N   1      29.460  23.409  -8.651  0.00  0.00     0.000 C 
BRANCH  22  23
HETATM   23  C   UNK N   1      29.039  22.249  -9.543  0.00  0.00     0.000 C 
BRANCH  23  24
HETATM   24  C   UNK N   1      28.960  20.946  -8.762  0.00  0.00     0.000 C 
BRANCH  24  25
HETATM   25  C   UNK N   1      28.987  21.184  -7.259  0.00  0.00     0.001 C 
BRANCH  25  26
HETATM   26  C   UNK N   1      30.037  20.329  -6.565  0.00  0.00     0.012 C 
BRANCH  26  27
HETATM   27  C   UNK N   1      31.193  19.964  -7.499  0.00  0.00     0.108 C 
BRANCH  27  28
HETATM   28  S   UNK N   1      32.806  20.764  -7.122  0.00  0.00     0.014 S 
HETATM   29  O   UNK N   1      32.503  22.034  -7.936  0.00  0.00    -0.258 OA
BRANCH  28  30
HETATM   30  C   UNK N   1      32.241  21.468  -5.539  0.00  0.00     0.109 C 
BRANCH  30  31
HETATM   31  C   UNK N   1      32.091  22.971  -5.640  0.00  0.00     0.019 C 
BRANCH  31  32
HETATM   32  C   UNK N   1      31.854  23.557  -4.255  0.00  0.00     0.090 C 
BRANCH  32  33
HETATM   33  C   UNK N   1      30.373  23.796  -3.961  0.00  0.00     0.339 C 
HETATM   34  F   UNK N   1      30.185  25.110  -3.567  0.00  0.00    -0.196 F 
HETATM   35  F   UNK N   1      29.671  23.587  -5.133  0.00  0.00    -0.196 F 
BRANCH  33  36
HETATM   36  C   UNK N   1      29.829  22.847  -2.885  0.00  0.00     0.454 C 
HETATM   37  F   UNK N   1      28.554  23.246  -2.526  0.00  0.00    -0.165 F 
HETATM   38  F   UNK N   1      30.629  22.868  -1.757  0.00  0.00    -0.165 F 
HETATM   39  F   UNK N   1      29.772  21.556  -3.378  0.00  0.00    -0.165 F 
ENDBRANCH  33  36
ENDBRANCH  32  33
ENDBRANCH  31  32
ENDBRANCH  30  31
ENDBRANCH  28  30
ENDBRANCH  27  28
ENDBRANCH  26  27
ENDBRANCH  25  26
ENDBRANCH  24  25
ENDBRANCH  23  24
ENDBRANCH  22  23
ENDBRANCH  21  22
ENDBRANCH  20  21
ENDBRANCH  19  20
ENDBRANCH   9  19
BRANCH   3  40
HETATM   40  O   UNK N   1      25.243  21.005  -9.420  0.00  0.00    -0.361 OA
HETATM   41  H   UNK N   1      24.539  20.987 -10.038  0.00  0.00     0.217 HD
ENDBRANCH   3  40
BRANCH  15  42
HETATM   42  O   UNK N   1      27.329  28.876  -2.229  0.00  0.00    -0.395 OA
HETATM   43  H   UNK N   1      27.111  28.216  -1.553  0.00  0.00     0.210 HD
ENDBRANCH  15  42
TORSDOF 17
ENDMDL
MODEL 4
REMARK VINA RESULT:      -6.0      2.200      3.005
REMARK  17 active torsions:
REMARK  status: ('A' for Active; 'I' for Inactive)
REMARK    1  A    between atoms: C_3  and  O_18 
REMARK    2  A    between atoms: C_9  and  C_19 
REMARK    3  A    between atoms: C_15  and  O_40 
REMARK    4  A    between atoms: C_19  and  C_20 
REMARK    5  A    between atoms: C_20  and  C_21 
REMARK    6  A    between atoms: C_21  and  C_22 
REMARK    7  A    between atoms: C_22  and  C_23 
REMARK    8  A    between atoms: C_23  and  C_24 
REMARK    9  A    between atoms: C_24  and  C_25 
REMARK   10  A    between atoms: C_25  and  C_26 
REMARK   11  A    between atoms: C_26  and  C_27 
REMARK   12  A    between atoms: C_27  and  S_28 
REMARK   13  A    between atoms: S_28  and  C_30 
REMARK   14  A    between atoms: C_30  and  C_31 
REMARK   15  A    between atoms: C_31  and  C_32 
REMARK   16  A    between atoms: C_32  and  C_33 
REMARK   17  A    between atoms: C_33  and  C_34 
ROOT
HETATM    1  C   UNK N   1      25.246  22.967  -6.362  0.00  0.00     0.011 A 
HETATM    2  C   UNK N   1      25.069  21.864  -7.201  0.00  0.00     0.037 A 
HETATM    3  C   UNK N   1      25.321  21.980  -8.568  0.00  0.00     0.066 A 
HETATM    4  C   UNK N   1      25.730  23.204  -9.102  0.00  0.00     0.044 A 
HETATM    5  C   UNK N   1      25.912  24.313  -8.269  0.00  0.00    -0.048 A 
HETATM    6  C   UNK N   1      25.683  24.197  -6.881  0.00  0.00    -0.047 A 
HETATM    7  C   UNK N   1      25.894  25.361  -5.933  0.00  0.00     0.024 C 
HETATM    8  C   UNK N   1      26.289  25.623  -8.886  0.00  0.00     0.044 C 
HETATM    9  C   UNK N   1      27.165  26.457  -7.970  0.00  0.00    -0.005 C 
HETATM   10  C   UNK N   1      26.473  26.656  -6.602  0.00  0.00     0.003 C 
HETATM   11  C   UNK N   1      26.823  26.034  -3.628  0.00  0.00     0.013 C 
HETATM   12  C   UNK N   1      26.746  24.935  -4.719  0.00  0.00     0.010 C 
HETATM   13  C   UNK N   1      27.329  27.479  -5.609  0.00  0.00     0.001 C 
HETATM   14  C   UNK N   1      26.754  27.460  -4.205  0.00  0.00    -0.014 C 
HETATM   15  C   UNK N   1      27.695  28.445  -3.531  0.00  0.00     0.126 C 
HETATM   16  C   UNK N   1      27.523  28.955  -5.915  0.00  0.00     0.008 C 
HETATM   17  C   UNK N   1      27.850  29.580  -4.547  0.00  0.00     0.033 C 
HETATM   18  C   UNK N   1      25.307  27.976  -4.172  0.00  0.00     0.018 C 
ENDROOT
BRANCH   9  19
HETATM   19  C   UNK N   1      28.587  25.898  -7.935  0.00  0.00     0.005 C 
BRANCH  19  20
HETATM   20  C   UNK N   1      29.578  26.965  -8.380  0.00  0.00     0.000 C 
BRANCH  20  21
HETATM   21  C   UNK N   1      30.501  27.357  -7.234  0.00  0.00     0.000 C 
BRANCH  21  22
HETATM   22  C   UNK N   1      31.028  26.124  -6.515  0.00  0.00     0.000 C 
BRANCH  22  23
HETATM   23  C   UNK N   1      30.695  26.148  -5.030  0.00  0.00     0.000 C 
BRANCH  23  24
HETATM   24  C   UNK N   1      30.246  24.780  -4.537  0.00  0.00     0.000 C 
BRANCH  24  25
HETATM   25  C   UNK N   1      30.489  23.695  -5.578  0.00  0.00     0.001 C 
BRANCH  25  26
HETATM   26  C   UNK N   1      29.364  22.671  -5.607  0.00  0.00     0.012 C 
BRANCH  26  27
HETATM   27  C   UNK N   1      28.882  22.384  -7.031  0.00  0.00     0.108 C 
BRANCH  27  28
HETATM   28  S   UNK N   1      29.020  20.636  -7.584  0.00  0.00     0.014 S 
HETATM   29  O   UNK N   1      28.716  20.951  -9.058  0.00  0.00    -0.258 OA
BRANCH  28  30
HETATM   30  C   UNK N   1      30.830  20.702  -7.790  0.00  0.00     0.109 C 
BRANCH  30  31
HETATM   31  C   UNK N   1      31.521  19.822  -6.768  0.00  0.00     0.019 C 
BRANCH  31  32
HETATM   32  C   UNK N   1      32.428  20.673  -5.891  0.00  0.00     0.090 C 
BRANCH  32  33
HETATM   33  C   UNK N   1      32.318  20.314  -4.408  0.00  0.00     0.339 C 
HETATM   34  F   UNK N   1      31.023  19.915  -4.122  0.00  0.00    -0.196 F 
HETATM   35  F   UNK N   1      33.167  19.249  -4.168  0.00  0.00    -0.196 F 
BRANCH  33  36
HETATM   36  C   UNK N   1      32.718  21.479  -3.493  0.00  0.00     0.454 C 
HETATM   37  F   UNK N   1      31.586  21.994  -2.888  0.00  0.00    -0.165 F 
HETATM   38  F   UNK N   1      33.328  22.488  -4.216  0.00  0.00    -0.165 F 
HETATM   39  F   UNK N   1      33.586  21.033  -2.512  0.00  0.00    -0.165 F 
ENDBRANCH  33  36
ENDBRANCH  32  33
ENDBRANCH  31  32
ENDBRANCH  30  31
ENDBRANCH  28  30
ENDBRANCH  27  28
ENDBRANCH  26  27
ENDBRANCH  25  26
ENDBRANCH  24  25
ENDBRANCH  23  24
ENDBRANCH  22  23
ENDBRANCH  21  22
ENDBRANCH  20  21
ENDBRANCH  19  20
ENDBRANCH   9  19
BRANCH   3  40
HETATM   40  O   UNK N   1      25.162  20.916  -9.372  0.00  0.00    -0.361 OA
HETATM   41  H   UNK N   1      25.682  20.147  -9.251  0.00  0.00     0.217 HD
ENDBRANCH   3  40
BRANCH  15  42
HETATM   42  O   UNK N   1      27.221  28.900  -2.298  0.00  0.00    -0.395 OA
HETATM   43  H   UNK N   1      27.180  28.301  -1.537  0.00  0.00     0.210 HD
ENDBRANCH  15  42
TORSDOF 17
ENDMDL
MODEL 5
REMARK VINA RESULT:      -6.0      2.481      5.796
REMARK  17 active torsions:
REMARK  status: ('A' for Active; 'I' for Inactive)
REMARK    1  A    between atoms: C_3  and  O_18 
REMARK    2  A    between atoms: C_9  and  C_19 
REMARK    3  A    between atoms: C_15  and  O_40 
REMARK    4  A    between atoms: C_19  and  C_20 
REMARK    5  A    between atoms: C_20  and  C_21 
REMARK    6  A    between atoms: C_21  and  C_22 
REMARK    7  A    between atoms: C_22  and  C_23 
REMARK    8  A    between atoms: C_23  and  C_24 
REMARK    9  A    between atoms: C_24  and  C_25 
REMARK   10  A    between atoms: C_25  and  C_26 
REMARK   11  A    between atoms: C_26  and  C_27 
REMARK   12  A    between atoms: C_27  and  S_28 
REMARK   13  A    between atoms: S_28  and  C_30 
REMARK   14  A    between atoms: C_30  and  C_31 
REMARK   15  A    between atoms: C_31  and  C_32 
REMARK   16  A    between atoms: C_32  and  C_33 
REMARK   17  A    between atoms: C_33  and  C_34 
ROOT
HETATM    1  C   UNK N   1      27.822  29.124  -5.968  0.00  0.00     0.011 A 
HETATM    2  C   UNK N   1      27.718  29.744  -4.721  0.00  0.00     0.037 A 
HETATM    3  C   UNK N   1      26.750  29.322  -3.810  0.00  0.00     0.066 A 
HETATM    4  C   UNK N   1      25.871  28.291  -4.152  0.00  0.00     0.044 A 
HETATM    5  C   UNK N   1      25.970  27.663  -5.398  0.00  0.00    -0.048 A 
HETATM    6  C   UNK N   1      26.963  28.069  -6.316  0.00  0.00    -0.047 A 
HETATM    7  C   UNK N   1      27.129  27.400  -7.665  0.00  0.00     0.024 C 
HETATM    8  C   UNK N   1      24.971  26.607  -5.754  0.00  0.00     0.044 C 
HETATM    9  C   UNK N   1      25.563  25.535  -6.648  0.00  0.00    -0.005 C 
HETATM   10  C   UNK N   1      26.183  26.174  -7.912  0.00  0.00     0.003 C 
HETATM   11  C   UNK N   1      28.856  26.514  -9.359  0.00  0.00     0.013 C 
HETATM   12  C   UNK N   1      28.604  27.020  -7.915  0.00  0.00     0.010 C 
HETATM   13  C   UNK N   1      26.830  25.132  -8.856  0.00  0.00     0.001 C 
HETATM   14  C   UNK N   1      27.640  25.785  -9.960  0.00  0.00    -0.014 C 
HETATM   15  C   UNK N   1      28.001  24.554 -10.776  0.00  0.00     0.126 C 
HETATM   16  C   UNK N   1      25.896  24.182  -9.589  0.00  0.00     0.008 C 
HETATM   17  C   UNK N   1      26.708  23.734 -10.817  0.00  0.00     0.033 C 
HETATM   18  C   UNK N   1      26.793  26.763 -10.790  0.00  0.00     0.018 C 
ENDROOT
BRANCH   9  19
HETATM   19  C   UNK N   1      26.473  24.609  -5.841  0.00  0.00     0.005 C 
BRANCH  19  20
HETATM   20  C   UNK N   1      25.856  24.330  -4.477  0.00  0.00     0.000 C 
BRANCH  20  21
HETATM   21  C   UNK N   1      26.903  24.443  -3.376  0.00  0.00     0.000 C 
BRANCH  21  22
HETATM   22  C   UNK N   1      28.268  23.997  -3.878  0.00  0.00     0.000 C 
BRANCH  22  23
HETATM   23  C   UNK N   1      29.083  23.325  -2.781  0.00  0.00     0.000 C 
BRANCH  23  24
HETATM   24  C   UNK N   1      29.962  22.216  -3.339  0.00  0.00     0.000 C 
BRANCH  24  25
HETATM   25  C   UNK N   1      31.432  22.612  -3.359  0.00  0.00     0.001 C 
BRANCH  25  26
HETATM   26  C   UNK N   1      32.255  21.705  -4.262  0.00  0.00     0.012 C 
BRANCH  26  27
HETATM   27  C   UNK N   1      31.524  21.368  -5.563  0.00  0.00     0.108 C 
BRANCH  27  28
HETATM   28  S   UNK N   1      31.804  22.531  -6.960  0.00  0.00     0.014 S 
HETATM   29  O   UNK N   1      31.437  21.506  -8.046  0.00  0.00    -0.258 OA
BRANCH  28  30
HETATM   30  C   UNK N   1      30.133  23.254  -6.871  0.00  0.00     0.109 C 
BRANCH  30  31
HETATM   31  C   UNK N   1      29.231  22.657  -7.931  0.00  0.00     0.019 C 
BRANCH  31  32
HETATM   32  C   UNK N   1      28.149  21.816  -7.267  0.00  0.00     0.090 C 
BRANCH  32  33
HETATM   33  C   UNK N   1      27.551  20.772  -8.211  0.00  0.00     0.339 C 
HETATM   34  F   UNK N   1      28.000  21.002  -9.501  0.00  0.00    -0.196 F 
HETATM   35  F   UNK N   1      28.004  19.530  -7.806  0.00  0.00    -0.196 F 
BRANCH  33  36
HETATM   36  C   UNK N   1      26.018  20.769  -8.186  0.00  0.00     0.454 C 
HETATM   37  F   UNK N   1      25.571  19.567  -7.667  0.00  0.00    -0.165 F 
HETATM   38  F   UNK N   1      25.502  20.915  -9.462  0.00  0.00    -0.165 F 
HETATM   39  F   UNK N   1      25.556  21.801  -7.389  0.00  0.00    -0.165 F 
ENDBRANCH  33  36
ENDBRANCH  32  33
ENDBRANCH  31  32
ENDBRANCH  30  31
ENDBRANCH  28  30
ENDBRANCH  27  28
ENDBRANCH  26  27
ENDBRANCH  25  26
ENDBRANCH  24  25
ENDBRANCH  23  24
ENDBRANCH  22  23
ENDBRANCH  21  22
ENDBRANCH  20  21
ENDBRANCH  19  20
ENDBRANCH   9  19
BRANCH   3  40
HETATM   40  O   UNK N   1      26.659  29.911  -2.607  0.00  0.00    -0.361 OA
HETATM   41  H   UNK N   1      25.903  29.781  -2.070  0.00  0.00     0.217 HD
ENDBRANCH   3  40
BRANCH  15  42
HETATM   42  O   UNK N   1      28.474  24.862 -12.053  0.00  0.00    -0.395 OA
HETATM   43  H   UNK N   1      28.811  24.163 -12.634  0.00  0.00     0.210 HD
ENDBRANCH  15  42
TORSDOF 17
ENDMDL
MODEL 6
REMARK VINA RESULT:      -6.0      2.011      5.473
REMARK  17 active torsions:
REMARK  status: ('A' for Active; 'I' for Inactive)
REMARK    1  A    between atoms: C_3  and  O_18 
REMARK    2  A    between atoms: C_9  and  C_19 
REMARK    3  A    between atoms: C_15  and  O_40 
REMARK    4  A    between atoms: C_19  and  C_20 
REMARK    5  A    between atoms: C_20  and  C_21 
REMARK    6  A    between atoms: C_21  and  C_22 
REMARK    7  A    between atoms: C_22  and  C_23 
REMARK    8  A    between atoms: C_23  and  C_24 
REMARK    9  A    between atoms: C_24  and  C_25 
REMARK   10  A    between atoms: C_25  and  C_26 
REMARK   11  A    between atoms: C_26  and  C_27 
REMARK   12  A    between atoms: C_27  and  S_28 
REMARK   13  A    between atoms: S_28  and  C_30 
REMARK   14  A    between atoms: C_30  and  C_31 
REMARK   15  A    between atoms: C_31  and  C_32 
REMARK   16  A    between atoms: C_32  and  C_33 
REMARK   17  A    between atoms: C_33  and  C_34 
ROOT
HETATM    1  C   UNK N   1      27.519  28.870  -6.131  0.00  0.00     0.011 A 
HETATM    2  C   UNK N   1      27.524  29.540  -4.906  0.00  0.00     0.037 A 
HETATM    3  C   UNK N   1      26.742  29.072  -3.850  0.00  0.00     0.066 A 
HETATM    4  C   UNK N   1      25.937  27.944  -4.024  0.00  0.00     0.044 A 
HETATM    5  C   UNK N   1      25.928  27.264  -5.246  0.00  0.00    -0.048 A 
HETATM    6  C   UNK N   1      26.735  27.718  -6.312  0.00  0.00    -0.047 A 
HETATM    7  C   UNK N   1      26.782  26.999  -7.645  0.00  0.00     0.024 C 
HETATM    8  C   UNK N   1      25.006  26.098  -5.415  0.00  0.00     0.044 C 
HETATM    9  C   UNK N   1      25.578  25.044  -6.344  0.00  0.00    -0.005 C 
HETATM   10  C   UNK N   1      25.945  25.675  -7.707  0.00  0.00     0.003 C 
HETATM   11  C   UNK N   1      28.340  26.202  -9.534  0.00  0.00     0.013 C 
HETATM   12  C   UNK N   1      28.240  26.755  -8.089  0.00  0.00     0.010 C 
HETATM   13  C   UNK N   1      26.561  24.654  -8.695  0.00  0.00     0.001 C 
HETATM   14  C   UNK N   1      27.137  25.326  -9.927  0.00  0.00    -0.014 C 
HETATM   15  C   UNK N   1      27.508  24.096 -10.739  0.00  0.00     0.126 C 
HETATM   16  C   UNK N   1      25.640  23.580  -9.250  0.00  0.00     0.008 C 
HETATM   17  C   UNK N   1      26.316  23.152 -10.564  0.00  0.00     0.033 C 
HETATM   18  C   UNK N   1      26.084  26.170 -10.664  0.00  0.00     0.018 C 
ENDROOT
BRANCH   9  19
HETATM   19  C   UNK N   1      26.683  24.256  -5.642  0.00  0.00     0.005 C 
BRANCH  19  20
HETATM   20  C   UNK N   1      26.317  24.032  -4.181  0.00  0.00     0.000 C 
BRANCH  20  21
HETATM   21  C   UNK N   1      27.499  24.344  -3.273  0.00  0.00     0.000 C 
BRANCH  21  22
HETATM   22  C   UNK N   1      28.602  25.057  -4.043  0.00  0.00     0.000 C 
BRANCH  22  23
HETATM   23  C   UNK N   1      29.979  24.756  -3.469  0.00  0.00     0.000 C 
BRANCH  23  24
HETATM   24  C   UNK N   1      30.892  25.971  -3.545  0.00  0.00     0.000 C 
BRANCH  24  25
HETATM   25  C   UNK N   1      30.495  26.908  -4.677  0.00  0.00     0.001 C 
BRANCH  25  26
HETATM   26  C   UNK N   1      31.602  27.056  -5.711  0.00  0.00     0.012 C 
BRANCH  26  27
HETATM   27  C   UNK N   1      31.429  26.089  -6.884  0.00  0.00     0.108 C 
BRANCH  27  28
HETATM   28  S   UNK N   1      32.811  24.906  -7.154  0.00  0.00     0.014 S 
HETATM   29  O   UNK N   1      33.266  24.915  -5.685  0.00  0.00    -0.258 OA
BRANCH  28  30
HETATM   30  C   UNK N   1      31.761  23.427  -6.971  0.00  0.00     0.109 C 
BRANCH  30  31
HETATM   31  C   UNK N   1      30.293  23.796  -7.040  0.00  0.00     0.019 C 
BRANCH  31  32
HETATM   32  C   UNK N   1      29.547  22.775  -7.886  0.00  0.00     0.090 C 
BRANCH  32  33
HETATM   33  C   UNK N   1      28.954  21.639  -7.051  0.00  0.00     0.339 C 
HETATM   34  F   UNK N   1      28.994  21.979  -5.709  0.00  0.00    -0.196 F 
HETATM   35  F   UNK N   1      27.631  21.488  -7.424  0.00  0.00    -0.196 F 
BRANCH  33  36
HETATM   36  C   UNK N   1      29.683  20.307  -7.272  0.00  0.00     0.454 C 
HETATM   37  F   UNK N   1      28.753  19.311  -7.510  0.00  0.00    -0.165 F 
HETATM   38  F   UNK N   1      30.425  19.959  -6.158  0.00  0.00    -0.165 F 
HETATM   39  F   UNK N   1      30.524  20.404  -8.366  0.00  0.00    -0.165 F 
ENDBRANCH  33  36
ENDBRANCH  32  33
ENDBRANCH  31  32
ENDBRANCH  30  31
ENDBRANCH  28  30
ENDBRANCH  27  28
ENDBRANCH  26  27
ENDBRANCH  25  26
ENDBRANCH  24  25
ENDBRANCH  23  24
ENDBRANCH  22  23
ENDBRANCH  21  22
ENDBRANCH  20  21
ENDBRANCH  19  20
ENDBRANCH   9  19
BRANCH   3  40
HETATM   40  O   UNK N   1      26.757  29.711  -2.670  0.00  0.00    -0.361 OA
HETATM   41  H   UNK N   1      26.135  30.387  -2.486  0.00  0.00     0.217 HD
ENDBRANCH   3  40
BRANCH  15  42
HETATM   42  O   UNK N   1      27.764  24.382 -12.082  0.00  0.00    -0.395 OA
HETATM   43  H   UNK N   1      27.375  23.838 -12.784  0.00  0.00     0.210 HD
ENDBRANCH  15  42
TORSDOF 17
ENDMDL
MODEL 7
REMARK VINA RESULT:      -5.9      2.953      6.748
REMARK  17 active torsions:
REMARK  status: ('A' for Active; 'I' for Inactive)
REMARK    1  A    between atoms: C_3  and  O_18 
REMARK    2  A    between atoms: C_9  and  C_19 
REMARK    3  A    between atoms: C_15  and  O_40 
REMARK    4  A    between atoms: C_19  and  C_20 
REMARK    5  A    between atoms: C_20  and  C_21 
REMARK    6  A    between atoms: C_21  and  C_22 
REMARK    7  A    between atoms: C_22  and  C_23 
REMARK    8  A    between atoms: C_23  and  C_24 
REMARK    9  A    between atoms: C_24  and  C_25 
REMARK   10  A    between atoms: C_25  and  C_26 
REMARK   11  A    between atoms: C_26  and  C_27 
REMARK   12  A    between atoms: C_27  and  S_28 
REMARK   13  A    between atoms: S_28  and  C_30 
REMARK   14  A    between atoms: C_30  and  C_31 
REMARK   15  A    between atoms: C_31  and  C_32 
REMARK   16  A    between atoms: C_32  and  C_33 
REMARK   17  A    between atoms: C_33  and  C_34 
ROOT
HETATM    1  C   UNK N   1      29.855  22.907  -3.835  0.00  0.00     0.011 A 
HETATM    2  C   UNK N   1      30.845  22.659  -2.881  0.00  0.00     0.037 A 
HETATM    3  C   UNK N   1      31.711  21.578  -3.038  0.00  0.00     0.066 A 
HETATM    4  C   UNK N   1      31.576  20.729  -4.139  0.00  0.00     0.044 A 
HETATM    5  C   UNK N   1      30.590  20.970  -5.101  0.00  0.00    -0.048 A 
HETATM    6  C   UNK N   1      29.725  22.078  -4.962  0.00  0.00    -0.047 A 
HETATM    7  C   UNK N   1      28.661  22.399  -5.992  0.00  0.00     0.024 C 
HETATM    8  C   UNK N   1      30.435  20.004  -6.233  0.00  0.00     0.044 C 
HETATM    9  C   UNK N   1      29.973  20.683  -7.508  0.00  0.00    -0.005 C 
HETATM   10  C   UNK N   1      28.666  21.468  -7.253  0.00  0.00     0.003 C 
HETATM   11  C   UNK N   1      27.528  24.307  -7.299  0.00  0.00     0.013 C 
HETATM   12  C   UNK N   1      28.719  23.886  -6.400  0.00  0.00     0.010 C 
HETATM   13  C   UNK N   1      28.154  22.208  -8.513  0.00  0.00     0.001 C 
HETATM   14  C   UNK N   1      27.018  23.162  -8.194  0.00  0.00    -0.014 C 
HETATM   15  C   UNK N   1      26.648  23.598  -9.603  0.00  0.00     0.126 C 
HETATM   16  C   UNK N   1      27.618  21.356  -9.652  0.00  0.00     0.008 C 
HETATM   17  C   UNK N   1      26.685  22.306 -10.423  0.00  0.00     0.033 C 
HETATM   18  C   UNK N   1      25.840  22.444  -7.517  0.00  0.00     0.018 C 
ENDROOT
BRANCH   9  19
HETATM   19  C   UNK N   1      31.121  21.467  -8.142  0.00  0.00     0.005 C 
BRANCH  19  20
HETATM   20  C   UNK N   1      32.313  20.549  -8.378  0.00  0.00     0.000 C 
BRANCH  20  21
HETATM   21  C   UNK N   1      33.578  21.134  -7.764  0.00  0.00     0.000 C 
BRANCH  21  22
HETATM   22  C   UNK N   1      33.327  22.541  -7.243  0.00  0.00     0.000 C 
BRANCH  22  23
HETATM   23  C   UNK N   1      34.019  22.783  -5.908  0.00  0.00     0.000 C 
BRANCH  23  24
HETATM   24  C   UNK N   1      33.423  23.980  -5.181  0.00  0.00     0.000 C 
BRANCH  24  25
HETATM   25  C   UNK N   1      32.293  24.620  -5.974  0.00  0.00     0.001 C 
BRANCH  25  26
HETATM   26  C   UNK N   1      32.143  26.102  -5.660  0.00  0.00     0.012 C 
BRANCH  26  27
HETATM   27  C   UNK N   1      30.861  26.399  -4.880  0.00  0.00     0.108 C 
BRANCH  27  28
HETATM   28  S   UNK N   1      31.069  27.418  -3.363  0.00  0.00     0.014 S 
HETATM   29  O   UNK N   1      31.548  28.667  -4.121  0.00  0.00    -0.258 OA
BRANCH  28  30
HETATM   30  C   UNK N   1      29.323  27.941  -3.311  0.00  0.00     0.109 C 
BRANCH  30  31
HETATM   31  C   UNK N   1      28.643  27.682  -4.639  0.00  0.00     0.019 C 
BRANCH  31  32
HETATM   32  C   UNK N   1      27.232  27.163  -4.400  0.00  0.00     0.090 C 
BRANCH  32  33
HETATM   33  C   UNK N   1      26.194  27.847  -5.290  0.00  0.00     0.339 C 
HETATM   34  F   UNK N   1      25.535  28.827  -4.565  0.00  0.00    -0.196 F 
HETATM   35  F   UNK N   1      26.867  28.455  -6.333  0.00  0.00    -0.196 F 
BRANCH  33  36
HETATM   36  C   UNK N   1      25.177  26.857  -5.871  0.00  0.00     0.454 C 
HETATM   37  F   UNK N   1      25.326  25.631  -5.248  0.00  0.00    -0.165 F 
HETATM   38  F   UNK N   1      25.373  26.686  -7.230  0.00  0.00    -0.165 F 
HETATM   39  F   UNK N   1      23.891  27.316  -5.652  0.00  0.00    -0.165 F 
ENDBRANCH  33  36
ENDBRANCH  32  33
ENDBRANCH  31  32
ENDBRANCH  30  31
ENDBRANCH  28  30
ENDBRANCH  27  28
ENDBRANCH  26  27
ENDBRANCH  25  26
ENDBRANCH  24  25
ENDBRANCH  23  24
ENDBRANCH  22  23
ENDBRANCH  21  22
ENDBRANCH  20  21
ENDBRANCH  19  20
ENDBRANCH   9  19
BRANCH   3  40
HETATM   40  O   UNK N   1      32.669  21.348  -2.126  0.00  0.00    -0.361 OA
HETATM   41  H   UNK N   1      32.966  22.036  -1.565  0.00  0.00     0.217 HD
ENDBRANCH   3  40
BRANCH  15  42
HETATM   42  O   UNK N   1      25.405  24.233  -9.671  0.00  0.00    -0.395 OA
HETATM   43  H   UNK N   1      25.287  25.023 -10.221  0.00  0.00     0.210 HD
ENDBRANCH  15  42
TORSDOF 17
ENDMDL
MODEL 8
REMARK VINA RESULT:      -5.8      3.143      6.045
REMARK  17 active torsions:
REMARK  status: ('A' for Active; 'I' for Inactive)
REMARK    1  A    between atoms: C_3  and  O_18 
REMARK    2  A    between atoms: C_9  and  C_19 
REMARK    3  A    between atoms: C_15  and  O_40 
REMARK    4  A    between atoms: C_19  and  C_20 
REMARK    5  A    between atoms: C_20  and  C_21 
REMARK    6  A    between atoms: C_21  and  C_22 
REMARK    7  A    between atoms: C_22  and  C_23 
REMARK    8  A    between atoms: C_23  and  C_24 
REMARK    9  A    between atoms: C_24  and  C_25 
REMARK   10  A    between atoms: C_25  and  C_26 
REMARK   11  A    between atoms: C_26  and  C_27 
REMARK   12  A    between atoms: C_27  and  S_28 
REMARK   13  A    between atoms: S_28  and  C_30 
REMARK   14  A    between atoms: C_30  and  C_31 
REMARK   15  A    between atoms: C_31  and  C_32 
REMARK   16  A    between atoms: C_32  and  C_33 
REMARK   17  A    between atoms: C_33  and  C_34 
ROOT
HETATM    1  C   UNK N   1      28.373  24.495  -8.596  0.00  0.00     0.011 A 
HETATM    2  C   UNK N   1      27.660  25.119  -9.622  0.00  0.00     0.037 A 
HETATM    3  C   UNK N   1      26.377  25.611  -9.382  0.00  0.00     0.066 A 
HETATM    4  C   UNK N   1      25.797  25.461  -8.120  0.00  0.00     0.044 A 
HETATM    5  C   UNK N   1      26.505  24.840  -7.086  0.00  0.00    -0.048 A 
HETATM    6  C   UNK N   1      27.813  24.361  -7.315  0.00  0.00    -0.047 A 
HETATM    7  C   UNK N   1      28.631  23.708  -6.220  0.00  0.00     0.024 C 
HETATM    8  C   UNK N   1      25.827  24.641  -5.767  0.00  0.00     0.044 C 
HETATM    9  C   UNK N   1      26.800  24.711  -4.605  0.00  0.00    -0.005 C 
HETATM   10  C   UNK N   1      27.949  23.696  -4.808  0.00  0.00     0.003 C 
HETATM   11  C   UNK N   1      30.981  23.554  -5.178  0.00  0.00     0.013 C 
HETATM   12  C   UNK N   1      30.045  24.322  -6.147  0.00  0.00     0.010 C 
HETATM   13  C   UNK N   1      28.994  23.736  -3.666  0.00  0.00     0.001 C 
HETATM   14  C   UNK N   1      30.230  22.919  -3.993  0.00  0.00    -0.014 C 
HETATM   15  C   UNK N   1      30.965  23.026  -2.667  0.00  0.00     0.126 C 
HETATM   16  C   UNK N   1      28.556  23.224  -2.304  0.00  0.00     0.008 C 
HETATM   17  C   UNK N   1      29.874  22.833  -1.611  0.00  0.00     0.033 C 
HETATM   18  C   UNK N   1      29.882  21.456  -4.309  0.00  0.00     0.018 C 
ENDROOT
BRANCH   9  19
HETATM   19  C   UNK N   1      27.214  26.158  -4.340  0.00  0.00     0.005 C 
BRANCH  19  20
HETATM   20  C   UNK N   1      26.298  26.779  -3.293  0.00  0.00     0.000 C 
BRANCH  20  21
HETATM   21  C   UNK N   1      25.852  28.171  -3.721  0.00  0.00     0.000 C 
BRANCH  21  22
HETATM   22  C   UNK N   1      26.361  28.499  -5.116  0.00  0.00     0.000 C 
BRANCH  22  23
HETATM   23  C   UNK N   1      27.400  29.611  -5.095  0.00  0.00     0.000 C 
BRANCH  23  24
HETATM   24  C   UNK N   1      28.241  29.614  -6.363  0.00  0.00     0.000 C 
BRANCH  24  25
HETATM   25  C   UNK N   1      28.048  28.339  -7.173  0.00  0.00     0.001 C 
BRANCH  25  26
HETATM   26  C   UNK N   1      29.025  28.249  -8.337  0.00  0.00     0.012 C 
BRANCH  26  27
HETATM   27  C   UNK N   1      29.709  29.588  -8.620  0.00  0.00     0.108 C 
BRANCH  27  28
HETATM   28  S   UNK N   1      31.546  29.543  -8.700  0.00  0.00     0.014 S 
HETATM   29  O   UNK N   1      31.732  30.882  -7.965  0.00  0.00    -0.258 OA
BRANCH  28  30
HETATM   30  C   UNK N   1      31.723  28.527  -7.198  0.00  0.00     0.109 C 
BRANCH  30  31
HETATM   31  C   UNK N   1      32.496  29.272  -6.130  0.00  0.00     0.019 C 
BRANCH  31  32
HETATM   32  C   UNK N   1      31.621  29.457  -4.899  0.00  0.00     0.090 C 
BRANCH  32  33
HETATM   33  C   UNK N   1      31.848  28.371  -3.846  0.00  0.00     0.339 C 
HETATM   34  F   UNK N   1      32.942  27.600  -4.203  0.00  0.00    -0.196 F 
HETATM   35  F   UNK N   1      32.128  28.998  -2.646  0.00  0.00    -0.196 F 
BRANCH  33  36
HETATM   36  C   UNK N   1      30.618  27.473  -3.657  0.00  0.00     0.454 C 
HETATM   37  F   UNK N   1      29.691  28.128  -2.868  0.00  0.00    -0.165 F 
HETATM   38  F   UNK N   1      30.964  26.286  -3.036  0.00  0.00    -0.165 F 
HETATM   39  F   UNK N   1      30.044  27.193  -4.884  0.00  0.00    -0.165 F 
ENDBRANCH  33  36
ENDBRANCH  32  33
ENDBRANCH  31  32
ENDBRANCH  30  31
ENDBRANCH  28  30
ENDBRANCH  27  28
ENDBRANCH  26  27
ENDBRANCH  25  26
ENDBRANCH  24  25
ENDBRANCH  23  24
ENDBRANCH  22  23
ENDBRANCH  21  22
ENDBRANCH  20  21
ENDBRANCH  19  20
ENDBRANCH   9  19
BRANCH   3  40
HETATM   40  O   UNK N   1      25.698  26.221 -10.366  0.00  0.00    -0.361 OA
HETATM   41  H   UNK N   1      26.120  26.848 -10.918  0.00  0.00     0.217 HD
ENDBRANCH   3  40
BRANCH  15  42
HETATM   42  O   UNK N   1      31.999  22.095  -2.537  0.00  0.00    -0.395 OA
HETATM   43  H   UNK N   1      32.857  22.362  -2.173  0.00  0.00     0.210 HD
ENDBRANCH  15  42
TORSDOF 17
ENDMDL
MODEL 9
REMARK VINA RESULT:      -5.8     12.901     15.978
REMARK  17 active torsions:
REMARK  status: ('A' for Active; 'I' for Inactive)
REMARK    1  A    between atoms: C_3  and  O_18 
REMARK    2  A    between atoms: C_9  and  C_19 
REMARK    3  A    between atoms: C_15  and  O_40 
REMARK    4  A    between atoms: C_19  and  C_20 
REMARK    5  A    between atoms: C_20  and  C_21 
REMARK    6  A    between atoms: C_21  and  C_22 
REMARK    7  A    between atoms: C_22  and  C_23 
REMARK    8  A    between atoms: C_23  and  C_24 
REMARK    9  A    between atoms: C_24  and  C_25 
REMARK   10  A    between atoms: C_25  and  C_26 
REMARK   11  A    between atoms: C_26  and  C_27 
REMARK   12  A    between atoms: C_27  and  S_28 
REMARK   13  A    between atoms: S_28  and  C_30 
REMARK   14  A    between atoms: C_30  and  C_31 
REMARK   15  A    between atoms: C_31  and  C_32 
REMARK   16  A    between atoms: C_32  and  C_33 
REMARK   17  A    between atoms: C_33  and  C_34 
ROOT
HETATM    1  C   UNK N   1      29.143  15.150   2.507  0.00  0.00     0.011 A 
HETATM    2  C   UNK N   1      28.005  14.874   1.746  0.00  0.00     0.037 A 
HETATM    3  C   UNK N   1      26.743  14.915   2.338  0.00  0.00     0.066 A 
HETATM    4  C   UNK N   1      26.618  15.211   3.698  0.00  0.00     0.044 A 
HETATM    5  C   UNK N   1      27.753  15.490   4.467  0.00  0.00    -0.048 A 
HETATM    6  C   UNK N   1      29.031  15.476   3.868  0.00  0.00    -0.047 A 
HETATM    7  C   UNK N   1      30.287  15.800   4.652  0.00  0.00     0.024 C 
HETATM    8  C   UNK N   1      27.586  15.741   5.932  0.00  0.00     0.044 C 
HETATM    9  C   UNK N   1      28.608  16.725   6.466  0.00  0.00    -0.005 C 
HETATM   10  C   UNK N   1      30.039  16.243   6.136  0.00  0.00     0.003 C 
HETATM   11  C   UNK N   1      32.537  17.051   4.566  0.00  0.00     0.013 C 
HETATM   12  C   UNK N   1      31.152  16.835   3.902  0.00  0.00     0.010 C 
HETATM   13  C   UNK N   1      31.133  17.220   6.632  0.00  0.00     0.001 C 
HETATM   14  C   UNK N   1      32.506  16.863   6.094  0.00  0.00    -0.014 C 
HETATM   15  C   UNK N   1      33.349  17.872   6.857  0.00  0.00     0.126 C 
HETATM   16  C   UNK N   1      31.337  17.332   8.134  0.00  0.00     0.008 C 
HETATM   17  C   UNK N   1      32.780  17.846   8.278  0.00  0.00     0.033 C 
HETATM   18  C   UNK N   1      32.909  15.426   6.460  0.00  0.00     0.018 C 
ENDROOT
BRANCH   9  19
HETATM   19  C   UNK N   1      28.257  18.149   6.035  0.00  0.00     0.005 C 
BRANCH  19  20
HETATM   20  C   UNK N   1      28.000  19.016   7.259  0.00  0.00     0.000 C 
BRANCH  20  21
HETATM   21  C   UNK N   1      27.549  20.412   6.849  0.00  0.00     0.000 C 
BRANCH  21  22
HETATM   22  C   UNK N   1      27.582  20.570   5.336  0.00  0.00     0.000 C 
BRANCH  22  23
HETATM   23  C   UNK N   1      26.181  20.659   4.745  0.00  0.00     0.000 C 
BRANCH  23  24
HETATM   24  C   UNK N   1      26.109  19.990   3.381  0.00  0.00     0.000 C 
BRANCH  24  25
HETATM   25  C   UNK N   1      25.498  18.598   3.464  0.00  0.00     0.001 C 
BRANCH  25  26
HETATM   26  C   UNK N   1      24.662  18.417   4.723  0.00  0.00     0.012 C 
BRANCH  26  27
HETATM   27  C   UNK N   1      23.161  18.503   4.436  0.00  0.00     0.108 C 
BRANCH  27  28
HETATM   28  S   UNK N   1      22.184  16.999   4.844  0.00  0.00     0.014 S 
HETATM   29  O   UNK N   1      22.088  16.519   3.386  0.00  0.00    -0.258 OA
BRANCH  28  30
HETATM   30  C   UNK N   1      23.648  15.987   5.234  0.00  0.00     0.109 C 
BRANCH  30  31
HETATM   31  C   UNK N   1      23.557  15.426   6.638  0.00  0.00     0.019 C 
BRANCH  31  32
HETATM   32  C   UNK N   1      22.507  14.325   6.683  0.00  0.00     0.090 C 
BRANCH  32  33
HETATM   33  C   UNK N   1      21.452  14.560   7.764  0.00  0.00     0.339 C 
HETATM   34  F   UNK N   1      21.413  15.906   8.089  0.00  0.00    -0.196 F 
HETATM   35  F   UNK N   1      20.224  14.202   7.241  0.00  0.00    -0.196 F 
BRANCH  33  36
HETATM   36  C   UNK N   1      21.711  13.728   9.026  0.00  0.00     0.454 C 
HETATM   37  F   UNK N   1      21.273  12.433   8.818  0.00  0.00    -0.165 F 
HETATM   38  F   UNK N   1      21.032  14.251  10.112  0.00  0.00    -0.165 F 
HETATM   39  F   UNK N   1      23.065  13.703   9.307  0.00  0.00    -0.165 F 
ENDBRANCH  33  36
ENDBRANCH  32  33
ENDBRANCH  31  32
ENDBRANCH  30  31
ENDBRANCH  28  30
ENDBRANCH  27  28
ENDBRANCH  26  27
ENDBRANCH  25  26
ENDBRANCH  24  25
ENDBRANCH  23  24
ENDBRANCH  22  23
ENDBRANCH  21  22
ENDBRANCH  20  21
ENDBRANCH  19  20
ENDBRANCH   9  19
BRANCH   3  40
HETATM   40  O   UNK N   1      25.648  14.661   1.603  0.00  0.00    -0.361 OA
HETATM   41  H   UNK N   1      25.630  14.869   0.690  0.00  0.00     0.217 HD
ENDBRANCH   3  40
BRANCH  15  42
HETATM   42  O   UNK N   1      34.715  17.579   6.828  0.00  0.00    -0.395 OA
HETATM   43  H   UNK N   1      35.025  16.672   6.976  0.00  0.00     0.210 HD
ENDBRANCH  15  42
TORSDOF 17
ENDMDL
