MODEL 1
REMARK VINA RESULT:      -7.3      0.000      0.000
REMARK  2 active torsions:
REMARK  status: ('A' for Active; 'I' for Inactive)
REMARK    1  A    between atoms: C_6  and  C_1 
REMARK       I    between atoms: N_8  and  C_6 
REMARK    2  A    between atoms: C_15  and  N_8 
ROOT
HETATM    1  C   UNK N   1      34.135  16.993   9.096  0.00  0.00     0.270 C 
HETATM    2  N   UNK N   1      34.333  15.784   9.691  0.00  0.00    -0.351 N 
HETATM    3  O   UNK N   1      34.985  17.870   9.140  0.00  0.00    -0.266 OA
HETATM    4  H   UNK N   1      33.577  15.155   9.657  0.00  0.00     0.163 HD
ENDROOT
BRANCH   1   5
HETATM    5  C   UNK N   1      32.904  17.207   8.316  0.00  0.00     0.128 A 
HETATM    6  N   UNK N   1      31.664  17.271   8.862  0.00  0.00    -0.293 N 
HETATM    7  N   UNK N   1      30.787  17.403   7.874  0.00  0.00    -0.295 N 
ATOM      8  HN  UNK N   1      31.443  17.228   9.857  1.00  0.00     0.187 HD
HETATM    9  C   UNK N   1      29.350  17.486   8.069  0.00  0.00     0.178 C 
HETATM   10  C   UNK N   1      31.443  17.411   6.701  0.00  0.00     0.063 A 
HETATM   11  C   UNK N   1      32.784  17.298   6.940  0.00  0.00     0.026 A 
HETATM   12  C   UNK N   1      30.924  17.492   5.412  0.00  0.00     0.032 A 
HETATM   13  C   UNK N   1      33.714  17.254   5.906  0.00  0.00     0.016 A 
HETATM   14  C   UNK N   1      33.226  17.333   4.587  0.00  0.00     0.001 A 
HETATM   15  C   UNK N   1      31.837  17.450   4.341  0.00  0.00     0.002 A 
ENDBRANCH   1   5
BRANCH   2  16
HETATM   16  C   UNK N   1      35.530  15.313  10.373  0.00  0.00     0.088 C 
HETATM   17  C   UNK N   1      35.341  14.721  11.782  0.00  0.00     0.061 C 
HETATM   18  C   UNK N   1      35.217  13.181  11.851  0.00  0.00     0.225 C 
HETATM   19  C   UNK N   1      36.260  12.687  12.861  0.00  0.00     0.036 C 
HETATM   20  N   UNK N   1      35.475  12.507  10.570  0.00  0.00     0.093 N 
HETATM   21  C   UNK N   1      37.595  12.297  12.195  0.00  0.00     0.004 C 
HETATM   22  C   UNK N   1      37.868  13.099  10.914  0.00  0.00     0.036 C 
HETATM   23  C   UNK N   1      36.679  13.068   9.930  0.00  0.00     0.225 C 
HETATM   24  C   UNK N   1      36.422  14.495   9.430  0.00  0.00     0.061 C 
HETATM   25  C   UNK N   1      34.305  12.535   9.698  0.00  0.00     0.310 C 
ENDBRANCH   2  16
TORSDOF 2
ENDMDL
MODEL 2
REMARK VINA RESULT:      -7.3      2.404      7.687
REMARK  2 active torsions:
REMARK  status: ('A' for Active; 'I' for Inactive)
REMARK    1  A    between atoms: C_6  and  C_1 
REMARK       I    between atoms: N_8  and  C_6 
REMARK    2  A    between atoms: C_15  and  N_8 
ROOT
HETATM    1  C   UNK N   1      35.903  13.896  11.304  0.00  0.00     0.270 C 
HETATM    2  N   UNK N   1      34.974  14.629  10.631  0.00  0.00    -0.351 N 
HETATM    3  O   UNK N   1      37.072  13.871  10.949  0.00  0.00    -0.266 OA
HETATM    4  H   UNK N   1      34.046  14.550  10.949  0.00  0.00     0.163 HD
ENDROOT
BRANCH   1   5
HETATM    5  C   UNK N   1      35.498  13.190  12.531  0.00  0.00     0.128 A 
HETATM    6  N   UNK N   1      34.639  12.141  12.552  0.00  0.00    -0.293 N 
HETATM    7  N   UNK N   1      34.444  11.795  13.820  0.00  0.00    -0.295 N 
ATOM      8  HN  UNK N   1      34.218  11.694  11.738  1.00  0.00     0.187 HD
HETATM    9  C   UNK N   1      33.567  10.718  14.241  0.00  0.00     0.178 C 
HETATM   10  C   UNK N   1      35.155  12.615  14.613  0.00  0.00     0.063 A 
HETATM   11  C   UNK N   1      35.840  13.504  13.835  0.00  0.00     0.026 A 
HETATM   12  C   UNK N   1      35.220  12.641  16.003  0.00  0.00     0.032 A 
HETATM   13  C   UNK N   1      36.646  14.496  14.388  0.00  0.00     0.016 A 
HETATM   14  C   UNK N   1      36.737  14.554  15.792  0.00  0.00     0.001 A 
HETATM   15  C   UNK N   1      36.026  13.631  16.597  0.00  0.00     0.002 A 
ENDBRANCH   1   5
BRANCH   2  16
HETATM   16  C   UNK N   1      35.190  15.515   9.496  0.00  0.00     0.088 C 
HETATM   17  C   UNK N   1      35.015  14.905   8.092  0.00  0.00     0.061 C 
HETATM   18  C   UNK N   1      33.629  15.112   7.440  0.00  0.00     0.225 C 
HETATM   19  C   UNK N   1      33.866  15.732   6.058  0.00  0.00     0.036 C 
HETATM   20  N   UNK N   1      32.746  16.015   8.194  0.00  0.00     0.093 N 
HETATM   21  C   UNK N   1      33.806  17.273   6.079  0.00  0.00     0.004 C 
HETATM   22  C   UNK N   1      34.236  17.858   7.432  0.00  0.00     0.036 C 
HETATM   23  C   UNK N   1      33.488  17.216   8.621  0.00  0.00     0.225 C 
HETATM   24  C   UNK N   1      34.510  16.873   9.711  0.00  0.00     0.061 C 
HETATM   25  C   UNK N   1      32.092  15.330   9.304  0.00  0.00     0.310 C 
ENDBRANCH   2  16
TORSDOF 2
ENDMDL
MODEL 3
REMARK VINA RESULT:      -7.1      1.631      7.105
REMARK  2 active torsions:
REMARK  status: ('A' for Active; 'I' for Inactive)
REMARK    1  A    between atoms: C_6  and  C_1 
REMARK       I    between atoms: N_8  and  C_6 
REMARK    2  A    between atoms: C_15  and  N_8 
ROOT
HETATM    1  C   UNK N   1      35.008  16.395   9.830  0.00  0.00     0.270 C 
HETATM    2  N   UNK N   1      34.044  15.996   8.955  0.00  0.00    -0.351 N 
HETATM    3  O   UNK N   1      35.321  17.572   9.936  0.00  0.00    -0.266 OA
HETATM    4  H   UNK N   1      33.892  15.026   8.890  0.00  0.00     0.163 HD
ENDROOT
BRANCH   1   5
HETATM    5  C   UNK N   1      35.620  15.393  10.718  0.00  0.00     0.128 A 
HETATM    6  N   UNK N   1      35.501  15.405  12.068  0.00  0.00    -0.293 N 
HETATM    7  N   UNK N   1      36.229  14.405  12.554  0.00  0.00    -0.295 N 
ATOM      8  HN  UNK N   1      34.949  16.065  12.616  1.00  0.00     0.187 HD
HETATM    9  C   UNK N   1      36.362  14.111  13.970  0.00  0.00     0.178 C 
HETATM   10  C   UNK N   1      36.823  13.760  11.536  0.00  0.00     0.063 A 
HETATM   11  C   UNK N   1      36.456  14.349  10.359  0.00  0.00     0.026 A 
HETATM   12  C   UNK N   1      37.700  12.679  11.582  0.00  0.00     0.032 A 
HETATM   13  C   UNK N   1      36.941  13.905   9.132  0.00  0.00     0.016 A 
HETATM   14  C   UNK N   1      37.830  12.813   9.139  0.00  0.00     0.001 A 
HETATM   15  C   UNK N   1      38.209  12.204  10.359  0.00  0.00     0.002 A 
ENDBRANCH   1   5
BRANCH   2  16
HETATM   16  C   UNK N   1      33.212  16.834   8.103  0.00  0.00     0.088 C 
HETATM   17  C   UNK N   1      33.865  17.395   6.826  0.00  0.00     0.061 C 
HETATM   18  C   UNK N   1      33.619  16.583   5.534  0.00  0.00     0.225 C 
HETATM   19  C   UNK N   1      33.062  17.554   4.486  0.00  0.00     0.036 C 
HETATM   20  N   UNK N   1      32.649  15.489   5.696  0.00  0.00     0.093 N 
HETATM   21  C   UNK N   1      31.520  17.583   4.462  0.00  0.00     0.004 C 
HETATM   22  C   UNK N   1      30.906  17.262   5.832  0.00  0.00     0.036 C 
HETATM   23  C   UNK N   1      31.468  15.960   6.444  0.00  0.00     0.225 C 
HETATM   24  C   UNK N   1      31.817  16.224   7.914  0.00  0.00     0.061 C 
HETATM   25  C   UNK N   1      33.261  14.306   6.292  0.00  0.00     0.310 C 
ENDBRANCH   2  16
TORSDOF 2
ENDMDL
MODEL 4
REMARK VINA RESULT:      -7.1      2.680      7.948
REMARK  2 active torsions:
REMARK  status: ('A' for Active; 'I' for Inactive)
REMARK    1  A    between atoms: C_6  and  C_1 
REMARK       I    between atoms: N_8  and  C_6 
REMARK    2  A    between atoms: C_15  and  N_8 
ROOT
HETATM    1  C   UNK N   1      34.861  13.082  11.419  0.00  0.00     0.270 C 
HETATM    2  N   UNK N   1      34.131  14.086  10.861  0.00  0.00    -0.351 N 
HETATM    3  O   UNK N   1      35.248  12.133  10.754  0.00  0.00    -0.266 OA
HETATM    4  H   UNK N   1      33.811  14.784  11.477  0.00  0.00     0.163 HD
ENDROOT
BRANCH   1   5
HETATM    5  C   UNK N   1      35.256  13.193  12.833  0.00  0.00     0.128 A 
HETATM    6  N   UNK N   1      36.071  14.163  13.317  0.00  0.00    -0.293 N 
HETATM    7  N   UNK N   1      36.272  13.924  14.608  0.00  0.00    -0.295 N 
ATOM      8  HN  UNK N   1      36.462  14.939  12.784  1.00  0.00     0.187 HD
HETATM    9  C   UNK N   1      37.110  14.744  15.465  0.00  0.00     0.178 C 
HETATM   10  C   UNK N   1      35.607  12.810  14.957  0.00  0.00     0.063 A 
HETATM   11  C   UNK N   1      34.947  12.323  13.865  0.00  0.00     0.026 A 
HETATM   12  C   UNK N   1      35.565  12.172  16.194  0.00  0.00     0.032 A 
HETATM   13  C   UNK N   1      34.191  11.155  13.922  0.00  0.00     0.016 A 
HETATM   14  C   UNK N   1      34.124  10.482  15.157  0.00  0.00     0.001 A 
HETATM   15  C   UNK N   1      34.809  10.988  16.289  0.00  0.00     0.002 A 
ENDBRANCH   1   5
BRANCH   2  16
HETATM   16  C   UNK N   1      33.766  14.250   9.460  0.00  0.00     0.088 C 
HETATM   17  C   UNK N   1      32.570  15.171   9.156  0.00  0.00     0.061 C 
HETATM   18  C   UNK N   1      32.924  16.631   8.789  0.00  0.00     0.225 C 
HETATM   19  C   UNK N   1      32.234  16.943   7.455  0.00  0.00     0.036 C 
HETATM   20  N   UNK N   1      34.365  16.867   8.617  0.00  0.00     0.093 N 
HETATM   21  C   UNK N   1      33.146  16.682   6.239  0.00  0.00     0.004 C 
HETATM   22  C   UNK N   1      34.170  15.569   6.502  0.00  0.00     0.036 C 
HETATM   23  C   UNK N   1      34.967  15.792   7.806  0.00  0.00     0.225 C 
HETATM   24  C   UNK N   1      35.006  14.471   8.584  0.00  0.00     0.061 C 
HETATM   25  C   UNK N   1      35.040  17.054   9.898  0.00  0.00     0.310 C 
ENDBRANCH   2  16
TORSDOF 2
ENDMDL
MODEL 5
REMARK VINA RESULT:      -6.9      3.202      5.301
REMARK  2 active torsions:
REMARK  status: ('A' for Active; 'I' for Inactive)
REMARK    1  A    between atoms: C_6  and  C_1 
REMARK       I    between atoms: N_8  and  C_6 
REMARK    2  A    between atoms: C_15  and  N_8 
ROOT
HETATM    1  C   UNK N   1      29.234  17.302   7.653  0.00  0.00     0.270 C 
HETATM    2  N   UNK N   1      30.576  17.185   7.457  0.00  0.00    -0.351 N 
HETATM    3  O   UNK N   1      28.749  17.242   8.773  0.00  0.00    -0.266 OA
HETATM    4  H   UNK N   1      30.879  17.187   6.520  0.00  0.00     0.163 HD
ENDROOT
BRANCH   1   5
HETATM    5  C   UNK N   1      28.369  17.587   6.496  0.00  0.00     0.128 A 
HETATM    6  N   UNK N   1      28.068  16.680   5.534  0.00  0.00    -0.293 N 
HETATM    7  N   UNK N   1      27.328  17.288   4.614  0.00  0.00    -0.295 N 
ATOM      8  HN  UNK N   1      28.358  15.703   5.519  1.00  0.00     0.187 HD
HETATM    9  C   UNK N   1      26.828  16.639   3.415  0.00  0.00     0.178 C 
HETATM   10  C   UNK N   1      27.160  18.574   4.965  0.00  0.00     0.063 A 
HETATM   11  C   UNK N   1      27.795  18.799   6.153  0.00  0.00     0.026 A 
HETATM   12  C   UNK N   1      26.488  19.584   4.280  0.00  0.00     0.032 A 
HETATM   13  C   UNK N   1      27.813  20.056   6.751  0.00  0.00     0.016 A 
HETATM   14  C   UNK N   1      27.143  21.103   6.088  0.00  0.00     0.001 A 
HETATM   15  C   UNK N   1      26.485  20.868   4.857  0.00  0.00     0.002 A 
ENDBRANCH   1   5
BRANCH   2  16
HETATM   16  C   UNK N   1      31.617  17.056   8.467  0.00  0.00     0.088 C 
HETATM   17  C   UNK N   1      32.046  15.626   8.847  0.00  0.00     0.061 C 
HETATM   18  C   UNK N   1      33.293  15.084   8.112  0.00  0.00     0.225 C 
HETATM   19  C   UNK N   1      34.277  14.601   9.184  0.00  0.00     0.036 C 
HETATM   20  N   UNK N   1      33.981  16.088   7.287  0.00  0.00     0.093 N 
HETATM   21  C   UNK N   1      35.297  15.685   9.585  0.00  0.00     0.004 C 
HETATM   22  C   UNK N   1      34.736  17.106   9.430  0.00  0.00     0.036 C 
HETATM   23  C   UNK N   1      34.123  17.352   8.034  0.00  0.00     0.225 C 
HETATM   24  C   UNK N   1      32.765  18.041   8.213  0.00  0.00     0.061 C 
HETATM   25  C   UNK N   1      33.329  16.266   5.994  0.00  0.00     0.310 C 
ENDBRANCH   2  16
TORSDOF 2
ENDMDL
MODEL 6
REMARK VINA RESULT:      -6.9      2.267      7.465
REMARK  2 active torsions:
REMARK  status: ('A' for Active; 'I' for Inactive)
REMARK    1  A    between atoms: C_6  and  C_1 
REMARK       I    between atoms: N_8  and  C_6 
REMARK    2  A    between atoms: C_15  and  N_8 
ROOT
HETATM    1  C   UNK N   1      36.209  14.639  10.878  0.00  0.00     0.270 C 
HETATM    2  N   UNK N   1      35.139  15.246  10.295  0.00  0.00    -0.351 N 
HETATM    3  O   UNK N   1      37.278  14.540  10.294  0.00  0.00    -0.266 OA
HETATM    4  H   UNK N   1      34.300  15.234  10.810  0.00  0.00     0.163 HD
ENDROOT
BRANCH   1   5
HETATM    5  C   UNK N   1      36.089  14.170  12.268  0.00  0.00     0.128 A 
HETATM    6  N   UNK N   1      36.662  14.791  13.329  0.00  0.00    -0.293 N 
HETATM    7  N   UNK N   1      36.411  14.068  14.414  0.00  0.00    -0.295 N 
ATOM      8  HN  UNK N   1      37.193  15.662  13.299  1.00  0.00     0.187 HD
HETATM    9  C   UNK N   1      36.881  14.409  15.744  0.00  0.00     0.178 C 
HETATM   10  C   UNK N   1      35.695  12.985  14.064  0.00  0.00     0.063 A 
HETATM   11  C   UNK N   1      35.465  13.019  12.718  0.00  0.00     0.026 A 
HETATM   12  C   UNK N   1      35.245  11.942  14.868  0.00  0.00     0.032 A 
HETATM   13  C   UNK N   1      34.766  12.007  12.066  0.00  0.00     0.016 A 
HETATM   14  C   UNK N   1      34.294  10.933  12.846  0.00  0.00     0.001 A 
HETATM   15  C   UNK N   1      34.534  10.901  14.241  0.00  0.00     0.002 A 
ENDBRANCH   1   5
BRANCH   2  16
HETATM   16  C   UNK N   1      35.087  15.912   9.001  0.00  0.00     0.088 C 
HETATM   17  C   UNK N   1      34.841  15.020   7.769  0.00  0.00     0.061 C 
HETATM   18  C   UNK N   1      33.373  14.922   7.295  0.00  0.00     0.225 C 
HETATM   19  C   UNK N   1      33.352  15.282   5.805  0.00  0.00     0.036 C 
HETATM   20  N   UNK N   1      32.461  15.841   7.993  0.00  0.00     0.093 N 
HETATM   21  C   UNK N   1      33.068  16.778   5.558  0.00  0.00     0.004 C 
HETATM   22  C   UNK N   1      33.562  17.667   6.709  0.00  0.00     0.036 C 
HETATM   23  C   UNK N   1      33.062  17.184   8.088  0.00  0.00     0.225 C 
HETATM   24  C   UNK N   1      34.243  17.191   9.065  0.00  0.00     0.061 C 
HETATM   25  C   UNK N   1      32.049  15.313   9.290  0.00  0.00     0.310 C 
ENDBRANCH   2  16
TORSDOF 2
ENDMDL
MODEL 7
REMARK VINA RESULT:      -6.8      1.690      7.539
REMARK  2 active torsions:
REMARK  status: ('A' for Active; 'I' for Inactive)
REMARK    1  A    between atoms: C_6  and  C_1 
REMARK       I    between atoms: N_8  and  C_6 
REMARK    2  A    between atoms: C_15  and  N_8 
ROOT
HETATM    1  C   UNK N   1      35.377  15.987   9.856  0.00  0.00     0.270 C 
HETATM    2  N   UNK N   1      34.795  15.831   8.635  0.00  0.00    -0.351 N 
HETATM    3  O   UNK N   1      35.105  16.939  10.572  0.00  0.00    -0.266 OA
HETATM    4  H   UNK N   1      35.111  15.068   8.099  0.00  0.00     0.163 HD
ENDROOT
BRANCH   1   5
HETATM    5  C   UNK N   1      36.287  14.940  10.348  0.00  0.00     0.128 A 
HETATM    6  N   UNK N   1      37.406  14.540   9.693  0.00  0.00    -0.293 N 
HETATM    7  N   UNK N   1      37.947  13.540  10.379  0.00  0.00    -0.295 N 
ATOM      8  HN  UNK N   1      37.768  14.938   8.827  1.00  0.00     0.187 HD
HETATM    9  C   UNK N   1      39.153  12.838   9.975  0.00  0.00     0.178 C 
HETATM   10  C   UNK N   1      37.187  13.283  11.456  0.00  0.00     0.063 A 
HETATM   11  C   UNK N   1      36.134  14.153  11.477  0.00  0.00     0.026 A 
HETATM   12  C   UNK N   1      37.355  12.300  12.427  0.00  0.00     0.032 A 
HETATM   13  C   UNK N   1      35.160  14.106  12.470  0.00  0.00     0.016 A 
HETATM   14  C   UNK N   1      35.297  13.124  13.471  0.00  0.00     0.001 A 
HETATM   15  C   UNK N   1      36.390  12.224  13.448  0.00  0.00     0.002 A 
ENDBRANCH   1   5
BRANCH   2  16
HETATM   16  C   UNK N   1      33.761  16.658   8.028  0.00  0.00     0.088 C 
HETATM   17  C   UNK N   1      34.096  17.307   6.672  0.00  0.00     0.061 C 
HETATM   18  C   UNK N   1      33.609  16.537   5.423  0.00  0.00     0.225 C 
HETATM   19  C   UNK N   1      32.796  17.520   4.572  0.00  0.00     0.036 C 
HETATM   20  N   UNK N   1      32.746  15.387   5.732  0.00  0.00     0.093 N 
HETATM   21  C   UNK N   1      31.286  17.466   4.883  0.00  0.00     0.004 C 
HETATM   22  C   UNK N   1      30.999  17.056   6.334  0.00  0.00     0.036 C 
HETATM   23  C   UNK N   1      31.738  15.762   6.741  0.00  0.00     0.225 C 
HETATM   24  C   UNK N   1      32.386  15.982   8.113  0.00  0.00     0.061 C 
HETATM   25  C   UNK N   1      33.524  14.214   6.119  0.00  0.00     0.310 C 
ENDBRANCH   2  16
TORSDOF 2
ENDMDL
MODEL 8
REMARK VINA RESULT:      -6.8      1.321      2.512
REMARK  2 active torsions:
REMARK  status: ('A' for Active; 'I' for Inactive)
REMARK    1  A    between atoms: C_6  and  C_1 
REMARK       I    between atoms: N_8  and  C_6 
REMARK    2  A    between atoms: C_15  and  N_8 
ROOT
HETATM    1  C   UNK N   1      33.313  17.172   8.629  0.00  0.00     0.270 C 
HETATM    2  N   UNK N   1      33.618  16.006   9.263  0.00  0.00    -0.351 N 
HETATM    3  O   UNK N   1      34.065  18.134   8.673  0.00  0.00    -0.266 OA
HETATM    4  H   UNK N   1      32.934  15.299   9.225  0.00  0.00     0.163 HD
ENDROOT
BRANCH   1   5
HETATM    5  C   UNK N   1      32.092  17.235   7.809  0.00  0.00     0.128 A 
HETATM    6  N   UNK N   1      32.056  16.960   6.481  0.00  0.00    -0.293 N 
HETATM    7  N   UNK N   1      30.820  17.181   6.049  0.00  0.00    -0.295 N 
ATOM      8  HN  UNK N   1      32.840  16.639   5.914  1.00  0.00     0.187 HD
HETATM    9  C   UNK N   1      30.400  17.012   4.670  0.00  0.00     0.178 C 
HETATM   10  C   UNK N   1      30.065  17.606   7.077  0.00  0.00     0.063 A 
HETATM   11  C   UNK N   1      30.831  17.645   8.207  0.00  0.00     0.026 A 
HETATM   12  C   UNK N   1      28.726  17.988   7.075  0.00  0.00     0.032 A 
HETATM   13  C   UNK N   1      30.319  18.073   9.429  0.00  0.00     0.016 A 
HETATM   14  C   UNK N   1      28.967  18.468   9.466  0.00  0.00     0.001 A 
HETATM   15  C   UNK N   1      28.174  18.427   8.293  0.00  0.00     0.002 A 
ENDBRANCH   1   5
BRANCH   2  16
HETATM   16  C   UNK N   1      34.837  15.680   9.991  0.00  0.00     0.088 C 
HETATM   17  C   UNK N   1      34.666  15.097  11.407  0.00  0.00     0.061 C 
HETATM   18  C   UNK N   1      34.708  13.555  11.506  0.00  0.00     0.225 C 
HETATM   19  C   UNK N   1      35.763  13.196  12.559  0.00  0.00     0.036 C 
HETATM   20  N   UNK N   1      35.079  12.889  10.249  0.00  0.00     0.093 N 
HETATM   21  C   UNK N   1      37.154  12.942  11.942  0.00  0.00     0.004 C 
HETATM   22  C   UNK N   1      37.381  13.745  10.654  0.00  0.00     0.036 C 
HETATM   23  C   UNK N   1      36.235  13.566   9.634  0.00  0.00     0.225 C 
HETATM   24  C   UNK N   1      35.843  14.947   9.095  0.00  0.00     0.061 C 
HETATM   25  C   UNK N   1      33.942  12.773   9.341  0.00  0.00     0.310 C 
ENDBRANCH   2  16
TORSDOF 2
ENDMDL
MODEL 9
REMARK VINA RESULT:      -6.6     14.088     17.907
REMARK  2 active torsions:
REMARK  status: ('A' for Active; 'I' for Inactive)
REMARK    1  A    between atoms: C_6  and  C_1 
REMARK       I    between atoms: N_8  and  C_6 
REMARK    2  A    between atoms: C_15  and  N_8 
ROOT
HETATM    1  C   UNK N   1      29.520  23.218  -3.599  0.00  0.00     0.270 C 
HETATM    2  N   UNK N   1      29.180  24.366  -4.247  0.00  0.00    -0.351 N 
HETATM    3  O   UNK N   1      29.181  23.017  -2.442  0.00  0.00    -0.266 OA
HETATM    4  H   UNK N   1      29.539  24.473  -5.157  0.00  0.00     0.163 HD
ENDROOT
BRANCH   1   5
HETATM    5  C   UNK N   1      30.237  22.168  -4.343  0.00  0.00     0.128 A 
HETATM    6  N   UNK N   1      29.758  21.574  -5.464  0.00  0.00    -0.293 N 
HETATM    7  N   UNK N   1      30.622  20.634  -5.831  0.00  0.00    -0.295 N 
ATOM      8  HN  UNK N   1      28.888  21.808  -5.942  1.00  0.00     0.187 HD
HETATM    9  C   UNK N   1      30.440  19.770  -6.983  0.00  0.00     0.178 C 
HETATM   10  C   UNK N   1      31.641  20.608  -4.955  0.00  0.00     0.063 A 
HETATM   11  C   UNK N   1      31.438  21.568  -4.006  0.00  0.00     0.026 A 
HETATM   12  C   UNK N   1      32.746  19.761  -4.929  0.00  0.00     0.032 A 
HETATM   13  C   UNK N   1      32.324  21.757  -2.949  0.00  0.00     0.016 A 
HETATM   14  C   UNK N   1      33.455  20.919  -2.889  0.00  0.00     0.001 A 
HETATM   15  C   UNK N   1      33.664  19.924  -3.875  0.00  0.00     0.002 A 
ENDBRANCH   1   5
BRANCH   2  16
HETATM   16  C   UNK N   1      28.349  25.456  -3.753  0.00  0.00     0.088 C 
HETATM   17  C   UNK N   1      28.730  26.879  -4.201  0.00  0.00     0.061 C 
HETATM   18  C   UNK N   1      27.962  27.424  -5.427  0.00  0.00     0.225 C 
HETATM   19  C   UNK N   1      27.365  28.777  -5.025  0.00  0.00     0.036 C 
HETATM   20  N   UNK N   1      26.860  26.557  -5.871  0.00  0.00     0.093 N 
HETATM   21  C   UNK N   1      25.922  28.655  -4.493  0.00  0.00     0.004 C 
HETATM   22  C   UNK N   1      25.656  27.300  -3.822  0.00  0.00     0.036 C 
HETATM   23  C   UNK N   1      26.067  26.106  -4.712  0.00  0.00     0.225 C 
HETATM   24  C   UNK N   1      26.858  25.110  -3.857  0.00  0.00     0.061 C 
HETATM   25  C   UNK N   1      27.338  25.451  -6.694  0.00  0.00     0.310 C 
ENDBRANCH   2  16
TORSDOF 2
ENDMDL
