MODEL 1
REMARK VINA RESULT:      -7.7      0.000      0.000
REMARK  7 active torsions:
REMARK  status: ('A' for Active; 'I' for Inactive)
REMARK    1  A    between atoms: C_14  and  C_1 
REMARK       I    between atoms: C_1  and  N_32 
REMARK    2  A    between atoms: C_5  and  N_2 
REMARK    3  A    between atoms: C_4  and  O_9 
REMARK    4  A    between atoms: C_7  and  O_13 
REMARK    5  A    between atoms: C_10  and  O_16 
REMARK    6  A    between atoms: C_17  and  O_20 
REMARK    7  A    between atoms: C_24  and  O_28 
ROOT
HETATM    1  C   UNK N   1      34.378  15.582   8.070  0.00  0.00     0.075 C 
HETATM    2  C   UNK N   1      33.512  14.834   9.098  0.00  0.00     0.177 C 
HETATM    3  C   UNK N   1      35.707  14.808   7.764  0.00  0.00     0.286 C 
HETATM    4  C   UNK N   1      33.554  15.869   6.825  0.00  0.00     0.023 C 
HETATM    5  C   UNK N   1      32.193  15.553   9.363  0.00  0.00     0.097 C 
HETATM    6  C   UNK N   1      34.370  14.638  10.333  0.00  0.00     0.208 C 
HETATM    7  C   UNK N   1      36.346  14.114   8.958  0.00  0.00     0.096 C 
HETATM    8  C   UNK N   1      32.300  16.698   7.116  0.00  0.00     0.059 C 
HETATM    9  C   UNK N   1      31.640  16.395   8.443  0.00  0.00     0.032 C 
HETATM   10  C   UNK N   1      35.733  14.045  10.176  0.00  0.00     0.112 C 
HETATM   11  O   UNK N   1      33.949  14.931  11.442  0.00  0.00    -0.288 OA
HETATM   12  C   UNK N   1      31.308  16.495   5.961  0.00  0.00     0.162 C 
HETATM   13  C   UNK N   1      30.330  17.056   8.677  0.00  0.00     0.194 C 
HETATM   14  C   UNK N   1      29.971  17.210   6.179  0.00  0.00     0.010 A 
HETATM   15  C   UNK N   1      29.522  17.502   7.501  0.00  0.00     0.058 A 
HETATM   16  O   UNK N   1      29.879  17.151   9.810  0.00  0.00    -0.287 OA
HETATM   17  C   UNK N   1      29.124  17.530   5.082  0.00  0.00     0.044 A 
HETATM   18  C   UNK N   1      28.272  18.143   7.685  0.00  0.00     0.080 A 
HETATM   19  C   UNK N   1      27.904  18.163   5.301  0.00  0.00     0.027 A 
HETATM   20 Cl   UNK N   1      29.516  17.131   3.412  0.00  0.00    -0.084 Cl
HETATM   21  C   UNK N   1      27.486  18.477   6.587  0.00  0.00     0.039 A 
ENDROOT
BRANCH  10  22
HETATM   22  C   UNK N   1      36.394  13.402  11.366  0.00  0.00     0.255 C 
HETATM   23  O   UNK N   1      36.608  12.201  11.370  0.00  0.00    -0.268 OA
HETATM   24  N   UNK N   1      36.796  14.134  12.426  0.00  0.00    -0.366 N 
HETATM   25  H   UNK N   1      36.728  15.116  12.399  0.00  0.00     0.159 HD
HETATM   26  H   UNK N   1      37.156  13.687  13.226  0.00  0.00     0.159 HD
ENDBRANCH  10  22
BRANCH   7  27
HETATM   27  O   UNK N   1      37.575  13.587   8.780  0.00  0.00    -0.362 OA
HETATM   28  H   UNK N   1      38.270  13.808   9.369  0.00  0.00     0.217 HD
ENDBRANCH   7  27
BRANCH   3  29
HETATM   29  N   UNK N   1      35.779  13.956   6.561  0.00  0.00     0.091 NA
HETATM   30  C   UNK N   1      35.773  12.556   6.949  0.00  0.00     0.310 C 
HETATM   31  C   UNK N   1      36.921  14.206   5.695  0.00  0.00     0.310 C 
ENDBRANCH   3  29
BRANCH   2  32
HETATM   32  O   UNK N   1      33.180  13.563   8.626  0.00  0.00    -0.374 OA
HETATM   33  H   UNK N   1      32.789  12.681   8.529  0.00  0.00     0.211 HD
ENDBRANCH   2  32
BRANCH   5  34
HETATM   34  O   UNK N   1      31.516  15.266  10.497  0.00  0.00    -0.361 OA
HETATM   35  H   UNK N   1      31.234  15.923  11.102  0.00  0.00     0.217 HD
ENDBRANCH   5  34
BRANCH  12  36
HETATM   36  O   UNK N   1      31.932  16.930   4.787  0.00  0.00    -0.390 OA
HETATM   37  H   UNK N   1      31.496  17.454   4.096  0.00  0.00     0.210 HD
ENDBRANCH  12  36
BRANCH  18  38
HETATM   38  O   UNK N   1      27.811  18.429   8.915  0.00  0.00    -0.360 OA
HETATM   39  H   UNK N   1      28.399  18.535   9.637  0.00  0.00     0.217 HD
ENDBRANCH  18  38
TORSDOF 7
ENDMDL
MODEL 2
REMARK VINA RESULT:      -7.5      3.833      5.145
REMARK  7 active torsions:
REMARK  status: ('A' for Active; 'I' for Inactive)
REMARK    1  A    between atoms: C_14  and  C_1 
REMARK       I    between atoms: C_1  and  N_32 
REMARK    2  A    between atoms: C_5  and  N_2 
REMARK    3  A    between atoms: C_4  and  O_9 
REMARK    4  A    between atoms: C_7  and  O_13 
REMARK    5  A    between atoms: C_10  and  O_16 
REMARK    6  A    between atoms: C_17  and  O_20 
REMARK    7  A    between atoms: C_24  and  O_28 
ROOT
HETATM    1  C   UNK N   1      36.352  12.889  10.881  0.00  0.00     0.075 C 
HETATM    2  C   UNK N   1      35.408  13.938  11.494  0.00  0.00     0.177 C 
HETATM    3  C   UNK N   1      36.625  11.708  11.876  0.00  0.00     0.286 C 
HETATM    4  C   UNK N   1      35.797  12.427   9.543  0.00  0.00     0.023 C 
HETATM    5  C   UNK N   1      35.094  15.065  10.515  0.00  0.00     0.097 C 
HETATM    6  C   UNK N   1      36.050  14.402  12.787  0.00  0.00     0.208 C 
HETATM    7  C   UNK N   1      36.753  12.106  13.339  0.00  0.00     0.096 C 
HETATM    8  C   UNK N   1      35.611  13.572   8.545  0.00  0.00     0.059 C 
HETATM    9  C   UNK N   1      35.178  14.883   9.165  0.00  0.00     0.032 C 
HETATM   10  C   UNK N   1      36.503  13.376  13.775  0.00  0.00     0.112 C 
HETATM   11  O   UNK N   1      36.171  15.592  13.035  0.00  0.00    -0.288 OA
HETATM   12  C   UNK N   1      34.604  13.123   7.476  0.00  0.00     0.162 C 
HETATM   13  C   UNK N   1      34.823  15.963   8.208  0.00  0.00     0.194 C 
HETATM   14  C   UNK N   1      34.267  14.220   6.462  0.00  0.00     0.010 A 
HETATM   15  C   UNK N   1      34.406  15.594   6.820  0.00  0.00     0.058 A 
HETATM   16  O   UNK N   1      34.785  17.128   8.577  0.00  0.00    -0.287 OA
HETATM   17  C   UNK N   1      33.746  13.897   5.178  0.00  0.00     0.044 A 
HETATM   18  C   UNK N   1      34.068  16.597   5.878  0.00  0.00     0.080 A 
HETATM   19  C   UNK N   1      33.428  14.910   4.277  0.00  0.00     0.027 A 
HETATM   20 Cl   UNK N   1      33.433  12.246   4.652  0.00  0.00    -0.084 Cl
HETATM   21  C   UNK N   1      33.597  16.245   4.618  0.00  0.00     0.039 A 
ENDROOT
BRANCH  10  22
HETATM   22  C   UNK N   1      36.681  13.773  15.216  0.00  0.00     0.255 C 
HETATM   23  O   UNK N   1      36.160  13.115  16.100  0.00  0.00    -0.268 OA
HETATM   24  N   UNK N   1      37.445  14.832  15.562  0.00  0.00    -0.366 N 
HETATM   25  H   UNK N   1      37.958  15.313  14.873  0.00  0.00     0.159 HD
HETATM   26  H   UNK N   1      37.488  15.122  16.501  0.00  0.00     0.159 HD
ENDBRANCH  10  22
BRANCH   7  27
HETATM   27  O   UNK N   1      37.161  11.154  14.203  0.00  0.00    -0.362 OA
HETATM   28  H   UNK N   1      36.706  10.336  14.249  0.00  0.00     0.217 HD
ENDBRANCH   7  27
BRANCH   3  29
HETATM   29  N   UNK N   1      35.850  10.460  11.736  0.00  0.00     0.091 NA
HETATM   30  C   UNK N   1      34.867  10.370  12.803  0.00  0.00     0.310 C 
HETATM   31  C   UNK N   1      36.643   9.240  11.713  0.00  0.00     0.310 C 
ENDBRANCH   3  29
BRANCH   2  32
HETATM   32  O   UNK N   1      34.184  13.357  11.831  0.00  0.00    -0.374 OA
HETATM   33  H   UNK N   1      33.504  12.756  12.173  0.00  0.00     0.211 HD
ENDBRANCH   2  32
BRANCH   5  34
HETATM   34  O   UNK N   1      34.629  16.235  11.003  0.00  0.00    -0.361 OA
HETATM   35  H   UNK N   1      34.571  17.016  10.488  0.00  0.00     0.217 HD
ENDBRANCH   5  34
BRANCH  12  36
HETATM   36  O   UNK N   1      35.134  11.993   6.844  0.00  0.00    -0.390 OA
HETATM   37  H   UNK N   1      35.978  11.978   6.365  0.00  0.00     0.210 HD
ENDBRANCH  12  36
BRANCH  18  38
HETATM   38  O   UNK N   1      34.178  17.902   6.180  0.00  0.00    -0.360 OA
HETATM   39  H   UNK N   1      34.778  18.453   5.718  0.00  0.00     0.217 HD
ENDBRANCH  18  38
TORSDOF 7
ENDMDL
MODEL 3
REMARK VINA RESULT:      -7.4      6.815     10.513
REMARK  7 active torsions:
REMARK  status: ('A' for Active; 'I' for Inactive)
REMARK    1  A    between atoms: C_14  and  C_1 
REMARK       I    between atoms: C_1  and  N_32 
REMARK    2  A    between atoms: C_5  and  N_2 
REMARK    3  A    between atoms: C_4  and  O_9 
REMARK    4  A    between atoms: C_7  and  O_13 
REMARK    5  A    between atoms: C_10  and  O_16 
REMARK    6  A    between atoms: C_17  and  O_20 
REMARK    7  A    between atoms: C_24  and  O_28 
ROOT
HETATM    1  C   UNK N   1      35.470  11.763  13.243  0.00  0.00     0.075 C 
HETATM    2  C   UNK N   1      36.413  12.874  13.735  0.00  0.00     0.177 C 
HETATM    3  C   UNK N   1      35.769  11.370  11.754  0.00  0.00     0.286 C 
HETATM    4  C   UNK N   1      35.535  10.581  14.197  0.00  0.00     0.023 C 
HETATM    5  C   UNK N   1      36.164  13.227  15.198  0.00  0.00     0.097 C 
HETATM    6  C   UNK N   1      36.251  14.040  12.780  0.00  0.00     0.208 C 
HETATM    7  C   UNK N   1      36.150  12.525  10.840  0.00  0.00     0.096 C 
HETATM    8  C   UNK N   1      35.160  10.952  15.634  0.00  0.00     0.059 C 
HETATM    9  C   UNK N   1      35.601  12.334  16.063  0.00  0.00     0.032 C 
HETATM   10  C   UNK N   1      36.361  13.790  11.311  0.00  0.00     0.112 C 
HETATM   11  O   UNK N   1      36.062  15.173  13.200  0.00  0.00    -0.288 OA
HETATM   12  C   UNK N   1      35.739   9.884  16.575  0.00  0.00     0.162 C 
HETATM   13  C   UNK N   1      35.406  12.656  17.500  0.00  0.00     0.194 C 
HETATM   14  C   UNK N   1      35.502  10.192  18.057  0.00  0.00     0.010 A 
HETATM   15  C   UNK N   1      35.313  11.538  18.488  0.00  0.00     0.058 A 
HETATM   16  O   UNK N   1      35.412  13.819  17.880  0.00  0.00    -0.287 OA
HETATM   17  C   UNK N   1      35.537   9.159  19.034  0.00  0.00     0.044 A 
HETATM   18  C   UNK N   1      35.119  11.807  19.866  0.00  0.00     0.080 A 
HETATM   19  C   UNK N   1      35.338   9.460  20.379  0.00  0.00     0.027 A 
HETATM   20 Cl   UNK N   1      35.863   7.472  18.644  0.00  0.00    -0.084 Cl
HETATM   21  C   UNK N   1      35.120  10.767  20.790  0.00  0.00     0.039 A 
ENDROOT
BRANCH  10  22
HETATM   22  C   UNK N   1      36.688  14.938  10.393  0.00  0.00     0.255 C 
HETATM   23  O   UNK N   1      37.718  14.923   9.741  0.00  0.00    -0.268 OA
HETATM   24  N   UNK N   1      35.841  15.978  10.243  0.00  0.00    -0.366 N 
HETATM   25  H   UNK N   1      34.959  15.960  10.679  0.00  0.00     0.159 HD
HETATM   26  H   UNK N   1      36.107  16.754   9.698  0.00  0.00     0.159 HD
ENDBRANCH  10  22
BRANCH   7  27
HETATM   27  O   UNK N   1      36.244  12.262   9.520  0.00  0.00    -0.362 OA
HETATM   28  H   UNK N   1      35.544  12.498   8.944  0.00  0.00     0.217 HD
ENDBRANCH   7  27
BRANCH   3  29
HETATM   29  N   UNK N   1      36.605  10.185  11.481  0.00  0.00     0.091 NA
HETATM   30  C   UNK N   1      37.902  10.604  10.977  0.00  0.00     0.310 C 
HETATM   31  C   UNK N   1      36.025   9.220  10.560  0.00  0.00     0.310 C 
ENDBRANCH   3  29
BRANCH   2  32
HETATM   32  O   UNK N   1      37.743  12.459  13.650  0.00  0.00    -0.374 OA
HETATM   33  H   UNK N   1      38.601  12.046  13.835  0.00  0.00     0.211 HD
ENDBRANCH   2  32
BRANCH   5  34
HETATM   34  O   UNK N   1      36.606  14.417  15.660  0.00  0.00    -0.361 OA
HETATM   35  H   UNK N   1      37.516  14.626  15.741  0.00  0.00     0.217 HD
ENDBRANCH   5  34
BRANCH  12  36
HETATM   36  O   UNK N   1      35.177   8.655  16.215  0.00  0.00    -0.390 OA
HETATM   37  H   UNK N   1      35.679   7.830  16.119  0.00  0.00     0.210 HD
ENDBRANCH  12  36
BRANCH  18  38
HETATM   38  O   UNK N   1      34.943  13.063  20.312  0.00  0.00    -0.360 OA
HETATM   39  H   UNK N   1      34.464  13.690  19.808  0.00  0.00     0.217 HD
ENDBRANCH  18  38
TORSDOF 7
ENDMDL
MODEL 4
REMARK VINA RESULT:      -7.3      2.904      4.052
REMARK  7 active torsions:
REMARK  status: ('A' for Active; 'I' for Inactive)
REMARK    1  A    between atoms: C_14  and  C_1 
REMARK       I    between atoms: C_1  and  N_32 
REMARK    2  A    between atoms: C_5  and  N_2 
REMARK    3  A    between atoms: C_4  and  O_9 
REMARK    4  A    between atoms: C_7  and  O_13 
REMARK    5  A    between atoms: C_10  and  O_16 
REMARK    6  A    between atoms: C_17  and  O_20 
REMARK    7  A    between atoms: C_24  and  O_28 
ROOT
HETATM    1  C   UNK N   1      31.877  17.008   5.581  0.00  0.00     0.075 C 
HETATM    2  C   UNK N   1      31.257  17.038   6.989  0.00  0.00     0.177 C 
HETATM    3  C   UNK N   1      33.265  16.278   5.577  0.00  0.00     0.286 C 
HETATM    4  C   UNK N   1      30.883  16.405   4.601  0.00  0.00     0.023 C 
HETATM    5  C   UNK N   1      29.883  17.700   6.993  0.00  0.00     0.097 C 
HETATM    6  C   UNK N   1      32.269  17.706   7.898  0.00  0.00     0.208 C 
HETATM    7  C   UNK N   1      34.133  16.525   6.801  0.00  0.00     0.096 C 
HETATM    8  C   UNK N   1      29.558  17.171   4.545  0.00  0.00     0.059 C 
HETATM    9  C   UNK N   1      29.107  17.744   5.871  0.00  0.00     0.032 C 
HETATM   10  C   UNK N   1      33.680  17.212   7.891  0.00  0.00     0.112 C 
HETATM   11  O   UNK N   1      31.938  18.613   8.646  0.00  0.00    -0.288 OA
HETATM   12  C   UNK N   1      28.484  16.238   3.967  0.00  0.00     0.162 C 
HETATM   13  C   UNK N   1      27.747  18.342   5.885  0.00  0.00     0.194 C 
HETATM   14  C   UNK N   1      27.088  16.866   3.941  0.00  0.00     0.010 A 
HETATM   15  C   UNK N   1      26.752  17.907   4.858  0.00  0.00     0.058 A 
HETATM   16  O   UNK N   1      27.418  19.110   6.779  0.00  0.00    -0.287 OA
HETATM   17  C   UNK N   1      26.082  16.381   3.059  0.00  0.00     0.044 A 
HETATM   18  C   UNK N   1      25.448  18.460   4.835  0.00  0.00     0.080 A 
HETATM   19  C   UNK N   1      24.813  16.953   3.062  0.00  0.00     0.027 A 
HETATM   20 Cl   UNK N   1      26.339  15.036   1.951  0.00  0.00    -0.084 Cl
HETATM   21  C   UNK N   1      24.501  17.988   3.933  0.00  0.00     0.039 A 
ENDROOT
BRANCH  10  22
HETATM   22  C   UNK N   1      34.562  17.497   9.078  0.00  0.00     0.255 C 
HETATM   23  O   UNK N   1      35.316  18.456   9.062  0.00  0.00    -0.268 OA
HETATM   24  N   UNK N   1      34.513  16.731  10.188  0.00  0.00    -0.366 N 
HETATM   25  H   UNK N   1      33.839  16.017  10.263  0.00  0.00     0.159 HD
HETATM   26  H   UNK N   1      35.150  16.886  10.922  0.00  0.00     0.159 HD
ENDBRANCH  10  22
BRANCH   7  27
HETATM   27  O   UNK N   1      35.400  16.062   6.763  0.00  0.00    -0.362 OA
HETATM   28  H   UNK N   1      35.705  15.473   7.425  0.00  0.00     0.217 HD
ENDBRANCH   7  27
BRANCH   3  29
HETATM   29  N   UNK N   1      33.328  14.862   5.164  0.00  0.00     0.091 NA
HETATM   30  C   UNK N   1      33.526  14.019   6.332  0.00  0.00     0.310 C 
HETATM   31  C   UNK N   1      34.348  14.553   4.174  0.00  0.00     0.310 C 
ENDBRANCH   3  29
BRANCH   2  32
HETATM   32  O   UNK N   1      31.071  15.740   7.469  0.00  0.00    -0.374 OA
HETATM   33  H   UNK N   1      31.221  14.857   7.839  0.00  0.00     0.211 HD
ENDBRANCH   2  32
BRANCH   5  34
HETATM   34  O   UNK N   1      29.391  18.161   8.163  0.00  0.00    -0.361 OA
HETATM   35  H   UNK N   1      29.897  18.678   8.760  0.00  0.00     0.217 HD
ENDBRANCH   5  34
BRANCH  12  36
HETATM   36  O   UNK N   1      28.897  15.863   2.684  0.00  0.00    -0.390 OA
HETATM   37  H   UNK N   1      29.622  16.283   2.197  0.00  0.00     0.210 HD
ENDBRANCH  12  36
BRANCH  18  38
HETATM   38  O   UNK N   1      25.092  19.437   5.688  0.00  0.00    -0.360 OA
HETATM   39  H   UNK N   1      24.792  19.235   6.552  0.00  0.00     0.217 HD
ENDBRANCH  18  38
TORSDOF 7
ENDMDL
MODEL 5
REMARK VINA RESULT:      -7.3      3.922      8.148
REMARK  7 active torsions:
REMARK  status: ('A' for Active; 'I' for Inactive)
REMARK    1  A    between atoms: C_14  and  C_1 
REMARK       I    between atoms: C_1  and  N_32 
REMARK    2  A    between atoms: C_5  and  N_2 
REMARK    3  A    between atoms: C_4  and  O_9 
REMARK    4  A    between atoms: C_7  and  O_13 
REMARK    5  A    between atoms: C_10  and  O_16 
REMARK    6  A    between atoms: C_17  and  O_20 
REMARK    7  A    between atoms: C_24  and  O_28 
ROOT
HETATM    1  C   UNK N   1      34.491  14.883   8.580  0.00  0.00     0.075 C 
HETATM    2  C   UNK N   1      33.291  13.933   8.735  0.00  0.00     0.177 C 
HETATM    3  C   UNK N   1      34.098  16.186   7.800  0.00  0.00     0.286 C 
HETATM    4  C   UNK N   1      35.097  15.166   9.946  0.00  0.00     0.023 C 
HETATM    5  C   UNK N   1      33.652  12.687   9.538  0.00  0.00     0.097 C 
HETATM    6  C   UNK N   1      32.779  13.643   7.339  0.00  0.00     0.208 C 
HETATM    7  C   UNK N   1      33.113  15.988   6.658  0.00  0.00     0.096 C 
HETATM    8  C   UNK N   1      35.557  13.897  10.670  0.00  0.00     0.059 C 
HETATM    9  C   UNK N   1      34.683  12.685  10.431  0.00  0.00     0.032 C 
HETATM   10  C   UNK N   1      32.501  14.790   6.421  0.00  0.00     0.112 C 
HETATM   11  O   UNK N   1      32.568  12.496   6.973  0.00  0.00    -0.288 OA
HETATM   12  C   UNK N   1      35.654  14.206  12.171  0.00  0.00     0.162 C 
HETATM   13  C   UNK N   1      35.003  11.489  11.253  0.00  0.00     0.194 C 
HETATM   14  C   UNK N   1      36.025  12.984  13.017  0.00  0.00     0.010 A 
HETATM   15  C   UNK N   1      35.730  11.670  12.547  0.00  0.00     0.058 A 
HETATM   16  O   UNK N   1      34.598  10.384  10.920  0.00  0.00    -0.287 OA
HETATM   17  C   UNK N   1      36.601  13.135  14.309  0.00  0.00     0.044 A 
HETATM   18  C   UNK N   1      36.058  10.552  13.352  0.00  0.00     0.080 A 
HETATM   19  C   UNK N   1      36.915  12.013  15.071  0.00  0.00     0.027 A 
HETATM   20 Cl   UNK N   1      36.921  14.703  15.045  0.00  0.00    -0.084 Cl
HETATM   21  C   UNK N   1      36.657  10.735  14.595  0.00  0.00     0.039 A 
ENDROOT
BRANCH  10  22
HETATM   22  C   UNK N   1      31.566  14.588   5.258  0.00  0.00     0.255 C 
HETATM   23  O   UNK N   1      31.857  15.027   4.158  0.00  0.00    -0.268 OA
HETATM   24  N   UNK N   1      30.417  13.893   5.394  0.00  0.00    -0.366 N 
HETATM   25  H   UNK N   1      30.214  13.442   6.246  0.00  0.00     0.159 HD
HETATM   26  H   UNK N   1      29.783  13.837   4.643  0.00  0.00     0.159 HD
ENDBRANCH  10  22
BRANCH   7  27
HETATM   27  O   UNK N   1      32.882  17.045   5.851  0.00  0.00    -0.362 OA
HETATM   28  H   UNK N   1      32.636  16.908   4.958  0.00  0.00     0.217 HD
ENDBRANCH   7  27
BRANCH   3  29
HETATM   29  N   UNK N   1      33.781  17.409   8.562  0.00  0.00     0.091 NA
HETATM   30  C   UNK N   1      32.370  17.727   8.415  0.00  0.00     0.310 C 
HETATM   31  C   UNK N   1      34.573  18.578   8.212  0.00  0.00     0.310 C 
ENDBRANCH   3  29
BRANCH   2  32
HETATM   32  O   UNK N   1      32.256  14.563   9.428  0.00  0.00    -0.374 OA
HETATM   33  H   UNK N   1      31.704  15.224   9.875  0.00  0.00     0.211 HD
ENDBRANCH   2  32
BRANCH   5  34
HETATM   34  O   UNK N   1      32.862  11.597   9.428  0.00  0.00    -0.361 OA
HETATM   35  H   UNK N   1      33.200  10.735   9.278  0.00  0.00     0.217 HD
ENDBRANCH   5  34
BRANCH  12  36
HETATM   36  O   UNK N   1      36.586  15.237  12.331  0.00  0.00    -0.390 OA
HETATM   37  H   UNK N   1      37.473  15.121  12.708  0.00  0.00     0.210 HD
ENDBRANCH  12  36
BRANCH  18  38
HETATM   38  O   UNK N   1      35.791   9.299  12.947  0.00  0.00    -0.360 OA
HETATM   39  H   UNK N   1      35.546   8.636  13.563  0.00  0.00     0.217 HD
ENDBRANCH  18  38
TORSDOF 7
ENDMDL
MODEL 6
REMARK VINA RESULT:      -7.2      3.232      7.515
REMARK  7 active torsions:
REMARK  status: ('A' for Active; 'I' for Inactive)
REMARK    1  A    between atoms: C_14  and  C_1 
REMARK       I    between atoms: C_1  and  N_32 
REMARK    2  A    between atoms: C_5  and  N_2 
REMARK    3  A    between atoms: C_4  and  O_9 
REMARK    4  A    between atoms: C_7  and  O_13 
REMARK    5  A    between atoms: C_10  and  O_16 
REMARK    6  A    between atoms: C_17  and  O_20 
REMARK    7  A    between atoms: C_24  and  O_28 
ROOT
HETATM    1  C   UNK N   1      31.135  15.462   7.052  0.00  0.00     0.075 C 
HETATM    2  C   UNK N   1      31.623  16.883   7.379  0.00  0.00     0.177 C 
HETATM    3  C   UNK N   1      29.964  15.480   6.009  0.00  0.00     0.286 C 
HETATM    4  C   UNK N   1      32.314  14.608   6.611  0.00  0.00     0.023 C 
HETATM    5  C   UNK N   1      32.797  16.872   8.354  0.00  0.00     0.097 C 
HETATM    6  C   UNK N   1      30.417  17.657   7.872  0.00  0.00     0.208 C 
HETATM    7  C   UNK N   1      28.974  16.625   6.163  0.00  0.00     0.096 C 
HETATM    8  C   UNK N   1      33.419  14.523   7.667  0.00  0.00     0.059 C 
HETATM    9  C   UNK N   1      33.621  15.790   8.469  0.00  0.00     0.032 C 
HETATM   10  C   UNK N   1      29.168  17.644   7.051  0.00  0.00     0.112 C 
HETATM   11  O   UNK N   1      30.468  18.307   8.906  0.00  0.00    -0.288 OA
HETATM   12  C   UNK N   1      34.724  14.111   6.969  0.00  0.00     0.162 C 
HETATM   13  C   UNK N   1      34.796  15.797   9.379  0.00  0.00     0.194 C 
HETATM   14  C   UNK N   1      35.929  14.075   7.913  0.00  0.00     0.010 A 
HETATM   15  C   UNK N   1      35.939  14.876   9.094  0.00  0.00     0.058 A 
HETATM   16  O   UNK N   1      34.866  16.606  10.293  0.00  0.00    -0.287 OA
HETATM   17  C   UNK N   1      37.084  13.306   7.599  0.00  0.00     0.044 A 
HETATM   18  C   UNK N   1      37.072  14.849   9.944  0.00  0.00     0.080 A 
HETATM   19  C   UNK N   1      38.177  13.300   8.460  0.00  0.00     0.027 A 
HETATM   20 Cl   UNK N   1      37.237  12.356   6.124  0.00  0.00    -0.084 Cl
HETATM   21  C   UNK N   1      38.168  14.054   9.626  0.00  0.00     0.039 A 
ENDROOT
BRANCH  10  22
HETATM   22  C   UNK N   1      28.158  18.746   7.234  0.00  0.00     0.255 C 
HETATM   23  O   UNK N   1      27.815  19.425   6.280  0.00  0.00    -0.268 OA
HETATM   24  N   UNK N   1      27.586  18.979   8.434  0.00  0.00    -0.366 N 
HETATM   25  H   UNK N   1      27.769  18.378   9.191  0.00  0.00     0.159 HD
HETATM   26  H   UNK N   1      26.986  19.751   8.551  0.00  0.00     0.159 HD
ENDBRANCH  10  22
BRANCH   7  27
HETATM   27  O   UNK N   1      27.859  16.582   5.404  0.00  0.00    -0.362 OA
HETATM   28  H   UNK N   1      27.593  17.339   4.919  0.00  0.00     0.217 HD
ENDBRANCH   7  27
BRANCH   3  29
HETATM   29  N   UNK N   1      30.269  15.237   4.585  0.00  0.00     0.091 NA
HETATM   30  C   UNK N   1      30.145  16.478   3.838  0.00  0.00     0.310 C 
HETATM   31  C   UNK N   1      29.459  14.212   3.946  0.00  0.00     0.310 C 
ENDBRANCH   3  29
BRANCH   2  32
HETATM   32  O   UNK N   1      32.076  17.523   6.224  0.00  0.00    -0.374 OA
HETATM   33  H   UNK N   1      32.331  17.716   5.309  0.00  0.00     0.211 HD
ENDBRANCH   2  32
BRANCH   5  34
HETATM   34  O   UNK N   1      33.077  18.000   9.042  0.00  0.00    -0.361 OA
HETATM   35  H   UNK N   1      33.938  18.367   9.092  0.00  0.00     0.217 HD
ENDBRANCH   5  34
BRANCH  12  36
HETATM   36  O   UNK N   1      34.508  12.865   6.372  0.00  0.00    -0.390 OA
HETATM   37  H   UNK N   1      33.842  12.224   6.667  0.00  0.00     0.210 HD
ENDBRANCH  12  36
BRANCH  18  38
HETATM   38  O   UNK N   1      37.122  15.593  11.062  0.00  0.00    -0.360 OA
HETATM   39  H   UNK N   1      36.371  15.684  11.613  0.00  0.00     0.217 HD
ENDBRANCH  18  38
TORSDOF 7
ENDMDL
MODEL 7
REMARK VINA RESULT:      -7.1     13.558     17.708
REMARK  7 active torsions:
REMARK  status: ('A' for Active; 'I' for Inactive)
REMARK    1  A    between atoms: C_14  and  C_1 
REMARK       I    between atoms: C_1  and  N_32 
REMARK    2  A    between atoms: C_5  and  N_2 
REMARK    3  A    between atoms: C_4  and  O_9 
REMARK    4  A    between atoms: C_7  and  O_13 
REMARK    5  A    between atoms: C_10  and  O_16 
REMARK    6  A    between atoms: C_17  and  O_20 
REMARK    7  A    between atoms: C_24  and  O_28 
ROOT
HETATM    1  C   UNK N   1      27.829  23.351  -6.267  0.00  0.00     0.075 C 
HETATM    2  C   UNK N   1      28.547  24.499  -5.538  0.00  0.00     0.177 C 
HETATM    3  C   UNK N   1      26.830  23.890  -7.348  0.00  0.00     0.286 C 
HETATM    4  C   UNK N   1      28.859  22.386  -6.834  0.00  0.00     0.023 C 
HETATM    5  C   UNK N   1      29.559  23.983  -4.520  0.00  0.00     0.097 C 
HETATM    6  C   UNK N   1      27.468  25.383  -4.944  0.00  0.00     0.208 C 
HETATM    7  C   UNK N   1      26.078  25.155  -6.966  0.00  0.00     0.096 C 
HETATM    8  C   UNK N   1      29.780  21.796  -5.762  0.00  0.00     0.059 C 
HETATM    9  C   UNK N   1      30.128  22.749  -4.639  0.00  0.00     0.032 C 
HETATM   10  C   UNK N   1      26.358  25.855  -5.827  0.00  0.00     0.112 C 
HETATM   11  O   UNK N   1      27.514  25.730  -3.774  0.00  0.00    -0.288 OA
HETATM   12  C   UNK N   1      31.054  21.283  -6.449  0.00  0.00     0.162 C 
HETATM   13  C   UNK N   1      31.153  22.265  -3.678  0.00  0.00     0.194 C 
HETATM   14  C   UNK N   1      32.096  20.744  -5.464  0.00  0.00     0.010 A 
HETATM   15  C   UNK N   1      32.115  21.207  -4.115  0.00  0.00     0.058 A 
HETATM   16  O   UNK N   1      31.266  22.788  -2.579  0.00  0.00    -0.287 OA
HETATM   17  C   UNK N   1      33.103  19.833  -5.889  0.00  0.00     0.044 A 
HETATM   18  C   UNK N   1      33.101  20.715  -3.224  0.00  0.00     0.080 A 
HETATM   19  C   UNK N   1      34.053  19.368  -4.984  0.00  0.00     0.027 A 
HETATM   20 Cl   UNK N   1      33.250  19.264  -7.549  0.00  0.00    -0.084 Cl
HETATM   21  C   UNK N   1      34.046  19.795  -3.663  0.00  0.00     0.039 A 
ENDROOT
BRANCH  10  22
HETATM   22  C   UNK N   1      25.574  27.078  -5.430  0.00  0.00     0.255 C 
HETATM   23  O   UNK N   1      24.365  27.105  -5.583  0.00  0.00    -0.268 OA
HETATM   24  N   UNK N   1      26.179  28.145  -4.865  0.00  0.00    -0.366 N 
HETATM   25  H   UNK N   1      27.136  28.104  -4.636  0.00  0.00     0.159 HD
HETATM   26  H   UNK N   1      25.663  28.963  -4.682  0.00  0.00     0.159 HD
ENDBRANCH  10  22
BRANCH   7  27
HETATM   27  O   UNK N   1      25.084  25.555  -7.787  0.00  0.00    -0.362 OA
HETATM   28  H   UNK N   1      24.245  25.140  -7.744  0.00  0.00     0.217 HD
ENDBRANCH   7  27
BRANCH   3  29
HETATM   29  N   UNK N   1      27.260  23.940  -8.760  0.00  0.00     0.091 NA
HETATM   30  C   UNK N   1      27.500  25.319  -9.151  0.00  0.00     0.310 C 
HETATM   31  C   UNK N   1      26.342  23.328  -9.707  0.00  0.00     0.310 C 
ENDBRANCH   3  29
BRANCH   2  32
HETATM   32  O   UNK N   1      29.263  25.282  -6.444  0.00  0.00    -0.374 OA
HETATM   33  H   UNK N   1      29.960  25.798  -6.878  0.00  0.00     0.211 HD
ENDBRANCH   2  32
BRANCH   5  34
HETATM   34  O   UNK N   1      29.970  24.815  -3.537  0.00  0.00    -0.361 OA
HETATM   35  H   UNK N   1      29.881  24.611  -2.627  0.00  0.00     0.217 HD
ENDBRANCH   5  34
BRANCH  12  36
HETATM   36  O   UNK N   1      30.671  20.303  -7.371  0.00  0.00    -0.390 OA
HETATM   37  H   UNK N   1      30.431  19.392  -7.135  0.00  0.00     0.210 HD
ENDBRANCH  12  36
BRANCH  18  38
HETATM   38  O   UNK N   1      33.155  21.132  -1.947  0.00  0.00    -0.360 OA
HETATM   39  H   UNK N   1      32.864  20.581  -1.249  0.00  0.00     0.217 HD
ENDBRANCH  18  38
TORSDOF 7
ENDMDL
MODEL 8
REMARK VINA RESULT:      -6.8      5.239      9.901
REMARK  7 active torsions:
REMARK  status: ('A' for Active; 'I' for Inactive)
REMARK    1  A    between atoms: C_14  and  C_1 
REMARK       I    between atoms: C_1  and  N_32 
REMARK    2  A    between atoms: C_5  and  N_2 
REMARK    3  A    between atoms: C_4  and  O_9 
REMARK    4  A    between atoms: C_7  and  O_13 
REMARK    5  A    between atoms: C_10  and  O_16 
REMARK    6  A    between atoms: C_17  and  O_20 
REMARK    7  A    between atoms: C_24  and  O_28 
ROOT
HETATM    1  C   UNK N   1      25.909  16.661   4.289  0.00  0.00     0.075 C 
HETATM    2  C   UNK N   1      26.568  15.304   3.991  0.00  0.00     0.177 C 
HETATM    3  C   UNK N   1      24.345  16.567   4.233  0.00  0.00     0.286 C 
HETATM    4  C   UNK N   1      26.428  17.199   5.613  0.00  0.00     0.023 C 
HETATM    5  C   UNK N   1      28.089  15.374   4.094  0.00  0.00     0.097 C 
HETATM    6  C   UNK N   1      26.060  14.859   2.634  0.00  0.00     0.208 C 
HETATM    7  C   UNK N   1      23.786  15.654   3.152  0.00  0.00     0.096 C 
HETATM    8  C   UNK N   1      27.949  17.369   5.635  0.00  0.00     0.059 C 
HETATM    9  C   UNK N   1      28.711  16.316   4.860  0.00  0.00     0.032 C 
HETATM   10  C   UNK N   1      24.587  14.860   2.381  0.00  0.00     0.112 C 
HETATM   11  O   UNK N   1      26.833  14.477   1.769  0.00  0.00    -0.288 OA
HETATM   12  C   UNK N   1      28.411  17.403   7.099  0.00  0.00     0.162 C 
HETATM   13  C   UNK N   1      30.189  16.354   5.004  0.00  0.00     0.194 C 
HETATM   14  C   UNK N   1      29.933  17.484   7.252  0.00  0.00     0.010 A 
HETATM   15  C   UNK N   1      30.784  16.999   6.215  0.00  0.00     0.058 A 
HETATM   16  O   UNK N   1      30.905  15.786   4.191  0.00  0.00    -0.287 OA
HETATM   17  C   UNK N   1      30.524  17.975   8.449  0.00  0.00     0.044 A 
HETATM   18  C   UNK N   1      32.190  17.060   6.383  0.00  0.00     0.080 A 
HETATM   19  C   UNK N   1      31.910  18.025   8.576  0.00  0.00     0.027 A 
HETATM   20 Cl   UNK N   1      29.585  18.509   9.839  0.00  0.00    -0.084 Cl
HETATM   21  C   UNK N   1      32.734  17.583   7.551  0.00  0.00     0.039 A 
ENDROOT
BRANCH  10  22
HETATM   22  C   UNK N   1      24.031  13.998   1.279  0.00  0.00     0.255 C 
HETATM   23  O   UNK N   1      23.190  14.446   0.518  0.00  0.00    -0.268 OA
HETATM   24  N   UNK N   1      24.472  12.737   1.085  0.00  0.00    -0.366 N 
HETATM   25  H   UNK N   1      25.223  12.391   1.620  0.00  0.00     0.159 HD
HETATM   26  H   UNK N   1      24.044  12.164   0.409  0.00  0.00     0.159 HD
ENDBRANCH  10  22
BRANCH   7  27
HETATM   27  O   UNK N   1      22.452  15.678   2.953  0.00  0.00    -0.362 OA
HETATM   28  H   UNK N   1      21.898  16.152   3.543  0.00  0.00     0.217 HD
ENDBRANCH   7  27
BRANCH   3  29
HETATM   29  N   UNK N   1      23.591  16.413   5.492  0.00  0.00     0.091 NA
HETATM   30  C   UNK N   1      23.061  15.063   5.585  0.00  0.00     0.310 C 
HETATM   31  C   UNK N   1      22.508  17.365   5.685  0.00  0.00     0.310 C 
ENDBRANCH   3  29
BRANCH   2  32
HETATM   32  O   UNK N   1      26.154  14.345   4.917  0.00  0.00    -0.374 OA
HETATM   33  H   UNK N   1      26.140  13.684   5.626  0.00  0.00     0.211 HD
ENDBRANCH   2  32
BRANCH   5  34
HETATM   34  O   UNK N   1      28.823  14.415   3.489  0.00  0.00    -0.361 OA
HETATM   35  H   UNK N   1      29.176  14.511   2.626  0.00  0.00     0.217 HD
ENDBRANCH   5  34
BRANCH  12  36
HETATM   36  O   UNK N   1      27.780  18.487   7.717  0.00  0.00    -0.390 OA
HETATM   37  H   UNK N   1      26.880  18.464   8.078  0.00  0.00     0.210 HD
ENDBRANCH  12  36
BRANCH  18  38
HETATM   38  O   UNK N   1      33.025  16.607   5.432  0.00  0.00    -0.360 OA
HETATM   39  H   UNK N   1      33.950  16.575   5.580  0.00  0.00     0.217 HD
ENDBRANCH  18  38
TORSDOF 7
ENDMDL
MODEL 9
REMARK VINA RESULT:      -6.6      6.785      9.719
REMARK  7 active torsions:
REMARK  status: ('A' for Active; 'I' for Inactive)
REMARK    1  A    between atoms: C_14  and  C_1 
REMARK       I    between atoms: C_1  and  N_32 
REMARK    2  A    between atoms: C_5  and  N_2 
REMARK    3  A    between atoms: C_4  and  O_9 
REMARK    4  A    between atoms: C_7  and  O_13 
REMARK    5  A    between atoms: C_10  and  O_16 
REMARK    6  A    between atoms: C_17  and  O_20 
REMARK    7  A    between atoms: C_24  and  O_28 
ROOT
HETATM    1  C   UNK N   1      37.076  10.696  15.839  0.00  0.00     0.075 C 
HETATM    2  C   UNK N   1      35.798  11.550  15.865  0.00  0.00     0.177 C 
HETATM    3  C   UNK N   1      37.003   9.515  16.868  0.00  0.00     0.286 C 
HETATM    4  C   UNK N   1      37.348  10.231  14.416  0.00  0.00     0.023 C 
HETATM    5  C   UNK N   1      35.839  12.670  14.830  0.00  0.00     0.097 C 
HETATM    6  C   UNK N   1      35.623  12.032  17.292  0.00  0.00     0.208 C 
HETATM    7  C   UNK N   1      36.317   9.843  18.186  0.00  0.00     0.096 C 
HETATM    8  C   UNK N   1      37.503  11.390  13.428  0.00  0.00     0.059 C 
HETATM    9  C   UNK N   1      36.614  12.581  13.711  0.00  0.00     0.032 C 
HETATM   10  C   UNK N   1      35.680  11.032  18.402  0.00  0.00     0.112 C 
HETATM   11  O   UNK N   1      35.410  13.210  17.535  0.00  0.00    -0.288 OA
HETATM   12  C   UNK N   1      37.253  10.854  12.011  0.00  0.00     0.162 C 
HETATM   13  C   UNK N   1      36.616  13.647  12.675  0.00  0.00     0.194 C 
HETATM   14  C   UNK N   1      37.297  11.943  10.935  0.00  0.00     0.010 A 
HETATM   15  C   UNK N   1      37.014  13.299  11.277  0.00  0.00     0.058 A 
HETATM   16  O   UNK N   1      36.211  14.769  12.943  0.00  0.00    -0.287 OA
HETATM   17  C   UNK N   1      37.546  11.619   9.573  0.00  0.00     0.044 A 
HETATM   18  C   UNK N   1      37.035  14.291  10.265  0.00  0.00     0.080 A 
HETATM   19  C   UNK N   1      37.563  12.621   8.606  0.00  0.00     0.027 A 
HETATM   20 Cl   UNK N   1      37.809   9.972   9.007  0.00  0.00    -0.084 Cl
HETATM   21  C   UNK N   1      37.321  13.944   8.949  0.00  0.00     0.039 A 
ENDROOT
BRANCH  10  22
HETATM   22  C   UNK N   1      35.048  11.369  19.726  0.00  0.00     0.255 C 
HETATM   23  O   UNK N   1      34.432  10.516  20.343  0.00  0.00    -0.268 OA
HETATM   24  N   UNK N   1      35.180  12.596  20.274  0.00  0.00    -0.366 N 
HETATM   25  H   UNK N   1      35.759  13.266  19.845  0.00  0.00     0.159 HD
HETATM   26  H   UNK N   1      34.696  12.820  21.101  0.00  0.00     0.159 HD
ENDBRANCH  10  22
BRANCH   7  27
HETATM   27  O   UNK N   1      36.385   8.916  19.164  0.00  0.00    -0.362 OA
HETATM   28  H   UNK N   1      37.155   8.850  19.694  0.00  0.00     0.217 HD
ENDBRANCH   7  27
BRANCH   3  29
HETATM   29  N   UNK N   1      36.614   8.173  16.392  0.00  0.00     0.091 NA
HETATM   30  C   UNK N   1      35.356   7.780  17.005  0.00  0.00     0.310 C 
HETATM   31  C   UNK N   1      37.602   7.129  16.618  0.00  0.00     0.310 C 
ENDBRANCH   3  29
BRANCH   2  32
HETATM   32  O   UNK N   1      34.682  10.770  15.558  0.00  0.00    -0.374 OA
HETATM   33  H   UNK N   1      33.775  10.434  15.485  0.00  0.00     0.211 HD
ENDBRANCH   2  32
BRANCH   5  34
HETATM   34  O   UNK N   1      35.010  13.725  14.986  0.00  0.00    -0.361 OA
HETATM   35  H   UNK N   1      34.377  13.976  14.341  0.00  0.00     0.217 HD
ENDBRANCH   5  34
BRANCH  12  36
HETATM   36  O   UNK N   1      38.203   9.857  11.763  0.00  0.00    -0.390 OA
HETATM   37  H   UNK N   1      38.259   9.346  10.940  0.00  0.00     0.210 HD
ENDBRANCH  12  36
BRANCH  18  38
HETATM   38  O   UNK N   1      36.767  15.578  10.545  0.00  0.00    -0.360 OA
HETATM   39  H   UNK N   1      36.947  15.933  11.394  0.00  0.00     0.217 HD
ENDBRANCH  18  38
TORSDOF 7
ENDMDL
