MODEL 1
REMARK VINA RESULT:      -6.0      0.000      0.000
REMARK  6 active torsions:
REMARK  status: ('A' for Active; 'I' for Inactive)
REMARK    1  A    between atoms: N_1  and  C_2 
REMARK    2  A    between atoms: N_1  and  C_7 
REMARK    3  A    between atoms: C_2  and  C_3 
REMARK    4  A    between atoms: C_6  and  C_20 
REMARK    5  A    between atoms: C_7  and  C_17 
REMARK    6  A    between atoms: C_21  and  C_22 
ROOT
HETATM    1  N   UNK N   1      27.408  29.916  -2.739  0.00  0.00     0.091 N 
HETATM    2  C   UNK N   1      27.957  31.037  -1.997  0.00  0.00     0.310 C 
ENDROOT
BRANCH   1   3
HETATM    3  C   UNK N   1      27.263  30.181  -4.167  0.00  0.00     0.311 C 
BRANCH   3   4
HETATM    4  C   UNK N   1      26.664  29.067  -4.985  0.00  0.00    -0.019 A 
HETATM    5  C   UNK N   1      27.299  28.642  -6.166  0.00  0.00    -0.018 A 
HETATM    6  C   UNK N   1      26.879  27.440  -6.783  0.00  0.00    -0.025 A 
HETATM    7  C   UNK N   1      28.374  29.360  -6.716  0.00  0.00     0.013 A 
HETATM    8  C   UNK N   1      25.794  26.727  -6.267  0.00  0.00     0.012 A 
HETATM    9  C   UNK N   1      27.571  26.947  -7.891  0.00  0.00     0.012 A 
HETATM   10  C   UNK N   1      25.121  27.198  -5.141  0.00  0.00     0.002 A 
HETATM   11  C   UNK N   1      25.577  28.338  -4.486  0.00  0.00     0.010 A 
HETATM   12  C   UNK N   1      28.648  27.663  -8.421  0.00  0.00     0.001 A 
HETATM   13  C   UNK N   1      29.030  28.881  -7.852  0.00  0.00     0.001 A 
ENDBRANCH   3   4
ENDBRANCH   1   3
BRANCH   1  14
HETATM   14  C   UNK N   1      28.117  28.671  -2.480  0.00  0.00     0.300 C 
BRANCH  14  15
HETATM   15  C   UNK N   1      29.529  28.878  -2.947  0.00  0.00     0.012 C 
HETATM   16  C   UNK N   1      30.124  28.006  -3.775  0.00  0.00     0.062 C 
BRANCH  16  17
HETATM   17  C   UNK N   1      29.497  26.745  -4.079  0.00  0.00    -0.078 C 
HETATM   18  C   UNK N   1      28.953  25.679  -4.195  0.00  0.00    -0.093 C 
BRANCH  18  19
HETATM   19  C   UNK N   1      28.284  24.390  -4.248  0.00  0.00     0.013 C 
HETATM   20  C   UNK N   1      26.952  24.438  -3.530  0.00  0.00     0.028 C 
HETATM   21  C   UNK N   1      28.174  23.891  -5.670  0.00  0.00     0.028 C 
HETATM   22  C   UNK N   1      29.127  23.462  -3.392  0.00  0.00     0.028 C 
ENDBRANCH  18  19
ENDBRANCH  16  17
ENDBRANCH  14  15
ENDBRANCH   1  14
TORSDOF 6
ENDMDL
MODEL 2
REMARK VINA RESULT:      -6.0      2.198      4.966
REMARK  6 active torsions:
REMARK  status: ('A' for Active; 'I' for Inactive)
REMARK    1  A    between atoms: N_1  and  C_2 
REMARK    2  A    between atoms: N_1  and  C_7 
REMARK    3  A    between atoms: C_2  and  C_3 
REMARK    4  A    between atoms: C_6  and  C_20 
REMARK    5  A    between atoms: C_7  and  C_17 
REMARK    6  A    between atoms: C_21  and  C_22 
ROOT
HETATM    1  N   UNK N   1      26.247  23.952  -7.854  0.00  0.00     0.091 N 
HETATM    2  C   UNK N   1      25.364  22.852  -8.203  0.00  0.00     0.310 C 
ENDROOT
BRANCH   1   3
HETATM    3  C   UNK N   1      25.551  25.224  -7.687  0.00  0.00     0.311 C 
BRANCH   3   4
HETATM    4  C   UNK N   1      26.422  26.452  -7.674  0.00  0.00    -0.019 A 
HETATM    5  C   UNK N   1      26.371  27.338  -6.583  0.00  0.00    -0.018 A 
HETATM    6  C   UNK N   1      27.364  28.338  -6.457  0.00  0.00    -0.025 A 
HETATM    7  C   UNK N   1      25.386  27.218  -5.589  0.00  0.00     0.013 A 
HETATM    8  C   UNK N   1      28.336  28.492  -7.449  0.00  0.00     0.012 A 
HETATM    9  C   UNK N   1      27.394  29.152  -5.323  0.00  0.00     0.012 A 
HETATM   10  C   UNK N   1      28.331  27.660  -8.567  0.00  0.00     0.002 A 
HETATM   11  C   UNK N   1      27.403  26.626  -8.658  0.00  0.00     0.010 A 
HETATM   12  C   UNK N   1      26.416  29.013  -4.335  0.00  0.00     0.001 A 
HETATM   13  C   UNK N   1      25.397  28.068  -4.481  0.00  0.00     0.001 A 
ENDBRANCH   3   4
ENDBRANCH   1   3
BRANCH   1  14
HETATM   14  C   UNK N   1      27.107  23.643  -6.721  0.00  0.00     0.300 C 
BRANCH  14  15
HETATM   15  C   UNK N   1      26.211  23.536  -5.522  0.00  0.00     0.012 C 
HETATM   16  C   UNK N   1      26.475  24.213  -4.393  0.00  0.00     0.062 C 
BRANCH  16  17
HETATM   17  C   UNK N   1      27.731  24.901  -4.232  0.00  0.00    -0.078 C 
HETATM   18  C   UNK N   1      28.798  25.452  -4.233  0.00  0.00    -0.093 C 
BRANCH  18  19
HETATM   19  C   UNK N   1      30.096  26.102  -4.322  0.00  0.00     0.013 C 
HETATM   20  C   UNK N   1      31.137  25.352  -3.519  0.00  0.00     0.028 C 
HETATM   21  C   UNK N   1      30.499  26.321  -5.761  0.00  0.00     0.028 C 
HETATM   22  C   UNK N   1      29.939  27.417  -3.578  0.00  0.00     0.028 C 
ENDBRANCH  18  19
ENDBRANCH  16  17
ENDBRANCH  14  15
ENDBRANCH   1  14
TORSDOF 6
ENDMDL
MODEL 3
REMARK VINA RESULT:      -5.7      2.166      4.935
REMARK  6 active torsions:
REMARK  status: ('A' for Active; 'I' for Inactive)
REMARK    1  A    between atoms: N_1  and  C_2 
REMARK    2  A    between atoms: N_1  and  C_7 
REMARK    3  A    between atoms: C_2  and  C_3 
REMARK    4  A    between atoms: C_6  and  C_20 
REMARK    5  A    between atoms: C_7  and  C_17 
REMARK    6  A    between atoms: C_21  and  C_22 
ROOT
HETATM    1  N   UNK N   1      29.441  23.439  -4.144  0.00  0.00     0.091 N 
HETATM    2  C   UNK N   1      30.230  22.719  -3.160  0.00  0.00     0.310 C 
ENDROOT
BRANCH   1   3
HETATM    3  C   UNK N   1      28.141  23.872  -3.640  0.00  0.00     0.311 C 
BRANCH   3   4
HETATM    4  C   UNK N   1      27.132  24.272  -4.684  0.00  0.00    -0.019 A 
HETATM    5  C   UNK N   1      26.455  25.500  -4.573  0.00  0.00    -0.018 A 
HETATM    6  C   UNK N   1      25.711  25.982  -5.676  0.00  0.00    -0.025 A 
HETATM    7  C   UNK N   1      26.545  26.281  -3.409  0.00  0.00     0.013 A 
HETATM    8  C   UNK N   1      25.587  25.208  -6.832  0.00  0.00     0.012 A 
HETATM    9  C   UNK N   1      25.127  27.249  -5.622  0.00  0.00     0.012 A 
HETATM   10  C   UNK N   1      26.196  23.956  -6.903  0.00  0.00     0.002 A 
HETATM   11  C   UNK N   1      26.992  23.511  -5.852  0.00  0.00     0.010 A 
HETATM   12  C   UNK N   1      25.235  28.022  -4.463  0.00  0.00     0.001 A 
HETATM   13  C   UNK N   1      25.918  27.527  -3.349  0.00  0.00     0.001 A 
ENDBRANCH   3   4
ENDBRANCH   1   3
BRANCH   1  14
HETATM   14  C   UNK N   1      30.179  24.528  -4.766  0.00  0.00     0.300 C 
BRANCH  14  15
HETATM   15  C   UNK N   1      30.836  25.291  -3.652  0.00  0.00     0.012 C 
HETATM   16  C   UNK N   1      30.606  26.601  -3.475  0.00  0.00     0.062 C 
BRANCH  16  17
HETATM   17  C   UNK N   1      29.882  27.355  -4.466  0.00  0.00    -0.078 C 
HETATM   18  C   UNK N   1      29.396  27.989  -5.364  0.00  0.00    -0.093 C 
BRANCH  18  19
HETATM   19  C   UNK N   1      28.888  28.752  -6.493  0.00  0.00     0.013 C 
HETATM   20  C   UNK N   1      29.979  29.598  -7.114  0.00  0.00     0.028 C 
HETATM   21  C   UNK N   1      28.192  27.855  -7.488  0.00  0.00     0.028 C 
HETATM   22  C   UNK N   1      27.935  29.771  -5.893  0.00  0.00     0.028 C 
ENDBRANCH  18  19
ENDBRANCH  16  17
ENDBRANCH  14  15
ENDBRANCH   1  14
TORSDOF 6
ENDMDL
MODEL 4
REMARK VINA RESULT:      -5.7      1.492      3.125
REMARK  6 active torsions:
REMARK  status: ('A' for Active; 'I' for Inactive)
REMARK    1  A    between atoms: N_1  and  C_2 
REMARK    2  A    between atoms: N_1  and  C_7 
REMARK    3  A    between atoms: C_2  and  C_3 
REMARK    4  A    between atoms: C_6  and  C_20 
REMARK    5  A    between atoms: C_7  and  C_17 
REMARK    6  A    between atoms: C_21  and  C_22 
ROOT
HETATM    1  N   UNK N   1      30.577  29.320  -6.535  0.00  0.00     0.091 N 
HETATM    2  C   UNK N   1      31.569  29.733  -7.513  0.00  0.00     0.310 C 
ENDROOT
BRANCH   1   3
HETATM    3  C   UNK N   1      29.223  29.249  -7.078  0.00  0.00     0.311 C 
BRANCH   3   4
HETATM    4  C   UNK N   1      28.107  29.392  -6.078  0.00  0.00    -0.019 A 
HETATM    5  C   UNK N   1      27.091  28.421  -6.015  0.00  0.00    -0.018 A 
HETATM    6  C   UNK N   1      26.199  28.423  -4.917  0.00  0.00    -0.025 A 
HETATM    7  C   UNK N   1      26.976  27.420  -6.993  0.00  0.00     0.013 A 
HETATM    8  C   UNK N   1      26.279  29.426  -3.948  0.00  0.00     0.012 A 
HETATM    9  C   UNK N   1      25.258  27.400  -4.782  0.00  0.00     0.012 A 
HETATM   10  C   UNK N   1      27.239  30.430  -4.061  0.00  0.00     0.002 A 
HETATM   11  C   UNK N   1      28.167  30.390  -5.097  0.00  0.00     0.010 A 
HETATM   12  C   UNK N   1      25.162  26.402  -5.755  0.00  0.00     0.001 A 
HETATM   13  C   UNK N   1      26.000  26.428  -6.873  0.00  0.00     0.001 A 
ENDBRANCH   3   4
ENDBRANCH   1   3
BRANCH   1  14
HETATM   14  C   UNK N   1      30.953  28.101  -5.836  0.00  0.00     0.300 C 
BRANCH  14  15
HETATM   15  C   UNK N   1      31.079  28.462  -4.384  0.00  0.00     0.012 C 
HETATM   16  C   UNK N   1      30.562  27.680  -3.425  0.00  0.00     0.062 C 
BRANCH  16  17
HETATM   17  C   UNK N   1      29.699  26.578  -3.768  0.00  0.00    -0.078 C 
HETATM   18  C   UNK N   1      29.065  25.580  -3.978  0.00  0.00    -0.093 C 
BRANCH  18  19
HETATM   19  C   UNK N   1      28.354  24.327  -4.180  0.00  0.00     0.013 C 
HETATM   20  C   UNK N   1      27.007  24.349  -3.490  0.00  0.00     0.028 C 
HETATM   21  C   UNK N   1      28.264  23.982  -5.648  0.00  0.00     0.028 C 
HETATM   22  C   UNK N   1      29.143  23.287  -3.406  0.00  0.00     0.028 C 
ENDBRANCH  18  19
ENDBRANCH  16  17
ENDBRANCH  14  15
ENDBRANCH   1  14
TORSDOF 6
ENDMDL
MODEL 5
REMARK VINA RESULT:      -5.6      2.312      5.203
REMARK  6 active torsions:
REMARK  status: ('A' for Active; 'I' for Inactive)
REMARK    1  A    between atoms: N_1  and  C_2 
REMARK    2  A    between atoms: N_1  and  C_7 
REMARK    3  A    between atoms: C_2  and  C_3 
REMARK    4  A    between atoms: C_6  and  C_20 
REMARK    5  A    between atoms: C_7  and  C_17 
REMARK    6  A    between atoms: C_21  and  C_22 
ROOT
HETATM    1  N   UNK N   1      26.014  24.223  -8.381  0.00  0.00     0.091 N 
HETATM    2  C   UNK N   1      25.228  24.353  -9.596  0.00  0.00     0.310 C 
ENDROOT
BRANCH   1   3
HETATM    3  C   UNK N   1      25.661  25.201  -7.355  0.00  0.00     0.311 C 
BRANCH   3   4
HETATM    4  C   UNK N   1      26.461  26.476  -7.360  0.00  0.00    -0.019 A 
HETATM    5  C   UNK N   1      26.383  27.359  -6.267  0.00  0.00    -0.018 A 
HETATM    6  C   UNK N   1      27.321  28.413  -6.162  0.00  0.00    -0.025 A 
HETATM    7  C   UNK N   1      25.426  27.184  -5.255  0.00  0.00     0.013 A 
HETATM    8  C   UNK N   1      28.262  28.620  -7.172  0.00  0.00     0.012 A 
HETATM    9  C   UNK N   1      27.327  29.229  -5.028  0.00  0.00     0.012 A 
HETATM   10  C   UNK N   1      28.281  27.788  -8.290  0.00  0.00     0.002 A 
HETATM   11  C   UNK N   1      27.412  26.704  -8.363  0.00  0.00     0.010 A 
HETATM   12  C   UNK N   1      26.377  29.036  -4.021  0.00  0.00     0.001 A 
HETATM   13  C   UNK N   1      25.411  28.035  -4.147  0.00  0.00     0.001 A 
ENDBRANCH   3   4
ENDBRANCH   1   3
BRANCH   1  14
HETATM   14  C   UNK N   1      26.027  22.863  -7.863  0.00  0.00     0.300 C 
BRANCH  14  15
HETATM   15  C   UNK N   1      27.352  22.272  -8.248  0.00  0.00     0.012 C 
HETATM   16  C   UNK N   1      28.409  22.339  -7.425  0.00  0.00     0.062 C 
BRANCH  16  17
HETATM   17  C   UNK N   1      28.359  23.153  -6.237  0.00  0.00    -0.078 C 
HETATM   18  C   UNK N   1      28.361  23.720  -5.178  0.00  0.00    -0.093 C 
BRANCH  18  19
HETATM   19  C   UNK N   1      28.395  24.331  -3.859  0.00  0.00     0.013 C 
HETATM   20  C   UNK N   1      26.996  24.526  -3.313  0.00  0.00     0.028 C 
HETATM   21  C   UNK N   1      29.295  23.559  -2.923  0.00  0.00     0.028 C 
HETATM   22  C   UNK N   1      28.900  25.745  -4.083  0.00  0.00     0.028 C 
ENDBRANCH  18  19
ENDBRANCH  16  17
ENDBRANCH  14  15
ENDBRANCH   1  14
TORSDOF 6
ENDMDL
MODEL 6
REMARK VINA RESULT:      -5.4      2.270      4.727
REMARK  6 active torsions:
REMARK  status: ('A' for Active; 'I' for Inactive)
REMARK    1  A    between atoms: N_1  and  C_2 
REMARK    2  A    between atoms: N_1  and  C_7 
REMARK    3  A    between atoms: C_2  and  C_3 
REMARK    4  A    between atoms: C_6  and  C_20 
REMARK    5  A    between atoms: C_7  and  C_17 
REMARK    6  A    between atoms: C_21  and  C_22 
ROOT
HETATM    1  N   UNK N   1      27.107  24.833  -8.782  0.00  0.00     0.091 N 
HETATM    2  C   UNK N   1      27.812  24.693 -10.044  0.00  0.00     0.310 C 
ENDROOT
BRANCH   1   3
HETATM    3  C   UNK N   1      26.393  26.101  -8.655  0.00  0.00     0.311 C 
BRANCH   3   4
HETATM    4  C   UNK N   1      26.361  26.701  -7.274  0.00  0.00    -0.019 A 
HETATM    5  C   UNK N   1      27.220  27.767  -6.951  0.00  0.00    -0.018 A 
HETATM    6  C   UNK N   1      27.008  28.487  -5.752  0.00  0.00    -0.025 A 
HETATM    7  C   UNK N   1      28.251  28.162  -7.819  0.00  0.00     0.013 A 
HETATM    8  C   UNK N   1      26.005  28.092  -4.863  0.00  0.00     0.012 A 
HETATM    9  C   UNK N   1      27.780  29.617  -5.472  0.00  0.00     0.012 A 
HETATM   10  C   UNK N   1      25.210  26.985  -5.154  0.00  0.00     0.002 A 
HETATM   11  C   UNK N   1      25.364  26.320  -6.367  0.00  0.00     0.010 A 
HETATM   12  C   UNK N   1      28.794  30.008  -6.350  0.00  0.00     0.001 A 
HETATM   13  C   UNK N   1      29.048  29.266  -7.506  0.00  0.00     0.001 A 
ENDBRANCH   3   4
ENDBRANCH   1   3
BRANCH   1  14
HETATM   14  C   UNK N   1      26.255  23.691  -8.485  0.00  0.00     0.300 C 
BRANCH  14  15
HETATM   15  C   UNK N   1      27.147  22.484  -8.475  0.00  0.00     0.012 C 
HETATM   16  C   UNK N   1      27.848  22.146  -7.382  0.00  0.00     0.062 C 
BRANCH  16  17
HETATM   17  C   UNK N   1      27.921  23.042  -6.256  0.00  0.00    -0.078 C 
HETATM   18  C   UNK N   1      28.045  23.686  -5.249  0.00  0.00    -0.093 C 
BRANCH  18  19
HETATM   19  C   UNK N   1      28.238  24.396  -3.995  0.00  0.00     0.013 C 
HETATM   20  C   UNK N   1      28.894  25.740  -4.226  0.00  0.00     0.028 C 
HETATM   21  C   UNK N   1      26.947  24.490  -3.217  0.00  0.00     0.028 C 
HETATM   22  C   UNK N   1      29.290  23.602  -3.240  0.00  0.00     0.028 C 
ENDBRANCH  18  19
ENDBRANCH  16  17
ENDBRANCH  14  15
ENDBRANCH   1  14
TORSDOF 6
ENDMDL
MODEL 7
REMARK VINA RESULT:      -5.4     12.223     15.258
REMARK  6 active torsions:
REMARK  status: ('A' for Active; 'I' for Inactive)
REMARK    1  A    between atoms: N_1  and  C_2 
REMARK    2  A    between atoms: N_1  and  C_7 
REMARK    3  A    between atoms: C_2  and  C_3 
REMARK    4  A    between atoms: C_6  and  C_20 
REMARK    5  A    between atoms: C_7  and  C_17 
REMARK    6  A    between atoms: C_21  and  C_22 
ROOT
HETATM    1  N   UNK N   1      29.304  16.121   3.427  0.00  0.00     0.091 N 
HETATM    2  C   UNK N   1      28.813  15.427   2.250  0.00  0.00     0.310 C 
ENDROOT
BRANCH   1   3
HETATM    3  C   UNK N   1      28.413  16.011   4.579  0.00  0.00     0.311 C 
BRANCH   3   4
HETATM    4  C   UNK N   1      28.591  17.055   5.649  0.00  0.00    -0.019 A 
HETATM    5  C   UNK N   1      28.102  18.358   5.448  0.00  0.00    -0.018 A 
HETATM    6  C   UNK N   1      28.042  19.251   6.544  0.00  0.00    -0.025 A 
HETATM    7  C   UNK N   1      27.625  18.774   4.194  0.00  0.00     0.013 A 
HETATM    8  C   UNK N   1      28.538  18.866   7.792  0.00  0.00     0.012 A 
HETATM    9  C   UNK N   1      27.457  20.509   6.386  0.00  0.00     0.012 A 
HETATM   10  C   UNK N   1      29.093  17.600   7.963  0.00  0.00     0.002 A 
HETATM   11  C   UNK N   1      29.085  16.691   6.908  0.00  0.00     0.010 A 
HETATM   12  C   UNK N   1      26.973  20.906   5.137  0.00  0.00     0.001 A 
HETATM   13  C   UNK N   1      27.083  20.051   4.037  0.00  0.00     0.001 A 
ENDBRANCH   3   4
ENDBRANCH   1   3
BRANCH   1  14
HETATM   14  C   UNK N   1      30.675  15.764   3.758  0.00  0.00     0.300 C 
BRANCH  14  15
HETATM   15  C   UNK N   1      31.558  16.713   3.001  0.00  0.00     0.012 C 
HETATM   16  C   UNK N   1      32.522  17.411   3.621  0.00  0.00     0.062 C 
BRANCH  16  17
HETATM   17  C   UNK N   1      32.606  17.421   5.059  0.00  0.00    -0.078 C 
HETATM   18  C   UNK N   1      32.758  17.318   6.247  0.00  0.00    -0.093 C 
BRANCH  18  19
HETATM   19  C   UNK N   1      32.997  17.125   7.668  0.00  0.00     0.013 C 
HETATM   20  C   UNK N   1      32.478  18.299   8.471  0.00  0.00     0.028 C 
HETATM   21  C   UNK N   1      32.451  15.797   8.137  0.00  0.00     0.028 C 
HETATM   22  C   UNK N   1      34.503  17.204   7.838  0.00  0.00     0.028 C 
ENDBRANCH  18  19
ENDBRANCH  16  17
ENDBRANCH  14  15
ENDBRANCH   1  14
TORSDOF 6
ENDMDL
MODEL 8
REMARK VINA RESULT:      -5.4     13.037     15.336
REMARK  6 active torsions:
REMARK  status: ('A' for Active; 'I' for Inactive)
REMARK    1  A    between atoms: N_1  and  C_2 
REMARK    2  A    between atoms: N_1  and  C_7 
REMARK    3  A    between atoms: C_2  and  C_3 
REMARK    4  A    between atoms: C_6  and  C_20 
REMARK    5  A    between atoms: C_7  and  C_17 
REMARK    6  A    between atoms: C_21  and  C_22 
ROOT
HETATM    1  N   UNK N   1      28.820  18.162   7.730  0.00  0.00     0.091 N 
HETATM    2  C   UNK N   1      28.356  18.420   9.082  0.00  0.00     0.310 C 
ENDROOT
BRANCH   1   3
HETATM    3  C   UNK N   1      29.581  16.922   7.605  0.00  0.00     0.311 C 
BRANCH   3   4
HETATM    4  C   UNK N   1      31.055  17.081   7.341  0.00  0.00    -0.019 A 
HETATM    5  C   UNK N   1      31.539  17.057   6.020  0.00  0.00    -0.018 A 
HETATM    6  C   UNK N   1      32.871  17.460   5.765  0.00  0.00    -0.025 A 
HETATM    7  C   UNK N   1      30.712  16.692   4.946  0.00  0.00     0.013 A 
HETATM    8  C   UNK N   1      33.718  17.800   6.823  0.00  0.00     0.012 A 
HETATM    9  C   UNK N   1      33.331  17.550   4.449  0.00  0.00     0.012 A 
HETATM   10  C   UNK N   1      33.253  17.744   8.135  0.00  0.00     0.002 A 
HETATM   11  C   UNK N   1      31.922  17.423   8.387  0.00  0.00     0.010 A 
HETATM   12  C   UNK N   1      32.494  17.197   3.388  0.00  0.00     0.001 A 
HETATM   13  C   UNK N   1      31.197  16.741   3.637  0.00  0.00     0.001 A 
ENDBRANCH   3   4
ENDBRANCH   1   3
BRANCH   1  14
HETATM   14  C   UNK N   1      27.753  18.254   6.744  0.00  0.00     0.300 C 
BRANCH  14  15
HETATM   15  C   UNK N   1      28.156  19.330   5.778  0.00  0.00     0.012 C 
HETATM   16  C   UNK N   1      27.943  19.198   4.460  0.00  0.00     0.062 C 
BRANCH  16  17
HETATM   17  C   UNK N   1      27.506  17.938   3.915  0.00  0.00    -0.078 C 
HETATM   18  C   UNK N   1      27.277  16.854   3.450  0.00  0.00    -0.093 C 
BRANCH  18  19
HETATM   19  C   UNK N   1      27.087  15.526   2.887  0.00  0.00     0.013 C 
HETATM   20  C   UNK N   1      25.878  15.489   1.977  0.00  0.00     0.028 C 
HETATM   21  C   UNK N   1      28.348  15.032   2.220  0.00  0.00     0.028 C 
HETATM   22  C   UNK N   1      26.688  14.646   4.058  0.00  0.00     0.028 C 
ENDBRANCH  18  19
ENDBRANCH  16  17
ENDBRANCH  14  15
ENDBRANCH   1  14
TORSDOF 6
ENDMDL
MODEL 9
REMARK VINA RESULT:      -5.4      1.745      3.633
REMARK  6 active torsions:
REMARK  status: ('A' for Active; 'I' for Inactive)
REMARK    1  A    between atoms: N_1  and  C_2 
REMARK    2  A    between atoms: N_1  and  C_7 
REMARK    3  A    between atoms: C_2  and  C_3 
REMARK    4  A    between atoms: C_6  and  C_20 
REMARK    5  A    between atoms: C_7  and  C_17 
REMARK    6  A    between atoms: C_21  and  C_22 
ROOT
HETATM    1  N   UNK N   1      30.389  28.668  -7.870  0.00  0.00     0.091 N 
HETATM    2  C   UNK N   1      30.913  28.438  -9.204  0.00  0.00     0.310 C 
ENDROOT
BRANCH   1   3
HETATM    3  C   UNK N   1      28.988  29.080  -7.861  0.00  0.00     0.311 C 
BRANCH   3   4
HETATM    4  C   UNK N   1      27.988  28.001  -7.535  0.00  0.00    -0.019 A 
HETATM    5  C   UNK N   1      27.218  28.090  -6.361  0.00  0.00    -0.018 A 
HETATM    6  C   UNK N   1      26.113  27.221  -6.193  0.00  0.00    -0.025 A 
HETATM    7  C   UNK N   1      27.491  29.055  -5.378  0.00  0.00     0.013 A 
HETATM    8  C   UNK N   1      25.842  26.236  -7.145  0.00  0.00     0.012 A 
HETATM    9  C   UNK N   1      25.272  27.370  -5.088  0.00  0.00     0.012 A 
HETATM   10  C   UNK N   1      26.659  26.105  -8.266  0.00  0.00     0.002 A 
HETATM   11  C   UNK N   1      27.700  27.005  -8.475  0.00  0.00     0.010 A 
HETATM   12  C   UNK N   1      25.547  28.344  -4.123  0.00  0.00     0.001 A 
HETATM   13  C   UNK N   1      26.670  29.165  -4.254  0.00  0.00     0.001 A 
ENDBRANCH   3   4
ENDBRANCH   1   3
BRANCH   1  14
HETATM   14  C   UNK N   1      30.639  27.553  -6.968  0.00  0.00     0.300 C 
BRANCH  14  15
HETATM   15  C   UNK N   1      31.075  28.149  -5.662  0.00  0.00     0.012 C 
HETATM   16  C   UNK N   1      30.755  27.575  -4.493  0.00  0.00     0.062 C 
BRANCH  16  17
HETATM   17  C   UNK N   1      29.816  26.483  -4.450  0.00  0.00    -0.078 C 
HETATM   18  C   UNK N   1      29.088  25.540  -4.291  0.00  0.00    -0.093 C 
BRANCH  18  19
HETATM   19  C   UNK N   1      28.246  24.386  -4.018  0.00  0.00     0.013 C 
HETATM   20  C   UNK N   1      28.997  23.338  -3.226  0.00  0.00     0.028 C 
HETATM   21  C   UNK N   1      26.946  24.802  -3.371  0.00  0.00     0.028 C 
HETATM   22  C   UNK N   1      28.016  23.728  -5.368  0.00  0.00     0.028 C 
ENDBRANCH  18  19
ENDBRANCH  16  17
ENDBRANCH  14  15
ENDBRANCH   1  14
TORSDOF 6
ENDMDL
