MODEL 1
REMARK VINA RESULT:      -4.7      0.000      0.000
REMARK  6 active torsions:
REMARK  status: ('A' for Active; 'I' for Inactive)
REMARK       I    between atoms: N_1  and  C_2 
REMARK    1  A    between atoms: C_7  and  C_2 
REMARK    2  A    between atoms: O_4  and  C_3 
REMARK    3  A    between atoms: C_5  and  C_3 
REMARK    4  A    between atoms: C_5  and  N_9 
REMARK    5  A    between atoms: C_6  and  C_5 
REMARK    6  A    between atoms: C_7  and  C_6 
ROOT
HETATM    1  C   UNK N   1      20.845  19.704   1.819  0.00  0.00     0.173 C 
ENDROOT
BRANCH   1   2
HETATM    2  C   UNK N   1      21.014  20.743   2.892  0.00  0.00     0.163 C 
HETATM    3  O   UNK N   1      20.314  20.705   3.889  0.00  0.00    -0.648 OA
BRANCH   2   4
HETATM    4  O   UNK N   1      21.950  21.708   2.772  0.00  0.00    -0.775 OA
HETATM    5  H   UNK N   1      21.747  22.623   2.758  0.00  0.00     0.167 HD
ENDBRANCH   2   4
ENDBRANCH   1   2
BRANCH   1   6
HETATM    6  N   UNK N   1      20.481  20.322   0.552  0.00  0.00    -0.418 N 
HETATM    7  H   UNK N   1      19.706  20.981   0.483  0.00  0.00     0.150 HD
HETATM    8  H   UNK N   1      21.015  20.091  -0.285  0.00  0.00     0.150 HD
ENDBRANCH   1   6
BRANCH   1   9
HETATM    9  C   UNK N   1      19.785  18.696   2.234  0.00  0.00     0.044 C 
BRANCH   9  10
HETATM   10  C   UNK N   1      20.258  17.268   1.987  0.00  0.00     0.105 C 
BRANCH  10  11
HETATM   11  C   UNK N   1      19.870  16.767   0.625  0.00  0.00     0.215 C 
HETATM   12  N   UNK N   1      18.976  15.766   0.519  0.00  0.00    -0.370 N 
HETATM   13  H   UNK N   1      18.604  15.515  -0.358  0.00  0.00     0.159 HD
HETATM   14  H   UNK N   1      18.691  15.279   1.326  0.00  0.00     0.159 HD
HETATM   15  O   UNK N   1      20.348  17.259  -0.386  0.00  0.00    -0.274 OA
ENDBRANCH  10  11
ENDBRANCH   9  10
ENDBRANCH   1   9
TORSDOF 6
ENDMDL
MODEL 2
REMARK VINA RESULT:      -4.5      2.554      4.202
REMARK  6 active torsions:
REMARK  status: ('A' for Active; 'I' for Inactive)
REMARK       I    between atoms: N_1  and  C_2 
REMARK    1  A    between atoms: C_7  and  C_2 
REMARK    2  A    between atoms: O_4  and  C_3 
REMARK    3  A    between atoms: C_5  and  C_3 
REMARK    4  A    between atoms: C_5  and  N_9 
REMARK    5  A    between atoms: C_6  and  C_5 
REMARK    6  A    between atoms: C_7  and  C_6 
ROOT
HETATM    1  C   UNK N   1      20.660  19.424   2.110  0.00  0.00     0.173 C 
ENDROOT
BRANCH   1   2
HETATM    2  C   UNK N   1      20.814  20.566   1.145  0.00  0.00     0.163 C 
HETATM    3  O   UNK N   1      20.881  20.346  -0.052  0.00  0.00    -0.648 OA
BRANCH   2   4
HETATM    4  O   UNK N   1      20.856  21.840   1.590  0.00  0.00    -0.775 OA
HETATM    5  H   UNK N   1      21.580  22.415   1.435  0.00  0.00     0.167 HD
ENDBRANCH   2   4
ENDBRANCH   1   2
BRANCH   1   6
HETATM    6  N   UNK N   1      19.256  19.085   2.291  0.00  0.00    -0.418 N 
HETATM    7  H   UNK N   1      18.793  19.194   3.194  0.00  0.00     0.150 HD
HETATM    8  H   UNK N   1      18.723  18.731   1.498  0.00  0.00     0.150 HD
ENDBRANCH   1   6
BRANCH   1   9
HETATM    9  C   UNK N   1      21.289  19.784   3.446  0.00  0.00     0.044 C 
BRANCH   9  10
HETATM   10  C   UNK N   1      22.689  19.195   3.570  0.00  0.00     0.105 C 
BRANCH  10  11
HETATM   11  C   UNK N   1      23.759  20.192   3.221  0.00  0.00     0.215 C 
HETATM   12  N   UNK N   1      25.041  19.786   3.147  0.00  0.00    -0.370 N 
HETATM   13  H   UNK N   1      25.737  20.384   2.789  0.00  0.00     0.159 HD
HETATM   14  H   UNK N   1      25.286  18.884   3.456  0.00  0.00     0.159 HD
HETATM   15  O   UNK N   1      23.481  21.359   2.997  0.00  0.00    -0.274 OA
ENDBRANCH  10  11
ENDBRANCH   9  10
ENDBRANCH   1   9
TORSDOF 6
ENDMDL
MODEL 3
REMARK VINA RESULT:      -4.4      3.110      4.195
REMARK  6 active torsions:
REMARK  status: ('A' for Active; 'I' for Inactive)
REMARK       I    between atoms: N_1  and  C_2 
REMARK    1  A    between atoms: C_7  and  C_2 
REMARK    2  A    between atoms: O_4  and  C_3 
REMARK    3  A    between atoms: C_5  and  C_3 
REMARK    4  A    between atoms: C_5  and  N_9 
REMARK    5  A    between atoms: C_6  and  C_5 
REMARK    6  A    between atoms: C_7  and  C_6 
ROOT
HETATM    1  C   UNK N   1      20.454  19.158   2.306  0.00  0.00     0.173 C 
ENDROOT
BRANCH   1   2
HETATM    2  C   UNK N   1      20.871  20.270   1.384  0.00  0.00     0.163 C 
HETATM    3  O   UNK N   1      21.405  21.266   1.838  0.00  0.00    -0.648 OA
BRANCH   2   4
HETATM    4  O   UNK N   1      20.679  20.166   0.052  0.00  0.00    -0.775 OA
HETATM    5  H   UNK N   1      21.379  20.179  -0.571  0.00  0.00     0.167 HD
ENDBRANCH   2   4
ENDBRANCH   1   2
BRANCH   1   6
HETATM    6  N   UNK N   1      19.004  19.050   2.365  0.00  0.00    -0.418 N 
HETATM    7  H   UNK N   1      18.421  19.842   2.637  0.00  0.00     0.150 HD
HETATM    8  H   UNK N   1      18.560  18.164   2.129  0.00  0.00     0.150 HD
ENDBRANCH   1   6
BRANCH   1   9
HETATM    9  C   UNK N   1      21.020  19.395   3.697  0.00  0.00     0.044 C 
BRANCH   9  10
HETATM   10  C   UNK N   1      20.983  18.120   4.530  0.00  0.00     0.105 C 
BRANCH  10  11
HETATM   11  C   UNK N   1      21.804  18.235   5.784  0.00  0.00     0.215 C 
HETATM   12  N   UNK N   1      23.129  18.001   5.731  0.00  0.00    -0.370 N 
HETATM   13  H   UNK N   1      23.706  18.202   6.502  0.00  0.00     0.159 HD
HETATM   14  H   UNK N   1      23.525  17.623   4.912  0.00  0.00     0.159 HD
HETATM   15  O   UNK N   1      21.288  18.545   6.846  0.00  0.00    -0.274 OA
ENDBRANCH  10  11
ENDBRANCH   9  10
ENDBRANCH   1   9
TORSDOF 6
ENDMDL
MODEL 4
REMARK VINA RESULT:      -4.4     10.447     11.349
REMARK  6 active torsions:
REMARK  status: ('A' for Active; 'I' for Inactive)
REMARK       I    between atoms: N_1  and  C_2 
REMARK    1  A    between atoms: C_7  and  C_2 
REMARK    2  A    between atoms: O_4  and  C_3 
REMARK    3  A    between atoms: C_5  and  C_3 
REMARK    4  A    between atoms: C_5  and  N_9 
REMARK    5  A    between atoms: C_6  and  C_5 
REMARK    6  A    between atoms: C_7  and  C_6 
ROOT
HETATM    1  C   UNK N   1      22.959  11.596  10.759  0.00  0.00     0.173 C 
ENDROOT
BRANCH   1   2
HETATM    2  C   UNK N   1      23.940  12.041  11.808  0.00  0.00     0.163 C 
HETATM    3  O   UNK N   1      23.632  11.995  12.986  0.00  0.00    -0.648 OA
BRANCH   2   4
HETATM    4  O   UNK N   1      25.171  12.471  11.458  0.00  0.00    -0.775 OA
HETATM    5  H   UNK N   1      25.848  11.899  11.151  0.00  0.00     0.167 HD
ENDBRANCH   2   4
ENDBRANCH   1   2
BRANCH   1   6
HETATM    6  N   UNK N   1      23.574  11.599   9.440  0.00  0.00    -0.418 N 
HETATM    7  H   UNK N   1      24.550  11.864   9.307  0.00  0.00     0.150 HD
HETATM    8  H   UNK N   1      23.016  11.329   8.631  0.00  0.00     0.150 HD
ENDBRANCH   1   6
BRANCH   1   9
HETATM    9  C   UNK N   1      21.739  12.504  10.771  0.00  0.00     0.044 C 
BRANCH   9  10
HETATM   10  C   UNK N   1      21.908  13.665   9.799  0.00  0.00     0.105 C 
BRANCH  10  11
HETATM   11  C   UNK N   1      20.616  14.390   9.548  0.00  0.00     0.215 C 
HETATM   12  N   UNK N   1      20.642  15.604   8.966  0.00  0.00    -0.370 N 
HETATM   13  H   UNK N   1      19.809  16.036   8.667  0.00  0.00     0.159 HD
HETATM   14  H   UNK N   1      21.503  16.066   8.838  0.00  0.00     0.159 HD
HETATM   15  O   UNK N   1      19.545  13.891   9.856  0.00  0.00    -0.274 OA
ENDBRANCH  10  11
ENDBRANCH   9  10
ENDBRANCH   1   9
TORSDOF 6
ENDMDL
MODEL 5
REMARK VINA RESULT:      -4.4     15.261     15.723
REMARK  6 active torsions:
REMARK  status: ('A' for Active; 'I' for Inactive)
REMARK       I    between atoms: N_1  and  C_2 
REMARK    1  A    between atoms: C_7  and  C_2 
REMARK    2  A    between atoms: O_4  and  C_3 
REMARK    3  A    between atoms: C_5  and  C_3 
REMARK    4  A    between atoms: C_5  and  N_9 
REMARK    5  A    between atoms: C_6  and  C_5 
REMARK    6  A    between atoms: C_7  and  C_6 
ROOT
HETATM    1  C   UNK N   1      34.376  17.149   9.130  0.00  0.00     0.173 C 
ENDROOT
BRANCH   1   2
HETATM    2  C   UNK N   1      34.722  18.259   8.178  0.00  0.00     0.163 C 
HETATM    3  O   UNK N   1      35.306  19.248   8.584  0.00  0.00    -0.648 OA
BRANCH   2   4
HETATM    4  O   UNK N   1      34.410  18.162   6.868  0.00  0.00    -0.775 OA
HETATM    5  H   UNK N   1      34.591  17.402   6.351  0.00  0.00     0.167 HD
ENDBRANCH   2   4
ENDBRANCH   1   2
BRANCH   1   6
HETATM    6  N   UNK N   1      35.056  17.329  10.404  0.00  0.00    -0.418 N 
HETATM    7  H   UNK N   1      34.613  17.070  11.286  0.00  0.00     0.150 HD
HETATM    8  H   UNK N   1      35.996  17.723  10.416  0.00  0.00     0.150 HD
ENDBRANCH   1   6
BRANCH   1   9
HETATM    9  C   UNK N   1      34.751  15.807   8.521  0.00  0.00     0.044 C 
BRANCH   9  10
HETATM   10  C   UNK N   1      34.181  14.654   9.339  0.00  0.00     0.105 C 
BRANCH  10  11
HETATM   11  C   UNK N   1      32.687  14.549   9.210  0.00  0.00     0.215 C 
HETATM   12  N   UNK N   1      31.904  14.991  10.213  0.00  0.00    -0.370 N 
HETATM   13  H   UNK N   1      30.929  15.059  10.095  0.00  0.00     0.159 HD
HETATM   14  H   UNK N   1      32.310  15.247  11.072  0.00  0.00     0.159 HD
HETATM   15  O   UNK N   1      32.175  14.076   8.207  0.00  0.00    -0.274 OA
ENDBRANCH  10  11
ENDBRANCH   9  10
ENDBRANCH   1   9
TORSDOF 6
ENDMDL
MODEL 6
REMARK VINA RESULT:      -4.4     13.241     14.065
REMARK  6 active torsions:
REMARK  status: ('A' for Active; 'I' for Inactive)
REMARK       I    between atoms: N_1  and  C_2 
REMARK    1  A    between atoms: C_7  and  C_2 
REMARK    2  A    between atoms: O_4  and  C_3 
REMARK    3  A    between atoms: C_5  and  C_3 
REMARK    4  A    between atoms: C_5  and  N_9 
REMARK    5  A    between atoms: C_6  and  C_5 
REMARK    6  A    between atoms: C_7  and  C_6 
ROOT
HETATM    1  C   UNK N   1      33.171  17.789   8.666  0.00  0.00     0.173 C 
ENDROOT
BRANCH   1   2
HETATM    2  C   UNK N   1      34.364  18.292   7.902  0.00  0.00     0.163 C 
HETATM    3  O   UNK N   1      34.535  17.945   6.746  0.00  0.00    -0.648 OA
BRANCH   2   4
HETATM    4  O   UNK N   1      35.239  19.144   8.477  0.00  0.00    -0.775 OA
HETATM    5  H   UNK N   1      36.167  19.079   8.367  0.00  0.00     0.167 HD
ENDBRANCH   2   4
ENDBRANCH   1   2
BRANCH   1   6
HETATM    6  N   UNK N   1      33.516  16.611   9.448  0.00  0.00    -0.418 N 
HETATM    7  H   UNK N   1      33.034  16.389  10.320  0.00  0.00     0.150 HD
HETATM    8  H   UNK N   1      34.256  15.993   9.117  0.00  0.00     0.150 HD
ENDBRANCH   1   6
BRANCH   1   9
HETATM    9  C   UNK N   1      32.036  17.468   7.706  0.00  0.00     0.044 C 
BRANCH   9  10
HETATM   10  C   UNK N   1      30.806  16.974   8.457  0.00  0.00     0.105 C 
BRANCH  10  11
HETATM   11  C   UNK N   1      29.870  18.094   8.814  0.00  0.00     0.215 C 
HETATM   12  N   UNK N   1      29.864  18.575  10.072  0.00  0.00    -0.370 N 
HETATM   13  H   UNK N   1      29.364  19.393  10.296  0.00  0.00     0.159 HD
HETATM   14  H   UNK N   1      30.365  18.103  10.777  0.00  0.00     0.159 HD
HETATM   15  O   UNK N   1      29.121  18.578   7.980  0.00  0.00    -0.274 OA
ENDBRANCH  10  11
ENDBRANCH   9  10
ENDBRANCH   1   9
TORSDOF 6
ENDMDL
MODEL 7
REMARK VINA RESULT:      -4.3     18.299     18.823
REMARK  6 active torsions:
REMARK  status: ('A' for Active; 'I' for Inactive)
REMARK       I    between atoms: N_1  and  C_2 
REMARK    1  A    between atoms: C_7  and  C_2 
REMARK    2  A    between atoms: O_4  and  C_3 
REMARK    3  A    between atoms: C_5  and  C_3 
REMARK    4  A    between atoms: C_5  and  N_9 
REMARK    5  A    between atoms: C_6  and  C_5 
REMARK    6  A    between atoms: C_7  and  C_6 
ROOT
HETATM    1  C   UNK N   1      34.938  14.939  10.330  0.00  0.00     0.173 C 
ENDROOT
BRANCH   1   2
HETATM    2  C   UNK N   1      35.725  16.183  10.637  0.00  0.00     0.163 C 
HETATM    3  O   UNK N   1      35.170  17.267  10.640  0.00  0.00    -0.648 OA
BRANCH   2   4
HETATM    4  O   UNK N   1      37.040  16.108  10.934  0.00  0.00    -0.775 OA
HETATM    5  H   UNK N   1      37.657  16.776  10.707  0.00  0.00     0.167 HD
ENDBRANCH   2   4
ENDBRANCH   1   2
BRANCH   1   6
HETATM    6  N   UNK N   1      33.587  15.036  10.863  0.00  0.00    -0.418 N 
HETATM    7  H   UNK N   1      33.403  14.978  11.864  0.00  0.00     0.150 HD
HETATM    8  H   UNK N   1      32.807  15.166  10.220  0.00  0.00     0.150 HD
ENDBRANCH   1   6
BRANCH   1   9
HETATM    9  C   UNK N   1      35.643  13.722  10.907  0.00  0.00     0.044 C 
BRANCH   9  10
HETATM   10  C   UNK N   1      34.908  13.190  12.131  0.00  0.00     0.105 C 
BRANCH  10  11
HETATM   11  C   UNK N   1      35.571  13.599  13.416  0.00  0.00     0.215 C 
HETATM   12  N   UNK N   1      36.804  14.141  13.380  0.00  0.00    -0.370 N 
HETATM   13  H   UNK N   1      37.200  14.541  14.188  0.00  0.00     0.159 HD
HETATM   14  H   UNK N   1      37.315  14.136  12.538  0.00  0.00     0.159 HD
HETATM   15  O   UNK N   1      35.006  13.456  14.488  0.00  0.00    -0.274 OA
ENDBRANCH  10  11
ENDBRANCH   9  10
ENDBRANCH   1   9
TORSDOF 6
ENDMDL
MODEL 8
REMARK VINA RESULT:      -4.3      1.177      4.522
REMARK  6 active torsions:
REMARK  status: ('A' for Active; 'I' for Inactive)
REMARK       I    between atoms: N_1  and  C_2 
REMARK    1  A    between atoms: C_7  and  C_2 
REMARK    2  A    between atoms: O_4  and  C_3 
REMARK    3  A    between atoms: C_5  and  C_3 
REMARK    4  A    between atoms: C_5  and  N_9 
REMARK    5  A    between atoms: C_6  and  C_5 
REMARK    6  A    between atoms: C_7  and  C_6 
ROOT
HETATM    1  C   UNK N   1      20.118  17.081   2.122  0.00  0.00     0.173 C 
ENDROOT
BRANCH   1   2
HETATM    2  C   UNK N   1      19.791  16.894   0.667  0.00  0.00     0.163 C 
HETATM    3  O   UNK N   1      20.410  17.517  -0.179  0.00  0.00    -0.648 OA
BRANCH   2   4
HETATM    4  O   UNK N   1      18.831  16.026   0.285  0.00  0.00    -0.775 OA
HETATM    5  H   UNK N   1      18.864  15.108   0.472  0.00  0.00     0.167 HD
ENDBRANCH   2   4
ENDBRANCH   1   2
BRANCH   1   6
HETATM    6  N   UNK N   1      19.536  16.015   2.924  0.00  0.00    -0.418 N 
HETATM    7  H   UNK N   1      19.428  16.106   3.935  0.00  0.00     0.150 HD
HETATM    8  H   UNK N   1      19.229  15.159   2.466  0.00  0.00     0.150 HD
ENDBRANCH   1   6
BRANCH   1   9
HETATM    9  C   UNK N   1      19.612  18.433   2.600  0.00  0.00     0.044 C 
BRANCH   9  10
HETATM   10  C   UNK N   1      20.749  19.278   3.160  0.00  0.00     0.105 C 
BRANCH  10  11
HETATM   11  C   UNK N   1      21.126  20.407   2.242  0.00  0.00     0.215 C 
HETATM   12  N   UNK N   1      20.602  20.453   1.002  0.00  0.00    -0.370 N 
HETATM   13  H   UNK N   1      20.724  21.248   0.434  0.00  0.00     0.159 HD
HETATM   14  H   UNK N   1      20.093  19.684   0.658  0.00  0.00     0.159 HD
HETATM   15  O   UNK N   1      21.893  21.284   2.606  0.00  0.00    -0.274 OA
ENDBRANCH  10  11
ENDBRANCH   9  10
ENDBRANCH   1   9
TORSDOF 6
ENDMDL
MODEL 9
REMARK VINA RESULT:      -4.2     13.593     14.243
REMARK  6 active torsions:
REMARK  status: ('A' for Active; 'I' for Inactive)
REMARK       I    between atoms: N_1  and  C_2 
REMARK    1  A    between atoms: C_7  and  C_2 
REMARK    2  A    between atoms: O_4  and  C_3 
REMARK    3  A    between atoms: C_5  and  C_3 
REMARK    4  A    between atoms: C_5  and  N_9 
REMARK    5  A    between atoms: C_6  and  C_5 
REMARK    6  A    between atoms: C_7  and  C_6 
ROOT
HETATM    1  C   UNK N   1      33.638  17.513   8.964  0.00  0.00     0.173 C 
ENDROOT
BRANCH   1   2
HETATM    2  C   UNK N   1      34.506  18.299   8.021  0.00  0.00     0.163 C 
HETATM    3  O   UNK N   1      35.240  19.170   8.454  0.00  0.00    -0.648 OA
BRANCH   2   4
HETATM    4  O   UNK N   1      34.496  18.033   6.698  0.00  0.00    -0.775 OA
HETATM    5  H   UNK N   1      34.494  17.164   6.347  0.00  0.00     0.167 HD
ENDBRANCH   2   4
ENDBRANCH   1   2
BRANCH   1   6
HETATM    6  N   UNK N   1      34.432  16.937  10.040  0.00  0.00    -0.418 N 
HETATM    7  H   UNK N   1      35.129  16.214   9.860  0.00  0.00     0.150 HD
HETATM    8  H   UNK N   1      34.288  17.264  10.994  0.00  0.00     0.150 HD
ENDBRANCH   1   6
BRANCH   1   9
HETATM    9  C   UNK N   1      32.907  16.416   8.207  0.00  0.00     0.044 C 
BRANCH   9  10
HETATM   10  C   UNK N   1      31.404  16.668   8.192  0.00  0.00     0.105 C 
BRANCH  10  11
HETATM   11  C   UNK N   1      30.897  17.008   6.819  0.00  0.00     0.215 C 
HETATM   12  N   UNK N   1      31.776  17.170   5.811  0.00  0.00    -0.370 N 
HETATM   13  H   UNK N   1      31.464  17.256   4.881  0.00  0.00     0.159 HD
HETATM   14  H   UNK N   1      32.741  17.203   6.006  0.00  0.00     0.159 HD
HETATM   15  O   UNK N   1      29.701  17.132   6.603  0.00  0.00    -0.274 OA
ENDBRANCH  10  11
ENDBRANCH   9  10
ENDBRANCH   1   9
TORSDOF 6
ENDMDL
