MODEL 1
REMARK VINA RESULT:      -7.7      0.000      0.000
REMARK  4 active torsions:
REMARK  status: ('A' for Active; 'I' for Inactive)
REMARK    1  A    between atoms: C_14  and  O_20 
REMARK    2  A    between atoms: C_17  and  C_26 
REMARK    3  A    between atoms: C_26  and  C_27 
REMARK    4  A    between atoms: C_27  and  O_29 
ROOT
HETATM    1  C   UNK N   1      30.439  17.590   7.806  0.00  0.00     0.052 C 
HETATM    2  C   UNK N   1      30.372  17.229   6.383  0.00  0.00     0.172 C 
HETATM    3  C   UNK N   1      31.542  16.634   5.734  0.00  0.00     0.061 C 
HETATM    4  C   UNK N   1      32.709  16.528   6.392  0.00  0.00    -0.027 C 
HETATM    5  C   UNK N   1      32.897  17.042   7.816  0.00  0.00     0.039 C 
HETATM    6  C   UNK N   1      31.603  17.503   8.471  0.00  0.00    -0.006 C 
HETATM    7  C   UNK N   1      33.928  16.026   5.681  0.00  0.00     0.201 C 
HETATM    8  C   UNK N   1      34.533  14.919   6.507  0.00  0.00     0.050 C 
HETATM    9  C   UNK N   1      34.938  15.402   7.912  0.00  0.00     0.037 C 
HETATM   10  C   UNK N   1      33.725  16.039   8.731  0.00  0.00     0.147 C 
HETATM   11  C   UNK N   1      35.521  14.142   8.605  0.00  0.00     0.005 C 
HETATM   12  C   UNK N   1      35.518  14.235  10.116  0.00  0.00     0.001 C 
HETATM   13  C   UNK N   1      34.016  14.236  10.552  0.00  0.00     0.048 C 
HETATM   14  C   UNK N   1      33.022  14.875   9.496  0.00  0.00     0.160 C 
HETATM   15  C   UNK N   1      36.919  13.701   8.194  0.00  0.00     0.013 C 
HETATM   16  C   UNK N   1      37.535  13.060   9.449  0.00  0.00     0.025 C 
HETATM   17  C   UNK N   1      36.370  12.998  10.494  0.00  0.00     0.131 C 
HETATM   18  O   UNK N   1      29.359  17.453   5.737  0.00  0.00    -0.289 OA
HETATM   19  C   UNK N   1      33.731  18.313   7.650  0.00  0.00     0.028 C 
HETATM   20  C   UNK N   1      36.238  15.498  10.619  0.00  0.00     0.019 C 
HETATM   21  F   UNK N   1      34.203  16.841   9.760  0.00  0.00    -0.238 F 
HETATM   22  F   UNK N   1      33.650  15.573   4.403  0.00  0.00    -0.245 F 
HETATM   23  O   UNK N   1      35.637  11.835  10.221  0.00  0.00    -0.381 OA
HETATM   24  C   UNK N   1      38.707  13.964   9.812  0.00  0.00     0.013 C 
HETATM   25  H   UNK N   1      35.078  11.063  10.042  0.00  0.00     0.211 HD
ENDROOT
BRANCH  17  26
HETATM   26  C   UNK N   1      36.755  12.945  11.975  0.00  0.00     0.185 C 
HETATM   27  O   UNK N   1      37.740  12.307  12.307  0.00  0.00    -0.292 OA
BRANCH  26  28
HETATM   28  C   UNK N   1      35.971  13.640  13.050  0.00  0.00     0.245 C 
BRANCH  28  29
HETATM   29  O   UNK N   1      36.812  14.440  13.825  0.00  0.00    -0.393 OA
HETATM   30  H   UNK N   1      36.659  15.351  14.122  0.00  0.00     0.209 HD
ENDBRANCH  28  29
ENDBRANCH  26  28
ENDBRANCH  17  26
BRANCH  14  31
HETATM   31  O   UNK N   1      31.893  15.313  10.188  0.00  0.00    -0.392 OA
HETATM   32  H   UNK N   1      31.851  15.244  11.155  0.00  0.00     0.210 HD
ENDBRANCH  14  31
TORSDOF 4
ENDMDL
MODEL 2
REMARK VINA RESULT:      -7.7      3.769      8.167
REMARK  4 active torsions:
REMARK  status: ('A' for Active; 'I' for Inactive)
REMARK    1  A    between atoms: C_14  and  O_20 
REMARK    2  A    between atoms: C_17  and  C_26 
REMARK    3  A    between atoms: C_26  and  C_27 
REMARK    4  A    between atoms: C_27  and  O_29 
ROOT
HETATM    1  C   UNK N   1      34.838  10.460  16.713  0.00  0.00     0.052 C 
HETATM    2  C   UNK N   1      36.163   9.968  17.114  0.00  0.00     0.172 C 
HETATM    3  C   UNK N   1      37.233   9.882  16.117  0.00  0.00     0.061 C 
HETATM    4  C   UNK N   1      36.982  10.132  14.821  0.00  0.00    -0.027 C 
HETATM    5  C   UNK N   1      35.587  10.479  14.309  0.00  0.00     0.039 C 
HETATM    6  C   UNK N   1      34.569  10.699  15.419  0.00  0.00    -0.006 C 
HETATM    7  C   UNK N   1      38.054   9.928  13.795  0.00  0.00     0.201 C 
HETATM    8  C   UNK N   1      38.155  11.181  12.963  0.00  0.00     0.050 C 
HETATM    9  C   UNK N   1      36.832  11.505  12.244  0.00  0.00     0.037 C 
HETATM   10  C   UNK N   1      35.597  11.659  13.242  0.00  0.00     0.147 C 
HETATM   11  C   UNK N   1      37.124  12.812  11.460  0.00  0.00     0.005 C 
HETATM   12  C   UNK N   1      35.874  13.582  11.094  0.00  0.00     0.001 C 
HETATM   13  C   UNK N   1      35.261  14.088  12.442  0.00  0.00     0.048 C 
HETATM   14  C   UNK N   1      35.547  13.153  13.690  0.00  0.00     0.160 C 
HETATM   15  C   UNK N   1      37.956  12.695  10.189  0.00  0.00     0.013 C 
HETATM   16  C   UNK N   1      37.447  13.808   9.259  0.00  0.00     0.025 C 
HETATM   17  C   UNK N   1      36.449  14.647  10.127  0.00  0.00     0.131 C 
HETATM   18  O   UNK N   1      36.365   9.602  18.262  0.00  0.00    -0.289 OA
HETATM   19  C   UNK N   1      35.123   9.212  13.591  0.00  0.00     0.028 C 
HETATM   20  C   UNK N   1      34.864  12.714  10.322  0.00  0.00     0.019 C 
HETATM   21  F   UNK N   1      34.398  11.501  12.557  0.00  0.00    -0.238 F 
HETATM   22  F   UNK N   1      39.282   9.628  14.361  0.00  0.00    -0.245 F 
HETATM   23  O   UNK N   1      37.215  15.564  10.859  0.00  0.00    -0.381 OA
HETATM   24  C   UNK N   1      36.839  13.074   8.070  0.00  0.00     0.013 C 
HETATM   25  H   UNK N   1      37.709  16.188  11.415  0.00  0.00     0.211 HD
ENDROOT
BRANCH  17  26
HETATM   26  C   UNK N   1      35.376  15.451   9.389  0.00  0.00     0.185 C 
HETATM   27  O   UNK N   1      35.069  15.124   8.254  0.00  0.00    -0.292 OA
BRANCH  26  28
HETATM   28  C   UNK N   1      34.680  16.636   9.992  0.00  0.00     0.245 C 
BRANCH  28  29
HETATM   29  O   UNK N   1      35.569  17.702  10.134  0.00  0.00    -0.393 OA
HETATM   30  H   UNK N   1      36.386  17.730  10.656  0.00  0.00     0.209 HD
ENDBRANCH  28  29
ENDBRANCH  26  28
ENDBRANCH  17  26
BRANCH  14  31
HETATM   31  O   UNK N   1      34.542  13.383  14.630  0.00  0.00    -0.392 OA
HETATM   32  H   UNK N   1      33.764  13.913  14.398  0.00  0.00     0.210 HD
ENDBRANCH  14  31
TORSDOF 4
ENDMDL
MODEL 3
REMARK VINA RESULT:      -7.7      3.558      5.761
REMARK  4 active torsions:
REMARK  status: ('A' for Active; 'I' for Inactive)
REMARK    1  A    between atoms: C_14  and  O_20 
REMARK    2  A    between atoms: C_17  and  C_26 
REMARK    3  A    between atoms: C_26  and  C_27 
REMARK    4  A    between atoms: C_27  and  O_29 
ROOT
HETATM    1  C   UNK N   1      27.519  19.100   4.486  0.00  0.00     0.052 C 
HETATM    2  C   UNK N   1      27.243  19.955   5.648  0.00  0.00     0.172 C 
HETATM    3  C   UNK N   1      27.821  19.612   6.950  0.00  0.00     0.061 C 
HETATM    4  C   UNK N   1      28.497  18.463   7.116  0.00  0.00    -0.027 C 
HETATM    5  C   UNK N   1      28.672  17.445   5.993  0.00  0.00     0.039 C 
HETATM    6  C   UNK N   1      28.180  17.942   4.641  0.00  0.00    -0.006 C 
HETATM    7  C   UNK N   1      28.982  18.068   8.477  0.00  0.00     0.201 C 
HETATM    8  C   UNK N   1      30.447  17.726   8.374  0.00  0.00     0.050 C 
HETATM    9  C   UNK N   1      30.701  16.562   7.397  0.00  0.00     0.037 C 
HETATM   10  C   UNK N   1      30.143  16.844   5.929  0.00  0.00     0.147 C 
HETATM   11  C   UNK N   1      32.240  16.366   7.416  0.00  0.00     0.005 C 
HETATM   12  C   UNK N   1      32.766  15.645   6.194  0.00  0.00     0.001 C 
HETATM   13  C   UNK N   1      32.530  16.607   4.983  0.00  0.00     0.048 C 
HETATM   14  C   UNK N   1      31.275  17.564   5.133  0.00  0.00     0.160 C 
HETATM   15  C   UNK N   1      32.842  15.671   8.630  0.00  0.00     0.013 C 
HETATM   16  C   UNK N   1      34.074  14.917   8.104  0.00  0.00     0.025 C 
HETATM   17  C   UNK N   1      34.232  15.372   6.614  0.00  0.00     0.131 C 
HETATM   18  O   UNK N   1      26.511  20.928   5.539  0.00  0.00    -0.289 OA
HETATM   19  C   UNK N   1      27.723  16.306   6.366  0.00  0.00     0.028 C 
HETATM   20  C   UNK N   1      32.061  14.296   5.970  0.00  0.00     0.019 C 
HETATM   21  F   UNK N   1      29.987  15.651   5.233  0.00  0.00    -0.238 F 
HETATM   22  F   UNK N   1      28.787  19.062   9.421  0.00  0.00    -0.245 F 
HETATM   23  O   UNK N   1      34.938  16.583   6.628  0.00  0.00    -0.381 OA
HETATM   24  C   UNK N   1      33.751  13.443   8.320  0.00  0.00     0.013 C 
HETATM   25  H   UNK N   1      35.388  17.442   6.594  0.00  0.00     0.211 HD
ENDROOT
BRANCH  17  26
HETATM   26  C   UNK N   1      34.979  14.431   5.665  0.00  0.00     0.185 C 
HETATM   27  O   UNK N   1      34.425  14.062   4.642  0.00  0.00    -0.292 OA
BRANCH  26  28
HETATM   28  C   UNK N   1      36.368  13.932   5.933  0.00  0.00     0.245 C 
BRANCH  28  29
HETATM   29  O   UNK N   1      37.303  14.937   5.687  0.00  0.00    -0.393 OA
HETATM   30  H   UNK N   1      37.633  15.248   4.829  0.00  0.00     0.209 HD
ENDBRANCH  28  29
ENDBRANCH  26  28
ENDBRANCH  17  26
BRANCH  14  31
HETATM   31  O   UNK N   1      30.864  17.926   3.850  0.00  0.00    -0.392 OA
HETATM   32  H   UNK N   1      31.320  18.632   3.368  0.00  0.00     0.210 HD
ENDBRANCH  14  31
TORSDOF 4
ENDMDL
MODEL 4
REMARK VINA RESULT:      -7.6      2.438      4.101
REMARK  4 active torsions:
REMARK  status: ('A' for Active; 'I' for Inactive)
REMARK    1  A    between atoms: C_14  and  O_20 
REMARK    2  A    between atoms: C_17  and  C_26 
REMARK    3  A    between atoms: C_26  and  C_27 
REMARK    4  A    between atoms: C_27  and  O_29 
ROOT
HETATM    1  C   UNK N   1      28.106  17.817   4.284  0.00  0.00     0.052 C 
HETATM    2  C   UNK N   1      27.493  16.545   3.877  0.00  0.00     0.172 C 
HETATM    3  C   UNK N   1      28.262  15.304   3.993  0.00  0.00     0.061 C 
HETATM    4  C   UNK N   1      29.557  15.333   4.351  0.00  0.00    -0.027 C 
HETATM    5  C   UNK N   1      30.304  16.635   4.619  0.00  0.00     0.039 C 
HETATM    6  C   UNK N   1      29.403  17.862   4.629  0.00  0.00    -0.006 C 
HETATM    7  C   UNK N   1      30.363  14.070   4.353  0.00  0.00     0.201 C 
HETATM    8  C   UNK N   1      31.052  13.953   5.689  0.00  0.00     0.050 C 
HETATM    9  C   UNK N   1      31.989  15.145   5.962  0.00  0.00     0.037 C 
HETATM   10  C   UNK N   1      31.246  16.555   5.899  0.00  0.00     0.147 C 
HETATM   11  C   UNK N   1      32.588  14.856   7.364  0.00  0.00     0.005 C 
HETATM   12  C   UNK N   1      33.129  16.093   8.050  0.00  0.00     0.001 C 
HETATM   13  C   UNK N   1      31.892  17.000   8.356  0.00  0.00     0.048 C 
HETATM   14  C   UNK N   1      30.694  16.853   7.328  0.00  0.00     0.160 C 
HETATM   15  C   UNK N   1      33.674  13.792   7.456  0.00  0.00     0.013 C 
HETATM   16  C   UNK N   1      34.590  14.237   8.608  0.00  0.00     0.025 C 
HETATM   17  C   UNK N   1      33.870  15.467   9.257  0.00  0.00     0.131 C 
HETATM   18  O   UNK N   1      26.362  16.525   3.415  0.00  0.00    -0.289 OA
HETATM   19  C   UNK N   1      31.202  16.814   3.395  0.00  0.00     0.028 C 
HETATM   20  C   UNK N   1      34.154  16.837   7.177  0.00  0.00     0.019 C 
HETATM   21  F   UNK N   1      32.165  17.579   5.703  0.00  0.00    -0.238 F 
HETATM   22  F   UNK N   1      29.592  12.946   4.111  0.00  0.00    -0.245 F 
HETATM   23  O   UNK N   1      32.927  14.958  10.161  0.00  0.00    -0.381 OA
HETATM   24  C   UNK N   1      35.934  14.525   7.947  0.00  0.00     0.013 C 
HETATM   25  H   UNK N   1      32.235  14.649  10.766  0.00  0.00     0.211 HD
ENDROOT
BRANCH  17  26
HETATM   26  C   UNK N   1      34.737  16.464  10.031  0.00  0.00     0.185 C 
HETATM   27  O   UNK N   1      34.789  17.621   9.650  0.00  0.00    -0.292 OA
BRANCH  26  28
HETATM   28  C   UNK N   1      35.538  16.085  11.243  0.00  0.00     0.245 C 
BRANCH  28  29
HETATM   29  O   UNK N   1      36.902  16.112  10.953  0.00  0.00    -0.393 OA
HETATM   30  H   UNK N   1      37.324  16.171  10.081  0.00  0.00     0.209 HD
ENDBRANCH  28  29
ENDBRANCH  26  28
ENDBRANCH  17  26
BRANCH  14  31
HETATM   31  O   UNK N   1      29.955  18.036   7.366  0.00  0.00    -0.392 OA
HETATM   32  H   UNK N   1      30.325  18.834   7.775  0.00  0.00     0.210 HD
ENDBRANCH  14  31
TORSDOF 4
ENDMDL
MODEL 5
REMARK VINA RESULT:      -7.4      1.980      2.792
REMARK  4 active torsions:
REMARK  status: ('A' for Active; 'I' for Inactive)
REMARK    1  A    between atoms: C_14  and  O_20 
REMARK    2  A    between atoms: C_17  and  C_26 
REMARK    3  A    between atoms: C_26  and  C_27 
REMARK    4  A    between atoms: C_27  and  O_29 
ROOT
HETATM    1  C   UNK N   1      33.657  17.482   6.826  0.00  0.00     0.052 C 
HETATM    2  C   UNK N   1      32.623  16.730   6.102  0.00  0.00     0.172 C 
HETATM    3  C   UNK N   1      32.553  15.274   6.248  0.00  0.00     0.061 C 
HETATM    4  C   UNK N   1      33.496  14.611   6.938  0.00  0.00    -0.027 C 
HETATM    5  C   UNK N   1      34.695  15.311   7.570  0.00  0.00     0.039 C 
HETATM    6  C   UNK N   1      34.614  16.830   7.507  0.00  0.00    -0.006 C 
HETATM    7  C   UNK N   1      33.479  13.114   6.982  0.00  0.00     0.201 C 
HETATM    8  C   UNK N   1      33.571  12.684   8.425  0.00  0.00     0.050 C 
HETATM    9  C   UNK N   1      34.862  13.189   9.097  0.00  0.00     0.037 C 
HETATM   10  C   UNK N   1      35.025  14.774   9.030  0.00  0.00     0.147 C 
HETATM   11  C   UNK N   1      34.773  12.665  10.555  0.00  0.00     0.005 C 
HETATM   12  C   UNK N   1      35.648  13.434  11.520  0.00  0.00     0.001 C 
HETATM   13  C   UNK N   1      35.044  14.875  11.607  0.00  0.00     0.048 C 
HETATM   14  C   UNK N   1      34.316  15.366  10.288  0.00  0.00     0.160 C 
HETATM   15  C   UNK N   1      35.056  11.186  10.786  0.00  0.00     0.013 C 
HETATM   16  C   UNK N   1      35.678  11.101  12.189  0.00  0.00     0.025 C 
HETATM   17  C   UNK N   1      35.554  12.544  12.785  0.00  0.00     0.131 C 
HETATM   18  O   UNK N   1      31.846  17.310   5.357  0.00  0.00    -0.289 OA
HETATM   19  C   UNK N   1      35.869  14.939   6.664  0.00  0.00     0.028 C 
HETATM   20  C   UNK N   1      37.115  13.480  11.062  0.00  0.00     0.019 C 
HETATM   21  F   UNK N   1      36.353  15.134   9.227  0.00  0.00    -0.238 F 
HETATM   22  F   UNK N   1      32.347  12.577   6.393  0.00  0.00    -0.245 F 
HETATM   23  O   UNK N   1      34.266  12.652  13.328  0.00  0.00    -0.381 OA
HETATM   24  C   UNK N   1      37.098  10.598  11.955  0.00  0.00     0.013 C 
HETATM   25  H   UNK N   1      33.372  12.784  13.679  0.00  0.00     0.211 HD
ENDROOT
BRANCH  17  26
HETATM   26  C   UNK N   1      36.538  12.938  13.890  0.00  0.00     0.185 C 
HETATM   27  O   UNK N   1      37.351  12.115  14.277  0.00  0.00    -0.292 OA
BRANCH  26  28
HETATM   28  C   UNK N   1      36.550  14.295  14.531  0.00  0.00     0.245 C 
BRANCH  28  29
HETATM   29  O   UNK N   1      37.649  14.422  15.379  0.00  0.00    -0.393 OA
HETATM   30  H   UNK N   1      38.553  14.690  15.148  0.00  0.00     0.209 HD
ENDBRANCH  28  29
ENDBRANCH  26  28
ENDBRANCH  17  26
BRANCH  14  31
HETATM   31  O   UNK N   1      34.333  16.761  10.289  0.00  0.00    -0.392 OA
HETATM   32  H   UNK N   1      34.583  17.249  11.089  0.00  0.00     0.210 HD
ENDBRANCH  14  31
TORSDOF 4
ENDMDL
MODEL 6
REMARK VINA RESULT:      -7.4      4.791      9.322
REMARK  4 active torsions:
REMARK  status: ('A' for Active; 'I' for Inactive)
REMARK    1  A    between atoms: C_14  and  O_20 
REMARK    2  A    between atoms: C_17  and  C_26 
REMARK    3  A    between atoms: C_26  and  C_27 
REMARK    4  A    between atoms: C_27  and  O_29 
ROOT
HETATM    1  C   UNK N   1      32.503  17.441   7.868  0.00  0.00     0.052 C 
HETATM    2  C   UNK N   1      33.525  17.755   6.861  0.00  0.00     0.172 C 
HETATM    3  C   UNK N   1      33.310  17.360   5.467  0.00  0.00     0.061 C 
HETATM    4  C   UNK N   1      32.249  16.611   5.125  0.00  0.00    -0.027 C 
HETATM    5  C   UNK N   1      31.240  16.102   6.149  0.00  0.00     0.039 C 
HETATM    6  C   UNK N   1      31.445  16.680   7.543  0.00  0.00    -0.006 C 
HETATM    7  C   UNK N   1      32.102  16.116   3.718  0.00  0.00     0.201 C 
HETATM    8  C   UNK N   1      30.718  16.472   3.235  0.00  0.00     0.050 C 
HETATM    9  C   UNK N   1      29.621  15.833   4.107  0.00  0.00     0.037 C 
HETATM   10  C   UNK N   1      29.735  16.227   5.649  0.00  0.00     0.147 C 
HETATM   11  C   UNK N   1      28.289  16.315   3.472  0.00  0.00     0.005 C 
HETATM   12  C   UNK N   1      27.113  16.239   4.421  0.00  0.00     0.001 C 
HETATM   13  C   UNK N   1      27.388  17.291   5.545  0.00  0.00     0.048 C 
HETATM   14  C   UNK N   1      28.922  17.543   5.852  0.00  0.00     0.160 C 
HETATM   15  C   UNK N   1      27.852  15.649   2.174  0.00  0.00     0.013 C 
HETATM   16  C   UNK N   1      26.314  15.662   2.202  0.00  0.00     0.025 C 
HETATM   17  C   UNK N   1      25.931  16.517   3.457  0.00  0.00     0.131 C 
HETATM   18  O   UNK N   1      34.563  18.313   7.188  0.00  0.00    -0.289 OA
HETATM   19  C   UNK N   1      31.559  14.614   6.286  0.00  0.00     0.028 C 
HETATM   20  C   UNK N   1      26.938  14.831   5.015  0.00  0.00     0.019 C 
HETATM   21  F   UNK N   1      29.044  15.312   6.435  0.00  0.00    -0.238 F 
HETATM   22  F   UNK N   1      33.057  16.643   2.866  0.00  0.00    -0.245 F 
HETATM   23  O   UNK N   1      25.969  17.862   3.063  0.00  0.00    -0.381 OA
HETATM   24  C   UNK N   1      25.913  14.192   2.250  0.00  0.00     0.013 C 
HETATM   25  H   UNK N   1      26.021  18.805   2.844  0.00  0.00     0.211 HD
ENDROOT
BRANCH  17  26
HETATM   26  C   UNK N   1      24.556  16.274   4.083  0.00  0.00     0.185 C 
HETATM   27  O   UNK N   1      23.750  15.579   3.486  0.00  0.00    -0.292 OA
BRANCH  26  28
HETATM   28  C   UNK N   1      24.142  16.855   5.403  0.00  0.00     0.245 C 
BRANCH  28  29
HETATM   29  O   UNK N   1      24.038  18.243   5.312  0.00  0.00    -0.393 OA
HETATM   30  H   UNK N   1      23.465  18.760   4.724  0.00  0.00     0.209 HD
ENDBRANCH  28  29
ENDBRANCH  26  28
ENDBRANCH  17  26
BRANCH  14  31
HETATM   31  O   UNK N   1      29.020  18.020   7.160  0.00  0.00    -0.392 OA
HETATM   32  H   UNK N   1      29.165  18.964   7.329  0.00  0.00     0.210 HD
ENDBRANCH  14  31
TORSDOF 4
ENDMDL
MODEL 7
REMARK VINA RESULT:      -7.4     10.725     14.444
REMARK  4 active torsions:
REMARK  status: ('A' for Active; 'I' for Inactive)
REMARK    1  A    between atoms: C_14  and  O_20 
REMARK    2  A    between atoms: C_17  and  C_26 
REMARK    3  A    between atoms: C_26  and  C_27 
REMARK    4  A    between atoms: C_27  and  O_29 
ROOT
HETATM    1  C   UNK N   1      21.470  12.301  10.931  0.00  0.00     0.052 C 
HETATM    2  C   UNK N   1      22.884  12.387  11.319  0.00  0.00     0.172 C 
HETATM    3  C   UNK N   1      23.880  12.804  10.329  0.00  0.00     0.061 C 
HETATM    4  C   UNK N   1      23.531  12.989   9.044  0.00  0.00    -0.027 C 
HETATM    5  C   UNK N   1      22.112  12.748   8.538  0.00  0.00     0.039 C 
HETATM    6  C   UNK N   1      21.110  12.469   9.648  0.00  0.00    -0.006 C 
HETATM    7  C   UNK N   1      24.578  13.301   8.020  0.00  0.00     0.201 C 
HETATM    8  C   UNK N   1      24.137  14.522   7.252  0.00  0.00     0.050 C 
HETATM    9  C   UNK N   1      22.791  14.299   6.538  0.00  0.00     0.037 C 
HETATM   10  C   UNK N   1      21.616  13.876   7.531  0.00  0.00     0.147 C 
HETATM   11  C   UNK N   1      22.502  15.646   5.823  0.00  0.00     0.005 C 
HETATM   12  C   UNK N   1      21.040  15.841   5.484  0.00  0.00     0.001 C 
HETATM   13  C   UNK N   1      20.289  15.979   6.850  0.00  0.00     0.048 C 
HETATM   14  C   UNK N   1      20.954  15.189   8.052  0.00  0.00     0.160 C 
HETATM   15  C   UNK N   1      23.290  15.949   4.555  0.00  0.00     0.013 C 
HETATM   16  C   UNK N   1      22.352  16.793   3.678  0.00  0.00     0.025 C 
HETATM   17  C   UNK N   1      21.106  17.095   4.577  0.00  0.00     0.131 C 
HETATM   18  O   UNK N   1      23.234  12.082  12.450  0.00  0.00    -0.289 OA
HETATM   19  C   UNK N   1      22.210  11.439   7.754  0.00  0.00     0.028 C 
HETATM   20  C   UNK N   1      20.474  14.671   4.662  0.00  0.00     0.019 C 
HETATM   21  F   UNK N   1      20.583  13.266   6.829  0.00  0.00    -0.238 F 
HETATM   22  F   UNK N   1      25.826  13.513   8.581  0.00  0.00    -0.245 F 
HETATM   23  O   UNK N   1      21.430  18.212   5.361  0.00  0.00    -0.381 OA
HETATM   24  C   UNK N   1      22.090  15.931   2.448  0.00  0.00     0.013 C 
HETATM   25  H   UNK N   1      21.626  18.956   5.951  0.00  0.00     0.211 HD
ENDROOT
BRANCH  17  26
HETATM   26  C   UNK N   1      19.786  17.414   3.870  0.00  0.00     0.185 C 
HETATM   27  O   UNK N   1      18.799  16.750   4.136  0.00  0.00    -0.292 OA
BRANCH  26  28
HETATM   28  C   UNK N   1      19.645  18.509   2.853  0.00  0.00     0.245 C 
BRANCH  28  29
HETATM   29  O   UNK N   1      18.323  18.604   2.420  0.00  0.00    -0.393 OA
HETATM   30  H   UNK N   1      17.539  18.832   2.946  0.00  0.00     0.209 HD
ENDBRANCH  28  29
ENDBRANCH  26  28
ENDBRANCH  17  26
BRANCH  14  31
HETATM   31  O   UNK N   1      19.957  14.933   8.994  0.00  0.00    -0.392 OA
HETATM   32  H   UNK N   1      20.188  14.746   9.917  0.00  0.00     0.210 HD
ENDBRANCH  14  31
TORSDOF 4
ENDMDL
MODEL 8
REMARK VINA RESULT:      -7.3     14.781     17.127
REMARK  4 active torsions:
REMARK  status: ('A' for Active; 'I' for Inactive)
REMARK    1  A    between atoms: C_14  and  O_20 
REMARK    2  A    between atoms: C_17  and  C_26 
REMARK    3  A    between atoms: C_26  and  C_27 
REMARK    4  A    between atoms: C_27  and  O_29 
ROOT
HETATM    1  C   UNK N   1      28.224  27.932  -3.672  0.00  0.00     0.052 C 
HETATM    2  C   UNK N   1      26.795  27.600  -3.765  0.00  0.00     0.172 C 
HETATM    3  C   UNK N   1      26.381  26.390  -4.478  0.00  0.00     0.061 C 
HETATM    4  C   UNK N   1      27.280  25.650  -5.149  0.00  0.00    -0.027 C 
HETATM    5  C   UNK N   1      28.753  26.033  -5.239  0.00  0.00     0.039 C 
HETATM    6  C   UNK N   1      29.131  27.210  -4.350  0.00  0.00    -0.006 C 
HETATM    7  C   UNK N   1      26.827  24.482  -5.970  0.00  0.00     0.201 C 
HETATM    8  C   UNK N   1      27.652  23.282  -5.578  0.00  0.00     0.050 C 
HETATM    9  C   UNK N   1      29.156  23.511  -5.822  0.00  0.00     0.037 C 
HETATM   10  C   UNK N   1      29.728  24.789  -5.058  0.00  0.00     0.147 C 
HETATM   11  C   UNK N   1      29.831  22.194  -5.356  0.00  0.00     0.005 C 
HETATM   12  C   UNK N   1      31.300  22.357  -5.031  0.00  0.00     0.001 C 
HETATM   13  C   UNK N   1      31.369  23.276  -3.766  0.00  0.00     0.048 C 
HETATM   14  C   UNK N   1      30.181  24.318  -3.641  0.00  0.00     0.160 C 
HETATM   15  C   UNK N   1      29.716  20.985  -6.276  0.00  0.00     0.013 C 
HETATM   16  C   UNK N   1      31.007  20.178  -6.059  0.00  0.00     0.025 C 
HETATM   17  C   UNK N   1      31.737  20.881  -4.864  0.00  0.00     0.131 C 
HETATM   18  O   UNK N   1      25.956  28.343  -3.279  0.00  0.00    -0.289 OA
HETATM   19  C   UNK N   1      28.922  26.548  -6.669  0.00  0.00     0.028 C 
HETATM   20  C   UNK N   1      32.087  22.972  -6.200  0.00  0.00     0.019 C 
HETATM   21  F   UNK N   1      30.919  25.209  -5.639  0.00  0.00    -0.238 F 
HETATM   22  F   UNK N   1      25.479  24.209  -5.810  0.00  0.00    -0.245 F 
HETATM   23  O   UNK N   1      31.180  20.367  -3.685  0.00  0.00    -0.381 OA
HETATM   24  C   UNK N   1      31.727  20.228  -7.401  0.00  0.00     0.013 C 
HETATM   25  H   UNK N   1      30.795  20.069  -2.846  0.00  0.00     0.211 HD
ENDROOT
BRANCH  17  26
HETATM   26  C   UNK N   1      33.253  20.696  -4.758  0.00  0.00     0.185 C 
HETATM   27  O   UNK N   1      33.962  21.683  -4.652  0.00  0.00    -0.292 OA
BRANCH  26  28
HETATM   28  C   UNK N   1      33.918  19.351  -4.783  0.00  0.00     0.245 C 
BRANCH  28  29
HETATM   29  O   UNK N   1      33.382  18.524  -3.796  0.00  0.00    -0.393 OA
HETATM   30  H   UNK N   1      32.630  17.914  -3.873  0.00  0.00     0.209 HD
ENDBRANCH  28  29
ENDBRANCH  26  28
ENDBRANCH  17  26
BRANCH  14  31
HETATM   31  O   UNK N   1      30.630  25.380  -2.856  0.00  0.00    -0.392 OA
HETATM   32  H   UNK N   1      30.841  26.236  -3.261  0.00  0.00     0.210 HD
ENDBRANCH  14  31
TORSDOF 4
ENDMDL
MODEL 9
REMARK VINA RESULT:      -7.3     14.016     17.816
REMARK  4 active torsions:
REMARK  status: ('A' for Active; 'I' for Inactive)
REMARK    1  A    between atoms: C_14  and  O_20 
REMARK    2  A    between atoms: C_17  and  C_26 
REMARK    3  A    between atoms: C_26  and  C_27 
REMARK    4  A    between atoms: C_27  and  O_29 
ROOT
HETATM    1  C   UNK N   1      33.692  20.659  -3.267  0.00  0.00     0.052 C 
HETATM    2  C   UNK N   1      34.809  21.164  -4.078  0.00  0.00     0.172 C 
HETATM    3  C   UNK N   1      34.541  22.099  -5.172  0.00  0.00     0.061 C 
HETATM    4  C   UNK N   1      33.278  22.404  -5.517  0.00  0.00    -0.027 C 
HETATM    5  C   UNK N   1      32.067  21.781  -4.830  0.00  0.00     0.039 C 
HETATM    6  C   UNK N   1      32.425  20.944  -3.610  0.00  0.00    -0.006 C 
HETATM    7  C   UNK N   1      33.016  23.270  -6.711  0.00  0.00     0.201 C 
HETATM    8  C   UNK N   1      32.086  24.381  -6.292  0.00  0.00     0.050 C 
HETATM    9  C   UNK N   1      30.745  23.843  -5.760  0.00  0.00     0.037 C 
HETATM   10  C   UNK N   1      30.914  22.836  -4.534  0.00  0.00     0.147 C 
HETATM   11  C   UNK N   1      29.941  25.113  -5.375  0.00  0.00     0.005 C 
HETATM   12  C   UNK N   1      28.827  24.838  -4.387  0.00  0.00     0.001 C 
HETATM   13  C   UNK N   1      29.521  24.419  -3.049  0.00  0.00     0.048 C 
HETATM   14  C   UNK N   1      30.918  23.692  -3.229  0.00  0.00     0.160 C 
HETATM   15  C   UNK N   1      29.332  25.927  -6.509  0.00  0.00     0.013 C 
HETATM   16  C   UNK N   1      28.045  26.540  -5.932  0.00  0.00     0.025 C 
HETATM   17  C   UNK N   1      28.069  26.189  -4.405  0.00  0.00     0.131 C 
HETATM   18  O   UNK N   1      35.949  20.781  -3.863  0.00  0.00    -0.289 OA
HETATM   19  C   UNK N   1      31.527  20.781  -5.852  0.00  0.00     0.028 C 
HETATM   20  C   UNK N   1      27.874  23.736  -4.881  0.00  0.00     0.019 C 
HETATM   21  F   UNK N   1      29.775  22.054  -4.387  0.00  0.00    -0.238 F 
HETATM   22  F   UNK N   1      34.176  23.794  -7.255  0.00  0.00    -0.245 F 
HETATM   23  O   UNK N   1      28.855  27.164  -3.775  0.00  0.00    -0.381 OA
HETATM   24  C   UNK N   1      26.917  25.910  -6.741  0.00  0.00     0.013 C 
HETATM   25  H   UNK N   1      29.424  27.793  -3.304  0.00  0.00     0.211 HD
ENDROOT
BRANCH  17  26
HETATM   26  C   UNK N   1      26.728  26.153  -3.669  0.00  0.00     0.185 C 
HETATM   27  O   UNK N   1      26.376  25.114  -3.134  0.00  0.00    -0.292 OA
BRANCH  26  28
HETATM   28  C   UNK N   1      25.813  27.339  -3.574  0.00  0.00     0.245 C 
BRANCH  28  29
HETATM   29  O   UNK N   1      26.369  28.318  -2.751  0.00  0.00    -0.393 OA
HETATM   30  H   UNK N   1      26.904  28.190  -1.951  0.00  0.00     0.209 HD
ENDBRANCH  28  29
ENDBRANCH  26  28
ENDBRANCH  17  26
BRANCH  14  31
HETATM   31  O   UNK N   1      31.139  22.912  -2.094  0.00  0.00    -0.392 OA
HETATM   32  H   UNK N   1      30.393  22.597  -1.561  0.00  0.00     0.210 HD
ENDBRANCH  14  31
TORSDOF 4
ENDMDL
