REMARK  0 active torsions:
REMARK  status: ('A' for Active; 'I' for Inactive)
ROOT
HETATM    1  C   UNK N   1      -0.827   0.489  -0.749  0.00  0.00     0.026 C 
HETATM    2  C   UNK N   1      -1.947   1.004   0.169  0.00  0.00     0.038 C 
HETATM    3  C   UNK N   1      -2.670  -0.196   0.824  0.00  0.00     0.273 C 
HETATM    4  N   UNK N   1      -2.052  -1.475   0.429  0.00  0.00     0.091 N 
HETATM    5  C   UNK N   1      -0.634  -1.459   0.832  0.00  0.00     0.311 C 
HETATM    6  C   UNK N   1      -1.493  -0.440  -1.773  0.00  0.00     0.038 C 
HETATM    7  C   UNK N   1      -2.149  -1.629  -1.036  0.00  0.00     0.273 C 
HETATM    8  C   UNK N   1       0.881   0.528   1.106  0.00  0.00     0.116 C 
HETATM    9  C   UNK N   1       0.162  -0.358   0.087  0.00  0.00     0.101 C 
HETATM   10  O   UNK N   1       1.100  -0.963  -0.770  0.00  0.00    -0.362 OA
HETATM   11  C   UNK N   1       2.322  -0.982  -0.088  0.00  0.00     0.179 C 
HETATM   12  S   UNK N   1       2.593   0.669   0.571  0.00  0.00    -0.135 SA
HETATM   13  C   UNK N   1       3.429  -1.330  -1.059  0.00  0.00     0.051 C 
ENDROOT
TORSDOF 0
