REMARK  7 active torsions:
REMARK  status: ('A' for Active; 'I' for Inactive)
REMARK    1  A    between atoms: C_4  and  O_13 
REMARK    2  A    between atoms: C_6  and  O_16 
REMARK    3  A    between atoms: C_10  and  O_31 
REMARK    4  A    between atoms: C_11  and  N_15 
REMARK    5  A    between atoms: C_14  and  O_19 
REMARK    6  A    between atoms: C_17  and  C_22 
REMARK       I    between atoms: C_22  and  N_24 
REMARK    7  A    between atoms: C_27  and  O_30 
ROOT
HETATM    1  C   UNK N   1      -3.064  -0.545   0.005  0.00  0.00    -0.007 A 
HETATM    2  C   UNK N   1      -3.123   0.864   0.181  0.00  0.00     0.057 A 
HETATM    3  C   UNK N   1       1.990  -0.505   0.370  0.00  0.00     0.075 C 
HETATM    4  C   UNK N   1       1.882   0.797  -0.444  0.00  0.00     0.177 C 
HETATM    5  C   UNK N   1       0.716  -1.304   0.193  0.00  0.00     0.024 C 
HETATM    6  C   UNK N   1       0.596   1.570  -0.202  0.00  0.00     0.097 C 
HETATM    7  C   UNK N   1      -0.576  -0.544   0.525  0.00  0.00     0.065 C 
HETATM    8  C   UNK N   1      -0.547   0.938   0.182  0.00  0.00     0.033 C 
HETATM    9  C   UNK N   1      -1.855   1.656   0.250  0.00  0.00     0.194 C 
HETATM   10  C   UNK N   1      -1.745  -1.266  -0.177  0.00  0.00     0.090 C 
HETATM   11  C   UNK N   1       3.197  -1.285  -0.238  0.00  0.00     0.286 C 
HETATM   12  C   UNK N   1       3.165   1.572  -0.206  0.00  0.00     0.208 C 
HETATM   13  C   UNK N   1       4.483  -0.498  -0.422  0.00  0.00     0.096 C 
HETATM   14  C   UNK N   1       4.474   0.870  -0.404  0.00  0.00     0.112 C 
HETATM   15  O   UNK N   1       3.136   2.753   0.116  0.00  0.00    -0.288 OA
HETATM   16  O   UNK N   1      -1.894   2.878   0.254  0.00  0.00    -0.287 OA
HETATM   17  C   UNK N   1      -4.254  -1.275  -0.138  0.00  0.00     0.011 A 
HETATM   18  C   UNK N   1      -4.392   1.495   0.209  0.00  0.00     0.080 A 
HETATM   19  C   UNK N   1      -5.492  -0.643  -0.081  0.00  0.00     0.003 A 
HETATM   20  C   UNK N   1      -5.559   0.737   0.085  0.00  0.00     0.037 A 
HETATM   21  C   UNK N   1      -1.496  -1.379  -1.680  0.00  0.00     0.052 C 
ENDROOT
BRANCH  14  22
HETATM   22  C   UNK N   1       5.732   1.672  -0.589  0.00  0.00     0.255 C 
HETATM   23  N   UNK N   1       6.918   1.075  -0.815  0.00  0.00    -0.366 N 
HETATM   24  H   UNK N   1       6.974   0.106  -0.979  0.00  0.00     0.159 HD
HETATM   25  H   UNK N   1       7.741   1.616  -0.815  0.00  0.00     0.159 HD
HETATM   26  O   UNK N   1       5.681   2.894  -0.583  0.00  0.00    -0.268 OA
ENDBRANCH  14  22
BRANCH  13  27
HETATM   27  O   UNK N   1       5.628  -1.182  -0.616  0.00  0.00    -0.362 OA
HETATM   28  H   UNK N   1       5.614  -2.110  -0.751  0.00  0.00     0.217 HD
ENDBRANCH  13  27
BRANCH   4  29
HETATM   29  O   UNK N   1       1.852   0.472  -1.807  0.00  0.00    -0.374 OA
HETATM   30  H   UNK N   1       1.646   0.377  -2.750  0.00  0.00     0.211 HD
ENDBRANCH   4  29
BRANCH  11  31
HETATM   31  N   UNK N   1       3.412  -2.699   0.101  0.00  0.00     0.091 NA
HETATM   32  C   UNK N   1       3.236  -2.954   1.522  0.00  0.00     0.310 C 
HETATM   33  C   UNK N   1       2.479  -3.528  -0.649  0.00  0.00     0.310 C 
ENDBRANCH  11  31
BRANCH   6  34
HETATM   34  O   UNK N   1       0.560   2.879  -0.535  0.00  0.00    -0.361 OA
HETATM   35  H   UNK N   1       1.333   3.355  -0.766  0.00  0.00     0.217 HD
ENDBRANCH   6  34
BRANCH  10  36
HETATM   36  O   UNK N   1      -1.842  -2.560   0.351  0.00  0.00    -0.385 OA
HETATM   37  H   UNK N   1      -2.651  -2.950   0.716  0.00  0.00     0.211 HD
ENDBRANCH  10  36
BRANCH  18  38
HETATM   38  O   UNK N   1      -4.502   2.830   0.333  0.00  0.00    -0.360 OA
HETATM   39  H   UNK N   1      -3.735   3.361   0.418  0.00  0.00     0.217 HD
ENDBRANCH  18  38
TORSDOF 7
