MODEL 1
REMARK VINA RESULT:      -8.6      0.000      0.000
REMARK  10 active torsions:
REMARK  status: ('A' for Active; 'I' for Inactive)
REMARK    1  A    between atoms: C_1  and  O_37 
REMARK    2  A    between atoms: C_3  and  O_21 
REMARK    3  A    between atoms: C_4  and  O_38 
REMARK    4  A    between atoms: C_6  and  N_29 
REMARK    5  A    between atoms: C_7  and  C_16 
REMARK    6  A    between atoms: C_12  and  O_40 
REMARK    7  A    between atoms: C_13  and  O_41 
REMARK    8  A    between atoms: O_42  and  C_16 
REMARK    9  A    between atoms: C_25  and  O_21 
REMARK   10  A    between atoms: C_26  and  O_44 
ROOT
HETATM    1  C   UNK N   1      27.064  14.663   2.823  0.00  0.00     0.166 C 
HETATM    2  O   UNK N   1      31.638  12.261   3.082  0.00  0.00    -0.371 OA
HETATM    3  C   UNK N   1      30.686  12.364   4.109  0.00  0.00     0.157 A 
HETATM    4  C   UNK N   1      24.295  13.858   2.590  0.00  0.00     0.141 C 
HETATM    5  C   UNK N   1      32.064  12.914   4.257  0.00  0.00     0.174 A 
HETATM    6  C   UNK N   1      24.782  15.300   2.881  0.00  0.00     0.144 C 
HETATM    7  O   UNK N   1      26.087  15.599   2.385  0.00  0.00    -0.349 OA
HETATM    8  C   UNK N   1      25.404  12.841   2.901  0.00  0.00     0.140 C 
HETATM    9  C   UNK N   1      26.718  13.275   2.279  0.00  0.00     0.101 C 
HETATM   10  C   UNK N   1      28.440  15.119   2.311  0.00  0.00     0.100 C 
HETATM   11  C   UNK N   1      32.272  14.371   3.951  0.00  0.00     0.013 C 
HETATM   12  C   UNK N   1      32.919  14.944   6.291  0.00  0.00     0.283 C 
HETATM   13  C   UNK N   1      29.544  13.352   3.819  0.00  0.00     0.067 C 
HETATM   14  C   UNK N   1      24.622  15.698   4.353  0.00  0.00     0.069 C 
HETATM   15  O   UNK N   1      32.537  15.744   7.314  0.00  0.00    -0.313 OA
HETATM   16  C   UNK N   1      32.574  15.281   4.888  0.00  0.00     0.081 C 
HETATM   17  C   UNK N   1      24.406  17.203   4.428  0.00  0.00     0.150 C 
HETATM   18  C   UNK N   1      29.598  14.115   2.483  0.00  0.00     0.125 C 
HETATM   19  O   UNK N   1      33.535  13.923   6.539  0.00  0.00    -0.260 OA
HETATM   20  C   UNK N   1      27.765  20.390   6.347  0.00  0.00     0.000 C 
HETATM   21  C   UNK N   1      28.115  20.249   4.917  0.00  0.00     0.000 C 
HETATM   22  C   UNK N   1      27.561  19.313   4.138  0.00  0.00    -0.000 C 
HETATM   23  C   UNK N   1      28.135  19.504   7.278  0.00  0.00    -0.000 C 
HETATM   24  C   UNK N   1      26.581  18.355   4.665  0.00  0.00    -0.002 C 
HETATM   25  C   UNK N   1      28.988  18.345   6.978  0.00  0.00    -0.004 C 
HETATM   26  C   UNK N   1      25.466  18.157   3.983  0.00  0.00     0.005 C 
HETATM   27  C   UNK N   1      29.410  17.585   7.981  0.00  0.00    -0.024 C 
HETATM   28  C   UNK N   1      31.692  16.817   7.165  0.00  0.00     0.131 C 
HETATM   29  C   UNK N   1      30.338  16.430   7.770  0.00  0.00     0.059 C 
HETATM   30  C   UNK N   1      32.311  18.020   7.862  0.00  0.00     0.040 C 
ENDROOT
BRANCH  17  31
HETATM   31  O   UNK N   1      23.483  17.652   5.385  0.00  0.00    -0.349 OA
BRANCH  31  32
HETATM   32  C   UNK N   1      22.191  17.082   5.166  0.00  0.00     0.291 C 
HETATM   33  C   UNK N   1      21.327  17.735   4.039  0.00  0.00     0.198 C 
HETATM   34  C   UNK N   1      20.157  16.815   3.721  0.00  0.00     0.139 C 
HETATM   35  C   UNK N   1      19.612  16.141   4.992  0.00  0.00     0.171 C 
HETATM   36  C   UNK N   1      20.087  16.811   6.299  0.00  0.00     0.151 C 
HETATM   37  O   UNK N   1      21.495  17.031   6.406  0.00  0.00    -0.351 OA
HETATM   38  C   UNK N   1      19.656  15.952   7.472  0.00  0.00     0.042 C 
BRANCH  33  39
HETATM   39  O   UNK N   1      20.830  18.969   4.485  0.00  0.00    -0.388 OA
HETATM   40  H   UNK N   1      20.572  19.733   5.024  0.00  0.00     0.210 HD
ENDBRANCH  33  39
BRANCH  34  41
HETATM   41  N   UNK N   1      19.138  17.530   2.963  0.00  0.00    -0.421 N 
HETATM   42  H   UNK N   1      18.215  17.908   3.179  0.00  0.00     0.150 HD
HETATM   43  H   UNK N   1      19.410  17.690   1.994  0.00  0.00     0.150 HD
ENDBRANCH  34  41
BRANCH  35  44
HETATM   44  O   UNK N   1      18.219  16.026   4.954  0.00  0.00    -0.391 OA
HETATM   45  H   UNK N   1      17.540  16.704   5.097  0.00  0.00     0.210 HD
ENDBRANCH  35  44
ENDBRANCH  31  32
ENDBRANCH  17  31
BRANCH   4  46
HETATM   46  C   UNK N   1      23.687  13.688   1.210  0.00  0.00     0.148 C 
HETATM   47  O   UNK N   1      22.798  12.870   1.040  0.00  0.00    -0.650 OA
BRANCH  46  48
HETATM   48  O   UNK N   1      24.046  14.489   0.187  0.00  0.00    -0.776 OA
HETATM   49  H   UNK N   1      24.002  14.791  -0.699  0.00  0.00     0.167 HD
ENDBRANCH  46  48
ENDBRANCH   4  46
BRANCH   1  50
HETATM   50  O   UNK N   1      27.131  14.638   4.224  0.00  0.00    -0.365 OA
HETATM   51  H   UNK N   1      27.008  15.146   5.041  0.00  0.00     0.213 HD
ENDBRANCH   1  50
BRANCH   8  52
HETATM   52  O   UNK N   1      25.073  11.553   2.479  0.00  0.00    -0.394 OA
HETATM   53  H   UNK N   1      25.284  10.765   3.004  0.00  0.00     0.210 HD
ENDBRANCH   8  52
BRANCH  18  54
HETATM   54  O   UNK N   1      29.604  13.224   1.412  0.00  0.00    -0.395 OA
HETATM   55  H   UNK N   1      29.748  13.489   0.490  0.00  0.00     0.210 HD
ENDBRANCH  18  54
TORSDOF 10
ENDMDL
MODEL 2
REMARK VINA RESULT:      -8.2      2.817      6.652
REMARK  10 active torsions:
REMARK  status: ('A' for Active; 'I' for Inactive)
REMARK    1  A    between atoms: C_1  and  O_37 
REMARK    2  A    between atoms: C_3  and  O_21 
REMARK    3  A    between atoms: C_4  and  O_38 
REMARK    4  A    between atoms: C_6  and  N_29 
REMARK    5  A    between atoms: C_7  and  C_16 
REMARK    6  A    between atoms: C_12  and  O_40 
REMARK    7  A    between atoms: C_13  and  O_41 
REMARK    8  A    between atoms: O_42  and  C_16 
REMARK    9  A    between atoms: C_25  and  O_21 
REMARK   10  A    between atoms: C_26  and  O_44 
ROOT
HETATM    1  C   UNK N   1      26.638  16.870   4.840  0.00  0.00     0.166 C 
HETATM    2  O   UNK N   1      30.105  13.796   2.540  0.00  0.00    -0.371 OA
HETATM    3  C   UNK N   1      29.042  14.473   1.919  0.00  0.00     0.157 A 
HETATM    4  C   UNK N   1      26.172  19.719   5.020  0.00  0.00     0.141 C 
HETATM    5  C   UNK N   1      29.151  12.986   1.887  0.00  0.00     0.174 A 
HETATM    6  C   UNK N   1      25.196  18.623   5.520  0.00  0.00     0.144 C 
HETATM    7  O   UNK N   1      25.820  17.391   5.880  0.00  0.00    -0.349 OA
HETATM    8  C   UNK N   1      27.176  19.131   4.017  0.00  0.00     0.140 C 
HETATM    9  C   UNK N   1      27.780  17.847   4.554  0.00  0.00     0.101 C 
HETATM   10  C   UNK N   1      27.191  15.508   5.290  0.00  0.00     0.100 C 
HETATM   11  C   UNK N   1      28.390  12.207   2.924  0.00  0.00     0.013 C 
HETATM   12  C   UNK N   1      26.919  11.090   1.247  0.00  0.00     0.283 C 
HETATM   13  C   UNK N   1      28.033  15.100   2.895  0.00  0.00     0.067 C 
HETATM   14  C   UNK N   1      24.006  18.411   4.577  0.00  0.00     0.069 C 
HETATM   15  O   UNK N   1      25.609  10.957   0.931  0.00  0.00    -0.313 OA
HETATM   16  C   UNK N   1      27.341  11.427   2.629  0.00  0.00     0.081 C 
HETATM   17  C   UNK N   1      22.813  17.942   5.401  0.00  0.00     0.150 C 
HETATM   18  C   UNK N   1      28.285  14.887   4.398  0.00  0.00     0.125 C 
HETATM   19  O   UNK N   1      27.753  10.952   0.371  0.00  0.00    -0.260 OA
HETATM   20  C   UNK N   1      20.888  13.325   5.103  0.00  0.00     0.000 C 
HETATM   21  C   UNK N   1      21.954  13.250   6.125  0.00  0.00     0.000 C 
HETATM   22  C   UNK N   1      22.825  14.247   6.318  0.00  0.00    -0.000 C 
HETATM   23  C   UNK N   1      21.133  13.262   3.790  0.00  0.00    -0.000 C 
HETATM   24  C   UNK N   1      22.784  15.472   5.508  0.00  0.00    -0.002 C 
HETATM   25  C   UNK N   1      22.478  13.040   3.242  0.00  0.00    -0.004 C 
HETATM   26  C   UNK N   1      22.844  16.638   6.128  0.00  0.00     0.005 C 
HETATM   27  C   UNK N   1      22.615  12.868   1.933  0.00  0.00    -0.024 C 
HETATM   28  C   UNK N   1      24.584  11.265   1.793  0.00  0.00     0.131 C 
HETATM   29  C   UNK N   1      23.939  12.566   1.303  0.00  0.00     0.059 C 
HETATM   30  C   UNK N   1      23.600  10.105   1.807  0.00  0.00     0.040 C 
ENDROOT
BRANCH  17  31
HETATM   31  O   UNK N   1      21.561  18.452   5.027  0.00  0.00    -0.349 OA
BRANCH  31  32
HETATM   32  C   UNK N   1      21.390  18.420   3.608  0.00  0.00     0.291 C 
HETATM   33  C   UNK N   1      20.865  19.733   2.944  0.00  0.00     0.198 C 
HETATM   34  C   UNK N   1      21.061  19.634   1.438  0.00  0.00     0.139 C 
HETATM   35  C   UNK N   1      20.801  18.206   0.930  0.00  0.00     0.171 C 
HETATM   36  C   UNK N   1      20.049  17.318   1.945  0.00  0.00     0.151 C 
HETATM   37  O   UNK N   1      20.589  17.295   3.267  0.00  0.00    -0.351 OA
HETATM   38  C   UNK N   1      20.026  15.894   1.423  0.00  0.00     0.042 C 
BRANCH  33  39
HETATM   39  O   UNK N   1      19.497  19.881   3.217  0.00  0.00    -0.388 OA
HETATM   40  H   UNK N   1      18.542  20.036   3.149  0.00  0.00     0.210 HD
ENDBRANCH  33  39
BRANCH  34  41
HETATM   41  N   UNK N   1      20.267  20.646   0.752  0.00  0.00    -0.421 N 
HETATM   42  H   UNK N   1      20.232  21.666   0.771  0.00  0.00     0.150 HD
HETATM   43  H   UNK N   1      19.591  20.243   0.105  0.00  0.00     0.150 HD
ENDBRANCH  34  41
BRANCH  35  44
HETATM   44  O   UNK N   1      20.163  18.212  -0.314  0.00  0.00    -0.391 OA
HETATM   45  H   UNK N   1      19.338  18.647  -0.583  0.00  0.00     0.210 HD
ENDBRANCH  35  44
ENDBRANCH  31  32
ENDBRANCH  17  31
BRANCH   4  46
HETATM   46  C   UNK N   1      26.826  20.507   6.141  0.00  0.00     0.148 C 
HETATM   47  O   UNK N   1      27.108  21.681   5.966  0.00  0.00    -0.650 OA
BRANCH  46  48
HETATM   48  O   UNK N   1      27.018  19.960   7.358  0.00  0.00    -0.776 OA
HETATM   49  H   UNK N   1      27.093  19.239   7.952  0.00  0.00     0.167 HD
ENDBRANCH  46  48
ENDBRANCH   4  46
BRANCH   1  50
HETATM   50  O   UNK N   1      25.881  16.647   3.681  0.00  0.00    -0.365 OA
HETATM   51  H   UNK N   1      25.022  16.774   3.249  0.00  0.00     0.213 HD
ENDBRANCH   1  50
BRANCH   8  52
HETATM   52  O   UNK N   1      28.184  20.038   3.685  0.00  0.00    -0.394 OA
HETATM   53  H   UNK N   1      29.066  20.003   4.088  0.00  0.00     0.210 HD
ENDBRANCH   8  52
BRANCH  18  54
HETATM   54  O   UNK N   1      29.529  15.402   4.763  0.00  0.00    -0.395 OA
HETATM   55  H   UNK N   1      30.042  15.084   5.522  0.00  0.00     0.210 HD
ENDBRANCH  18  54
TORSDOF 10
ENDMDL
MODEL 3
REMARK VINA RESULT:      -8.2      5.162     11.478
REMARK  10 active torsions:
REMARK  status: ('A' for Active; 'I' for Inactive)
REMARK    1  A    between atoms: C_1  and  O_37 
REMARK    2  A    between atoms: C_3  and  O_21 
REMARK    3  A    between atoms: C_4  and  O_38 
REMARK    4  A    between atoms: C_6  and  N_29 
REMARK    5  A    between atoms: C_7  and  C_16 
REMARK    6  A    between atoms: C_12  and  O_40 
REMARK    7  A    between atoms: C_13  and  O_41 
REMARK    8  A    between atoms: O_42  and  C_16 
REMARK    9  A    between atoms: C_25  and  O_21 
REMARK   10  A    between atoms: C_26  and  O_44 
ROOT
HETATM    1  C   UNK N   1      32.373  15.757   6.228  0.00  0.00     0.166 C 
HETATM    2  O   UNK N   1      28.306  17.271   3.411  0.00  0.00    -0.371 OA
HETATM    3  C   UNK N   1      28.280  16.433   4.539  0.00  0.00     0.157 A 
HETATM    4  C   UNK N   1      33.491  16.436   8.808  0.00  0.00     0.141 C 
HETATM    5  C   UNK N   1      27.797  15.971   3.206  0.00  0.00     0.174 A 
HETATM    6  C   UNK N   1      33.948  15.248   7.924  0.00  0.00     0.144 C 
HETATM    7  O   UNK N   1      33.723  15.427   6.525  0.00  0.00    -0.349 OA
HETATM    8  C   UNK N   1      32.094  16.916   8.386  0.00  0.00     0.140 C 
HETATM    9  C   UNK N   1      32.021  17.095   6.882  0.00  0.00     0.101 C 
HETATM   10  C   UNK N   1      32.216  15.843   4.701  0.00  0.00     0.100 C 
HETATM   11  C   UNK N   1      28.758  15.207   2.340  0.00  0.00     0.013 C 
HETATM   12  C   UNK N   1      27.405  13.113   2.393  0.00  0.00     0.283 C 
HETATM   13  C   UNK N   1      29.665  15.957   5.007  0.00  0.00     0.067 C 
HETATM   14  C   UNK N   1      33.421  13.896   8.421  0.00  0.00     0.069 C 
HETATM   15  O   UNK N   1      27.505  11.812   2.758  0.00  0.00    -0.313 OA
HETATM   16  C   UNK N   1      28.611  13.906   2.053  0.00  0.00     0.081 C 
HETATM   17  C   UNK N   1      34.418  12.814   8.029  0.00  0.00     0.150 C 
HETATM   18  C   UNK N   1      30.881  16.417   4.183  0.00  0.00     0.125 C 
HETATM   19  O   UNK N   1      26.304  13.634   2.368  0.00  0.00    -0.260 OA
HETATM   20  C   UNK N   1      33.467   9.289   4.596  0.00  0.00     0.000 C 
HETATM   21  C   UNK N   1      34.025  10.437   3.849  0.00  0.00     0.000 C 
HETATM   22  C   UNK N   1      34.199  11.637   4.415  0.00  0.00    -0.000 C 
HETATM   23  C   UNK N   1      32.184   9.215   4.966  0.00  0.00    -0.000 C 
HETATM   24  C   UNK N   1      33.827  11.888   5.814  0.00  0.00    -0.002 C 
HETATM   25  C   UNK N   1      31.192  10.236   4.602  0.00  0.00    -0.004 C 
HETATM   26  C   UNK N   1      34.697  12.506   6.595  0.00  0.00     0.005 C 
HETATM   27  C   UNK N   1      29.916  10.025   4.904  0.00  0.00    -0.024 C 
HETATM   28  C   UNK N   1      28.701  11.179   2.992  0.00  0.00     0.131 C 
HETATM   29  C   UNK N   1      28.835  10.979   4.505  0.00  0.00     0.059 C 
HETATM   30  C   UNK N   1      28.705   9.859   2.235  0.00  0.00     0.040 C 
ENDROOT
BRANCH  17  31
HETATM   31  O   UNK N   1      34.630  11.794   8.969  0.00  0.00    -0.349 OA
BRANCH  31  32
HETATM   32  C   UNK N   1      34.654  12.313  10.301  0.00  0.00     0.291 C 
HETATM   33  C   UNK N   1      35.859  13.240  10.661  0.00  0.00     0.198 C 
HETATM   34  C   UNK N   1      35.555  13.956  11.970  0.00  0.00     0.139 C 
HETATM   35  C   UNK N   1      34.805  13.037  12.950  0.00  0.00     0.171 C 
HETATM   36  C   UNK N   1      34.870  11.543  12.568  0.00  0.00     0.151 C 
HETATM   37  O   UNK N   1      34.522  11.233  11.218  0.00  0.00    -0.351 OA
HETATM   38  C   UNK N   1      33.941  10.766  13.482  0.00  0.00     0.042 C 
BRANCH  33  39
HETATM   39  O   UNK N   1      37.016  12.464  10.824  0.00  0.00    -0.388 OA
HETATM   40  H   UNK N   1      37.716  11.799  10.731  0.00  0.00     0.210 HD
ENDBRANCH  33  39
BRANCH  34  41
HETATM   41  N   UNK N   1      36.771  14.532  12.531  0.00  0.00    -0.421 N 
HETATM   42  H   UNK N   1      36.977  15.339  13.120  0.00  0.00     0.150 HD
HETATM   43  H   UNK N   1      37.607  14.008  12.276  0.00  0.00     0.150 HD
ENDBRANCH  34  41
BRANCH  35  44
HETATM   44  O   UNK N   1      35.221  13.246  14.269  0.00  0.00    -0.391 OA
HETATM   45  H   UNK N   1      36.024  12.939  14.718  0.00  0.00     0.210 HD
ENDBRANCH  35  44
ENDBRANCH  31  32
ENDBRANCH  17  31
BRANCH   4  46
HETATM   46  C   UNK N   1      34.514  17.553   8.901  0.00  0.00     0.148 C 
HETATM   47  O   UNK N   1      35.304  17.569   9.830  0.00  0.00    -0.650 OA
BRANCH  46  48
HETATM   48  O   UNK N   1      34.626  18.478   7.927  0.00  0.00    -0.776 OA
HETATM   49  H   UNK N   1      34.745  18.752   7.039  0.00  0.00     0.167 HD
ENDBRANCH  46  48
ENDBRANCH   4  46
BRANCH   1  50
HETATM   50  O   UNK N   1      31.507  14.750   6.677  0.00  0.00    -0.365 OA
HETATM   51  H   UNK N   1      30.683  14.554   7.151  0.00  0.00     0.213 HD
ENDBRANCH   1  50
BRANCH   8  52
HETATM   52  O   UNK N   1      31.725  18.097   9.032  0.00  0.00    -0.394 OA
HETATM   53  H   UNK N   1      30.814  18.431   9.021  0.00  0.00     0.210 HD
ENDBRANCH   8  52
BRANCH  18  54
HETATM   54  O   UNK N   1      30.954  17.808   4.155  0.00  0.00    -0.395 OA
HETATM   55  H   UNK N   1      31.407  18.339   4.829  0.00  0.00     0.210 HD
ENDBRANCH  18  54
TORSDOF 10
ENDMDL
MODEL 4
REMARK VINA RESULT:      -8.0     13.400     16.167
REMARK  10 active torsions:
REMARK  status: ('A' for Active; 'I' for Inactive)
REMARK    1  A    between atoms: C_1  and  O_37 
REMARK    2  A    between atoms: C_3  and  O_21 
REMARK    3  A    between atoms: C_4  and  O_38 
REMARK    4  A    between atoms: C_6  and  N_29 
REMARK    5  A    between atoms: C_7  and  C_16 
REMARK    6  A    between atoms: C_12  and  O_40 
REMARK    7  A    between atoms: C_13  and  O_41 
REMARK    8  A    between atoms: O_42  and  C_16 
REMARK    9  A    between atoms: C_25  and  O_21 
REMARK   10  A    between atoms: C_26  and  O_44 
ROOT
HETATM    1  C   UNK N   1      27.833  25.209  -4.782  0.00  0.00     0.166 C 
HETATM    2  O   UNK N   1      31.467  22.637  -2.148  0.00  0.00    -0.371 OA
HETATM    3  C   UNK N   1      31.633  23.304  -3.373  0.00  0.00     0.157 A 
HETATM    4  C   UNK N   1      27.167  27.985  -5.248  0.00  0.00     0.141 C 
HETATM    5  C   UNK N   1      31.880  21.840  -3.237  0.00  0.00     0.174 A 
HETATM    6  C   UNK N   1      26.524  26.780  -5.980  0.00  0.00     0.144 C 
HETATM    7  O   UNK N   1      26.533  25.560  -5.239  0.00  0.00    -0.349 OA
HETATM    8  C   UNK N   1      28.499  27.576  -4.602  0.00  0.00     0.140 C 
HETATM    9  C   UNK N   1      28.342  26.285  -3.821  0.00  0.00     0.101 C 
HETATM   10  C   UNK N   1      27.750  23.847  -4.076  0.00  0.00     0.100 C 
HETATM   11  C   UNK N   1      30.761  20.906  -3.603  0.00  0.00     0.013 C 
HETATM   12  C   UNK N   1      32.013  19.880  -5.501  0.00  0.00     0.283 C 
HETATM   13  C   UNK N   1      30.320  23.755  -4.033  0.00  0.00     0.067 C 
HETATM   14  C   UNK N   1      27.063  26.591  -7.404  0.00  0.00     0.069 C 
HETATM   15  O   UNK N   1      31.914  19.695  -6.839  0.00  0.00    -0.313 OA
HETATM   16  C   UNK N   1      30.803  20.094  -4.669  0.00  0.00     0.081 C 
HETATM   17  C   UNK N   1      25.970  25.959  -8.255  0.00  0.00     0.150 C 
HETATM   18  C   UNK N   1      29.011  23.399  -3.307  0.00  0.00     0.125 C 
HETATM   19  O   UNK N   1      33.117  19.892  -4.988  0.00  0.00    -0.260 OA
HETATM   20  C   UNK N   1      26.212  21.282 -10.041  0.00  0.00     0.000 C 
HETATM   21  C   UNK N   1      25.594  21.170  -8.702  0.00  0.00     0.000 C 
HETATM   22  C   UNK N   1      25.564  22.196  -7.844  0.00  0.00    -0.000 C 
HETATM   23  C   UNK N   1      27.532  21.377 -10.228  0.00  0.00    -0.000 C 
HETATM   24  C   UNK N   1      26.163  23.495  -8.178  0.00  0.00    -0.002 C 
HETATM   25  C   UNK N   1      28.499  21.306  -9.123  0.00  0.00    -0.004 C 
HETATM   26  C   UNK N   1      25.455  24.589  -7.956  0.00  0.00     0.005 C 
HETATM   27  C   UNK N   1      29.795  21.284  -9.408  0.00  0.00    -0.024 C 
HETATM   28  C   UNK N   1      30.743  19.840  -7.542  0.00  0.00     0.131 C 
HETATM   29  C   UNK N   1      30.841  21.140  -8.347  0.00  0.00     0.059 C 
HETATM   30  C   UNK N   1      30.562  18.622  -8.436  0.00  0.00     0.040 C 
ENDROOT
BRANCH  17  31
HETATM   31  O   UNK N   1      25.865  26.422  -9.575  0.00  0.00    -0.349 OA
BRANCH  31  32
HETATM   32  C   UNK N   1      27.057  26.150 -10.317  0.00  0.00     0.291 C 
HETATM   33  C   UNK N   1      27.853  27.393 -10.829  0.00  0.00     0.198 C 
HETATM   34  C   UNK N   1      29.231  26.939 -11.289  0.00  0.00     0.139 C 
HETATM   35  C   UNK N   1      29.167  25.567 -11.981  0.00  0.00     0.171 C 
HETATM   36  C   UNK N   1      27.739  25.149 -12.394  0.00  0.00     0.151 C 
HETATM   37  O   UNK N   1      26.746  25.247 -11.372  0.00  0.00    -0.351 OA
HETATM   38  C   UNK N   1      27.773  23.713 -12.879  0.00  0.00     0.042 C 
BRANCH  33  39
HETATM   39  O   UNK N   1      27.176  27.968 -11.915  0.00  0.00    -0.388 OA
HETATM   40  H   UNK N   1      26.710  28.576 -12.510  0.00  0.00     0.210 HD
ENDBRANCH  33  39
BRANCH  34  41
HETATM   41  N   UNK N   1      29.862  27.971 -12.104  0.00  0.00    -0.421 N 
HETATM   42  H   UNK N   1      30.274  27.996 -13.037  0.00  0.00     0.150 HD
HETATM   43  H   UNK N   1      29.899  28.874 -11.634  0.00  0.00     0.150 HD
ENDBRANCH  34  41
BRANCH  35  44
HETATM   44  O   UNK N   1      30.052  25.497 -13.062  0.00  0.00    -0.391 OA
HETATM   45  H   UNK N   1      30.681  24.798 -13.300  0.00  0.00     0.210 HD
ENDBRANCH  35  44
ENDBRANCH  31  32
ENDBRANCH  17  31
BRANCH   4  46
HETATM   46  C   UNK N   1      26.221  28.691  -4.292  0.00  0.00     0.148 C 
HETATM   47  O   UNK N   1      26.322  29.895  -4.126  0.00  0.00    -0.650 OA
BRANCH  46  48
HETATM   48  O   UNK N   1      25.213  28.026  -3.694  0.00  0.00    -0.776 OA
HETATM   49  H   UNK N   1      24.574  27.343  -3.637  0.00  0.00     0.167 HD
ENDBRANCH  46  48
ENDBRANCH   4  46
BRANCH   1  50
HETATM   50  O   UNK N   1      28.713  25.062  -5.864  0.00  0.00    -0.365 OA
HETATM   51  H   UNK N   1      28.932  24.544  -6.654  0.00  0.00     0.213 HD
ENDBRANCH   1  50
BRANCH   8  52
HETATM   52  O   UNK N   1      29.017  28.578  -3.780  0.00  0.00    -0.394 OA
HETATM   53  H   UNK N   1      28.486  29.335  -3.487  0.00  0.00     0.210 HD
ENDBRANCH   8  52
BRANCH  18  54
HETATM   54  O   UNK N   1      28.996  23.953  -2.028  0.00  0.00    -0.395 OA
HETATM   55  H   UNK N   1      29.629  24.622  -1.722  0.00  0.00     0.210 HD
ENDBRANCH  18  54
TORSDOF 10
ENDMDL
MODEL 5
REMARK VINA RESULT:      -8.0      4.294      9.128
REMARK  10 active torsions:
REMARK  status: ('A' for Active; 'I' for Inactive)
REMARK    1  A    between atoms: C_1  and  O_37 
REMARK    2  A    between atoms: C_3  and  O_21 
REMARK    3  A    between atoms: C_4  and  O_38 
REMARK    4  A    between atoms: C_6  and  N_29 
REMARK    5  A    between atoms: C_7  and  C_16 
REMARK    6  A    between atoms: C_12  and  O_40 
REMARK    7  A    between atoms: C_13  and  O_41 
REMARK    8  A    between atoms: O_42  and  C_16 
REMARK    9  A    between atoms: C_25  and  O_21 
REMARK   10  A    between atoms: C_26  and  O_44 
ROOT
HETATM    1  C   UNK N   1      28.832  16.035   3.828  0.00  0.00     0.166 C 
HETATM    2  O   UNK N   1      25.861  12.059   2.370  0.00  0.00    -0.371 OA
HETATM    3  C   UNK N   1      26.515  12.208   3.604  0.00  0.00     0.157 A 
HETATM    4  C   UNK N   1      28.545  18.320   5.577  0.00  0.00     0.141 C 
HETATM    5  C   UNK N   1      26.805  11.062   2.695  0.00  0.00     0.174 A 
HETATM    6  C   UNK N   1      29.871  17.865   4.918  0.00  0.00     0.144 C 
HETATM    7  O   UNK N   1      29.710  17.145   3.695  0.00  0.00    -0.349 OA
HETATM    8  C   UNK N   1      27.521  17.176   5.577  0.00  0.00     0.140 C 
HETATM    9  C   UNK N   1      27.436  16.534   4.205  0.00  0.00     0.101 C 
HETATM   10  C   UNK N   1      28.794  15.279   2.490  0.00  0.00     0.100 C 
HETATM   11  C   UNK N   1      27.979  11.188   1.765  0.00  0.00     0.013 C 
HETATM   12  C   UNK N   1      29.234   9.310   2.823  0.00  0.00     0.283 C 
HETATM   13  C   UNK N   1      27.527  13.365   3.649  0.00  0.00     0.067 C 
HETATM   14  C   UNK N   1      30.804  17.138   5.894  0.00  0.00     0.069 C 
HETATM   15  O   UNK N   1      30.411   9.059   3.444  0.00  0.00    -0.313 OA
HETATM   16  C   UNK N   1      29.092  10.452   1.886  0.00  0.00     0.081 C 
HETATM   17  C   UNK N   1      32.243  17.376   5.458  0.00  0.00     0.150 C 
HETATM   18  C   UNK N   1      27.721  14.179   2.357  0.00  0.00     0.125 C 
HETATM   19  O   UNK N   1      28.277   8.595   3.064  0.00  0.00    -0.260 OA
HETATM   20  C   UNK N   1      35.202  13.783   3.598  0.00  0.00     0.000 C 
HETATM   21  C   UNK N   1      34.483  14.351   2.438  0.00  0.00     0.000 C 
HETATM   22  C   UNK N   1      33.451  15.191   2.583  0.00  0.00    -0.000 C 
HETATM   23  C   UNK N   1      34.666  12.864   4.409  0.00  0.00    -0.000 C 
HETATM   24  C   UNK N   1      32.961  15.586   3.910  0.00  0.00    -0.002 C 
HETATM   25  C   UNK N   1      33.337  12.280   4.179  0.00  0.00    -0.004 C 
HETATM   26  C   UNK N   1      32.745  16.869   4.145  0.00  0.00     0.005 C 
HETATM   27  C   UNK N   1      32.933  11.286   4.960  0.00  0.00    -0.024 C 
HETATM   28  C   UNK N   1      31.495   9.901   3.385  0.00  0.00     0.131 C 
HETATM   29  C   UNK N   1      31.625  10.588   4.748  0.00  0.00     0.059 C 
HETATM   30  C   UNK N   1      32.727   9.078   3.036  0.00  0.00     0.040 C 
ENDROOT
BRANCH  17  31
HETATM   31  O   UNK N   1      33.180  17.570   6.484  0.00  0.00    -0.349 OA
BRANCH  31  32
HETATM   32  C   UNK N   1      33.355  16.380   7.257  0.00  0.00     0.291 C 
HETATM   33  C   UNK N   1      32.861  16.438   8.738  0.00  0.00     0.198 C 
HETATM   34  C   UNK N   1      32.813  15.023   9.296  0.00  0.00     0.139 C 
HETATM   35  C   UNK N   1      33.986  14.175   8.775  0.00  0.00     0.171 C 
HETATM   36  C   UNK N   1      35.121  15.011   8.145  0.00  0.00     0.151 C 
HETATM   37  O   UNK N   1      34.714  15.969   7.167  0.00  0.00    -0.351 OA
HETATM   38  C   UNK N   1      36.116  14.069   7.495  0.00  0.00     0.042 C 
BRANCH  33  39
HETATM   39  O   UNK N   1      33.757  17.200   9.502  0.00  0.00    -0.388 OA
HETATM   40  H   UNK N   1      34.403  17.857   9.805  0.00  0.00     0.210 HD
ENDBRANCH  33  39
BRANCH  34  41
HETATM   41  N   UNK N   1      32.722  15.051  10.751  0.00  0.00    -0.421 N 
HETATM   42  H   UNK N   1      33.374  15.258  11.508  0.00  0.00     0.150 HD
HETATM   43  H   UNK N   1      31.792  14.809  11.091  0.00  0.00     0.150 HD
ENDBRANCH  34  41
BRANCH  35  44
HETATM   44  O   UNK N   1      34.474  13.312   9.762  0.00  0.00    -0.391 OA
HETATM   45  H   UNK N   1      34.407  13.379  10.727  0.00  0.00     0.210 HD
ENDBRANCH  35  44
ENDBRANCH  31  32
ENDBRANCH  17  31
BRANCH   4  46
HETATM   46  C   UNK N   1      28.002  19.621   5.014  0.00  0.00     0.148 C 
HETATM   47  O   UNK N   1      27.459  20.420   5.759  0.00  0.00    -0.650 OA
BRANCH  46  48
HETATM   48  O   UNK N   1      28.189  19.952   3.720  0.00  0.00    -0.776 OA
HETATM   49  H   UNK N   1      27.914  20.297   2.894  0.00  0.00     0.167 HD
ENDBRANCH  46  48
ENDBRANCH   4  46
BRANCH   1  50
HETATM   50  O   UNK N   1      29.310  15.139   4.796  0.00  0.00    -0.365 OA
HETATM   51  H   UNK N   1      30.054  14.905   5.373  0.00  0.00     0.213 HD
ENDBRANCH   1  50
BRANCH   8  52
HETATM   52  O   UNK N   1      26.257  17.598   5.992  0.00  0.00    -0.394 OA
HETATM   53  H   UNK N   1      25.910  17.403   6.877  0.00  0.00     0.210 HD
ENDBRANCH   8  52
BRANCH  18  54
HETATM   54  O   UNK N   1      26.516  14.752   1.956  0.00  0.00    -0.395 OA
HETATM   55  H   UNK N   1      26.451  15.489   1.328  0.00  0.00     0.210 HD
ENDBRANCH  18  54
TORSDOF 10
ENDMDL
MODEL 6
REMARK VINA RESULT:      -7.8      5.161      8.133
REMARK  10 active torsions:
REMARK  status: ('A' for Active; 'I' for Inactive)
REMARK    1  A    between atoms: C_1  and  O_37 
REMARK    2  A    between atoms: C_3  and  O_21 
REMARK    3  A    between atoms: C_4  and  O_38 
REMARK    4  A    between atoms: C_6  and  N_29 
REMARK    5  A    between atoms: C_7  and  C_16 
REMARK    6  A    between atoms: C_12  and  O_40 
REMARK    7  A    between atoms: C_13  and  O_41 
REMARK    8  A    between atoms: O_42  and  C_16 
REMARK    9  A    between atoms: C_25  and  O_21 
REMARK   10  A    between atoms: C_26  and  O_44 
ROOT
HETATM    1  C   UNK N   1      22.182  11.691   6.803  0.00  0.00     0.166 C 
HETATM    2  O   UNK N   1      25.712   8.326   5.076  0.00  0.00    -0.371 OA
HETATM    3  C   UNK N   1      25.825   9.726   5.092  0.00  0.00     0.157 A 
HETATM    4  C   UNK N   1      21.851  13.342   9.155  0.00  0.00     0.141 C 
HETATM    5  C   UNK N   1      25.884   8.949   3.821  0.00  0.00     0.174 A 
HETATM    6  C   UNK N   1      20.970  13.418   7.883  0.00  0.00     0.144 C 
HETATM    7  O   UNK N   1      20.898  12.203   7.136  0.00  0.00    -0.349 OA
HETATM    8  C   UNK N   1      23.181  12.636   8.850  0.00  0.00     0.140 C 
HETATM    9  C   UNK N   1      22.941  11.347   8.087  0.00  0.00     0.101 C 
HETATM   10  C   UNK N   1      21.997  10.438   5.932  0.00  0.00     0.100 C 
HETATM   11  C   UNK N   1      24.614   8.802   3.032  0.00  0.00     0.013 C 
HETATM   12  C   UNK N   1      25.487  10.074   1.072  0.00  0.00     0.283 C 
HETATM   13  C   UNK N   1      24.518  10.465   5.424  0.00  0.00     0.067 C 
HETATM   14  C   UNK N   1      21.310  14.619   6.992  0.00  0.00     0.069 C 
HETATM   15  O   UNK N   1      25.210  11.175   0.333  0.00  0.00    -0.313 OA
HETATM   16  C   UNK N   1      24.422   9.381   1.838  0.00  0.00     0.081 C 
HETATM   17  C   UNK N   1      20.051  15.043   6.249  0.00  0.00     0.150 C 
HETATM   18  C   UNK N   1      23.265   9.603   5.660  0.00  0.00     0.125 C 
HETATM   19  O   UNK N   1      26.634   9.669   1.118  0.00  0.00    -0.260 OA
HETATM   20  C   UNK N   1      19.445  14.510   1.303  0.00  0.00     0.000 C 
HETATM   21  C   UNK N   1      18.977  13.243   1.904  0.00  0.00     0.000 C 
HETATM   22  C   UNK N   1      19.186  12.946   3.191  0.00  0.00    -0.000 C 
HETATM   23  C   UNK N   1      20.736  14.774   1.074  0.00  0.00    -0.000 C 
HETATM   24  C   UNK N   1      19.914  13.860   4.082  0.00  0.00    -0.002 C 
HETATM   25  C   UNK N   1      21.805  13.799   1.332  0.00  0.00    -0.004 C 
HETATM   26  C   UNK N   1      19.392  14.131   5.266  0.00  0.00     0.005 C 
HETATM   27  C   UNK N   1      23.045  14.096   0.962  0.00  0.00    -0.024 C 
HETATM   28  C   UNK N   1      23.996  11.818   0.353  0.00  0.00     0.131 C 
HETATM   29  C   UNK N   1      24.177  13.130   1.124  0.00  0.00     0.059 C 
HETATM   30  C   UNK N   1      23.549  12.051  -1.083  0.00  0.00     0.040 C 
ENDROOT
BRANCH  17  31
HETATM   31  O   UNK N   1      19.858  16.424   6.090  0.00  0.00    -0.349 OA
BRANCH  31  32
HETATM   32  C   UNK N   1      20.872  16.997   5.261  0.00  0.00     0.291 C 
HETATM   33  C   UNK N   1      22.163  17.492   5.989  0.00  0.00     0.198 C 
HETATM   34  C   UNK N   1      23.244  17.752   4.950  0.00  0.00     0.139 C 
HETATM   35  C   UNK N   1      22.653  18.354   3.664  0.00  0.00     0.171 C 
HETATM   36  C   UNK N   1      21.222  18.906   3.842  0.00  0.00     0.151 C 
HETATM   37  O   UNK N   1      20.289  18.019   4.461  0.00  0.00    -0.351 OA
HETATM   38  C   UNK N   1      20.674  19.287   2.480  0.00  0.00     0.042 C 
BRANCH  33  39
HETATM   39  O   UNK N   1      21.888  18.687   6.671  0.00  0.00    -0.388 OA
HETATM   40  H   UNK N   1      21.951  19.558   7.093  0.00  0.00     0.210 HD
ENDBRANCH  33  39
BRANCH  34  41
HETATM   41  N   UNK N   1      24.320  18.553   5.523  0.00  0.00    -0.421 N 
HETATM   42  H   UNK N   1      25.164  18.991   5.152  0.00  0.00     0.150 HD
HETATM   43  H   UNK N   1      24.202  18.711   6.522  0.00  0.00     0.150 HD
ENDBRANCH  34  41
BRANCH  35  44
HETATM   44  O   UNK N   1      23.505  19.314   3.108  0.00  0.00    -0.391 OA
HETATM   45  H   UNK N   1      23.383  20.273   3.025  0.00  0.00     0.210 HD
ENDBRANCH  35  44
ENDBRANCH  31  32
ENDBRANCH  17  31
BRANCH   4  46
HETATM   46  C   UNK N   1      21.127  12.775  10.363  0.00  0.00     0.148 C 
HETATM   47  O   UNK N   1      19.951  13.044  10.540  0.00  0.00    -0.650 OA
BRANCH  46  48
HETATM   48  O   UNK N   1      21.734  11.904  11.193  0.00  0.00    -0.776 OA
HETATM   49  H   UNK N   1      22.379  11.259  11.409  0.00  0.00     0.167 HD
ENDBRANCH  46  48
ENDBRANCH   4  46
BRANCH   1  50
HETATM   50  O   UNK N   1      22.904  12.622   6.043  0.00  0.00    -0.365 OA
HETATM   51  H   UNK N   1      23.572  12.744   5.350  0.00  0.00     0.213 HD
ENDBRANCH   1  50
BRANCH   8  52
HETATM   52  O   UNK N   1      23.922  12.384  10.005  0.00  0.00    -0.394 OA
HETATM   53  H   UNK N   1      23.895  11.528  10.462  0.00  0.00     0.210 HD
ENDBRANCH   8  52
BRANCH  18  54
HETATM   54  O   UNK N   1      23.474   8.717   6.716  0.00  0.00    -0.395 OA
HETATM   55  H   UNK N   1      23.825   7.820   6.606  0.00  0.00     0.210 HD
ENDBRANCH  18  54
TORSDOF 10
ENDMDL
MODEL 7
REMARK VINA RESULT:      -7.7     13.075     16.058
REMARK  10 active torsions:
REMARK  status: ('A' for Active; 'I' for Inactive)
REMARK    1  A    between atoms: C_1  and  O_37 
REMARK    2  A    between atoms: C_3  and  O_21 
REMARK    3  A    between atoms: C_4  and  O_38 
REMARK    4  A    between atoms: C_6  and  N_29 
REMARK    5  A    between atoms: C_7  and  C_16 
REMARK    6  A    between atoms: C_12  and  O_40 
REMARK    7  A    between atoms: C_13  and  O_41 
REMARK    8  A    between atoms: O_42  and  C_16 
REMARK    9  A    between atoms: C_25  and  O_21 
REMARK   10  A    between atoms: C_26  and  O_44 
ROOT
HETATM    1  C   UNK N   1      30.422  21.880  -6.077  0.00  0.00     0.166 C 
HETATM    2  O   UNK N   1      29.626  19.734 -10.716  0.00  0.00    -0.371 OA
HETATM    3  C   UNK N   1      30.170  21.004 -10.462  0.00  0.00     0.157 A 
HETATM    4  C   UNK N   1      32.707  22.381  -4.375  0.00  0.00     0.141 C 
HETATM    5  C   UNK N   1      28.915  20.831 -11.248  0.00  0.00     0.174 A 
HETATM    6  C   UNK N   1      31.279  22.934  -4.135  0.00  0.00     0.144 C 
HETATM    7  O   UNK N   1      30.232  22.139  -4.691  0.00  0.00    -0.349 OA
HETATM    8  C   UNK N   1      32.875  21.938  -5.836  0.00  0.00     0.140 C 
HETATM    9  C   UNK N   1      31.707  21.074  -6.272  0.00  0.00     0.101 C 
HETATM   10  C   UNK N   1      29.206  21.097  -6.598  0.00  0.00     0.100 C 
HETATM   11  C   UNK N   1      27.609  20.961 -10.518  0.00  0.00     0.013 C 
HETATM   12  C   UNK N   1      26.898  22.978 -11.801  0.00  0.00     0.283 C 
HETATM   13  C   UNK N   1      30.046  21.466  -9.001  0.00  0.00     0.067 C 
HETATM   14  C   UNK N   1      31.141  24.413  -4.514  0.00  0.00     0.069 C 
HETATM   15  O   UNK N   1      26.544  24.270 -11.604  0.00  0.00    -0.313 OA
HETATM   16  C   UNK N   1      26.754  21.973 -10.718  0.00  0.00     0.081 C 
HETATM   17  C   UNK N   1      30.070  25.041  -3.632  0.00  0.00     0.150 C 
HETATM   18  C   UNK N   1      29.327  20.520  -8.023  0.00  0.00     0.125 C 
HETATM   19  O   UNK N   1      27.361  22.651 -12.879  0.00  0.00    -0.260 OA
HETATM   20  C   UNK N   1      25.625  26.588  -5.353  0.00  0.00     0.000 C 
HETATM   21  C   UNK N   1      25.446  25.163  -5.002  0.00  0.00     0.000 C 
HETATM   22  C   UNK N   1      26.480  24.368  -4.707  0.00  0.00    -0.000 C 
HETATM   23  C   UNK N   1      26.165  26.991  -6.508  0.00  0.00    -0.000 C 
HETATM   24  C   UNK N   1      27.863  24.864  -4.732  0.00  0.00    -0.002 C 
HETATM   25  C   UNK N   1      26.565  26.055  -7.568  0.00  0.00    -0.004 C 
HETATM   26  C   UNK N   1      28.648  24.589  -3.705  0.00  0.00     0.005 C 
HETATM   27  C   UNK N   1      26.978  26.544  -8.730  0.00  0.00    -0.024 C 
HETATM   28  C   UNK N   1      26.183  24.781 -10.381  0.00  0.00     0.131 C 
HETATM   29  C   UNK N   1      27.335  25.660  -9.884  0.00  0.00     0.059 C 
HETATM   30  C   UNK N   1      24.891  25.567 -10.549  0.00  0.00     0.040 C 
ENDROOT
BRANCH  17  31
HETATM   31  O   UNK N   1      30.317  26.350  -3.191  0.00  0.00    -0.349 OA
BRANCH  31  32
HETATM   32  C   UNK N   1      29.881  27.313  -4.154  0.00  0.00     0.291 C 
HETATM   33  C   UNK N   1      31.002  28.133  -4.869  0.00  0.00     0.198 C 
HETATM   34  C   UNK N   1      30.398  28.847  -6.070  0.00  0.00     0.139 C 
HETATM   35  C   UNK N   1      28.974  29.345  -5.769  0.00  0.00     0.171 C 
HETATM   36  C   UNK N   1      28.632  29.364  -4.264  0.00  0.00     0.151 C 
HETATM   37  O   UNK N   1      28.907  28.157  -3.552  0.00  0.00    -0.351 OA
HETATM   38  C   UNK N   1      27.156  29.678  -4.103  0.00  0.00     0.042 C 
BRANCH  33  39
HETATM   39  O   UNK N   1      31.520  29.090  -3.984  0.00  0.00    -0.388 OA
HETATM   40  H   UNK N   1      31.848  29.908  -3.579  0.00  0.00     0.210 HD
ENDBRANCH  33  39
BRANCH  34  41
HETATM   41  N   UNK N   1      31.291  29.898  -6.542  0.00  0.00    -0.421 N 
HETATM   42  H   UNK N   1      31.166  30.769  -7.058  0.00  0.00     0.150 HD
HETATM   43  H   UNK N   1      32.266  29.722  -6.300  0.00  0.00     0.150 HD
ENDBRANCH  34  41
BRANCH  35  44
HETATM   44  O   UNK N   1      28.729  30.588  -6.364  0.00  0.00    -0.391 OA
HETATM   45  H   UNK N   1      28.105  31.284  -6.103  0.00  0.00     0.210 HD
ENDBRANCH  35  44
ENDBRANCH  31  32
ENDBRANCH  17  31
BRANCH   4  46
HETATM   46  C   UNK N   1      33.127  21.324  -3.369  0.00  0.00     0.148 C 
HETATM   47  O   UNK N   1      34.269  20.895  -3.389  0.00  0.00    -0.650 OA
BRANCH  46  48
HETATM   48  O   UNK N   1      32.288  20.917  -2.395  0.00  0.00    -0.776 OA
HETATM   49  H   UNK N   1      31.450  20.852  -1.982  0.00  0.00     0.167 HD
ENDBRANCH  46  48
ENDBRANCH   4  46
BRANCH   1  50
HETATM   50  O   UNK N   1      30.482  23.080  -6.799  0.00  0.00    -0.365 OA
HETATM   51  H   UNK N   1      31.036  23.836  -7.053  0.00  0.00     0.213 HD
ENDBRANCH   1  50
BRANCH   8  52
HETATM   52  O   UNK N   1      34.080  21.266  -6.049  0.00  0.00    -0.394 OA
HETATM   53  H   UNK N   1      34.937  21.645  -5.796  0.00  0.00     0.210 HD
ENDBRANCH   8  52
BRANCH  18  54
HETATM   54  O   UNK N   1      29.975  19.287  -7.972  0.00  0.00    -0.395 OA
HETATM   55  H   UNK N   1      30.913  19.180  -7.750  0.00  0.00     0.210 HD
ENDBRANCH  18  54
TORSDOF 10
ENDMDL
MODEL 8
REMARK VINA RESULT:      -7.5      4.257     10.517
REMARK  10 active torsions:
REMARK  status: ('A' for Active; 'I' for Inactive)
REMARK    1  A    between atoms: C_1  and  O_37 
REMARK    2  A    between atoms: C_3  and  O_21 
REMARK    3  A    between atoms: C_4  and  O_38 
REMARK    4  A    between atoms: C_6  and  N_29 
REMARK    5  A    between atoms: C_7  and  C_16 
REMARK    6  A    between atoms: C_12  and  O_40 
REMARK    7  A    between atoms: C_13  and  O_41 
REMARK    8  A    between atoms: O_42  and  C_16 
REMARK    9  A    between atoms: C_25  and  O_21 
REMARK   10  A    between atoms: C_26  and  O_44 
ROOT
HETATM    1  C   UNK N   1      31.381  16.093   5.651  0.00  0.00     0.166 C 
HETATM    2  O   UNK N   1      26.652  17.811   4.447  0.00  0.00    -0.371 OA
HETATM    3  C   UNK N   1      26.961  16.708   5.261  0.00  0.00     0.157 A 
HETATM    4  C   UNK N   1      33.107  16.192   7.970  0.00  0.00     0.141 C 
HETATM    5  C   UNK N   1      26.166  16.560   4.009  0.00  0.00     0.174 A 
HETATM    6  C   UNK N   1      33.368  15.342   6.701  0.00  0.00     0.144 C 
HETATM    7  O   UNK N   1      32.776  15.857   5.509  0.00  0.00    -0.349 OA
HETATM    8  C   UNK N   1      31.629  16.601   8.051  0.00  0.00     0.140 C 
HETATM    9  C   UNK N   1      31.154  17.160   6.724  0.00  0.00     0.101 C 
HETATM   10  C   UNK N   1      30.823  16.560   4.297  0.00  0.00     0.100 C 
HETATM   11  C   UNK N   1      26.899  16.170   2.756  0.00  0.00     0.013 C 
HETATM   12  C   UNK N   1      25.702  13.993   2.533  0.00  0.00     0.283 C 
HETATM   13  C   UNK N   1      28.441  16.290   5.226  0.00  0.00     0.067 C 
HETATM   14  C   UNK N   1      33.053  13.855   6.904  0.00  0.00     0.069 C 
HETATM   15  O   UNK N   1      25.953  12.663   2.478  0.00  0.00    -0.313 OA
HETATM   16  C   UNK N   1      26.740  14.983   2.154  0.00  0.00     0.081 C 
HETATM   17  C   UNK N   1      33.959  13.039   5.992  0.00  0.00     0.150 C 
HETATM   18  C   UNK N   1      29.375  17.090   4.301  0.00  0.00     0.125 C 
HETATM   19  O   UNK N   1      24.612  14.370   2.923  0.00  0.00    -0.260 OA
HETATM   20  C   UNK N   1      32.296  10.459   2.030  0.00  0.00     0.000 C 
HETATM   21  C   UNK N   1      32.586  11.820   1.531  0.00  0.00     0.000 C 
HETATM   22  C   UNK N   1      32.848  12.840   2.356  0.00  0.00    -0.000 C 
HETATM   23  C   UNK N   1      31.161  10.141   2.661  0.00  0.00    -0.000 C 
HETATM   24  C   UNK N   1      32.847  12.668   3.815  0.00  0.00    -0.002 C 
HETATM   25  C   UNK N   1      30.063  11.099   2.853  0.00  0.00    -0.004 C 
HETATM   26  C   UNK N   1      33.863  13.155   4.506  0.00  0.00     0.005 C 
HETATM   27  C   UNK N   1      28.923  10.667   3.379  0.00  0.00    -0.024 C 
HETATM   28  C   UNK N   1      27.196  12.135   2.226  0.00  0.00     0.131 C 
HETATM   29  C   UNK N   1      27.733  11.560   3.541  0.00  0.00     0.059 C 
HETATM   30  C   UNK N   1      27.060  11.072   1.146  0.00  0.00     0.040 C 
ENDROOT
BRANCH  17  31
HETATM   31  O   UNK N   1      34.456  11.839   6.522  0.00  0.00    -0.349 OA
BRANCH  31  32
HETATM   32  C   UNK N   1      33.442  11.127   7.236  0.00  0.00     0.291 C 
HETATM   33  C   UNK N   1      33.873  10.478   8.590  0.00  0.00     0.198 C 
HETATM   34  C   UNK N   1      32.625  10.065   9.357  0.00  0.00     0.139 C 
HETATM   35  C   UNK N   1      31.537   9.529   8.411  0.00  0.00     0.171 C 
HETATM   36  C   UNK N   1      32.063   9.171   7.004  0.00  0.00     0.151 C 
HETATM   37  O   UNK N   1      32.842  10.180   6.359  0.00  0.00    -0.351 OA
HETATM   38  C   UNK N   1      30.882   8.847   6.110  0.00  0.00     0.042 C 
BRANCH  33  39
HETATM   39  O   UNK N   1      34.650   9.338   8.336  0.00  0.00    -0.388 OA
HETATM   40  H   UNK N   1      35.257   8.687   7.949  0.00  0.00     0.210 HD
ENDBRANCH  33  39
BRANCH  34  41
HETATM   41  N   UNK N   1      32.968   9.139  10.429  0.00  0.00    -0.421 N 
HETATM   42  H   UNK N   1      33.797   8.980  11.003  0.00  0.00     0.150 HD
HETATM   43  H   UNK N   1      32.205   8.504  10.659  0.00  0.00     0.150 HD
ENDBRANCH  34  41
BRANCH  35  44
HETATM   44  O   UNK N   1      30.842   8.459   8.983  0.00  0.00    -0.391 OA
HETATM   45  H   UNK N   1      30.510   8.352   9.889  0.00  0.00     0.210 HD
ENDBRANCH  35  44
ENDBRANCH  31  32
ENDBRANCH  17  31
BRANCH   4  46
HETATM   46  C   UNK N   1      34.068  17.357   8.129  0.00  0.00     0.148 C 
HETATM   47  O   UNK N   1      34.454  17.670   9.243  0.00  0.00    -0.650 OA
BRANCH  46  48
HETATM   48  O   UNK N   1      34.574  17.995   7.055  0.00  0.00    -0.776 OA
HETATM   49  H   UNK N   1      34.531  18.336   6.183  0.00  0.00     0.167 HD
ENDBRANCH  46  48
ENDBRANCH   4  46
BRANCH   1  50
HETATM   50  O   UNK N   1      30.711  14.909   5.989  0.00  0.00    -0.365 OA
HETATM   51  H   UNK N   1      29.923  14.525   6.406  0.00  0.00     0.213 HD
ENDBRANCH   1  50
BRANCH   8  52
HETATM   52  O   UNK N   1      31.390  17.518   9.076  0.00  0.00    -0.394 OA
HETATM   53  H   UNK N   1      32.109  17.957   9.557  0.00  0.00     0.210 HD
ENDBRANCH   8  52
BRANCH  18  54
HETATM   54  O   UNK N   1      29.375  18.438   4.654  0.00  0.00    -0.395 OA
HETATM   55  H   UNK N   1      28.639  18.877   5.110  0.00  0.00     0.210 HD
ENDBRANCH  18  54
TORSDOF 10
ENDMDL
MODEL 9
REMARK VINA RESULT:      -7.4      7.271     12.689
REMARK  10 active torsions:
REMARK  status: ('A' for Active; 'I' for Inactive)
REMARK    1  A    between atoms: C_1  and  O_37 
REMARK    2  A    between atoms: C_3  and  O_21 
REMARK    3  A    between atoms: C_4  and  O_38 
REMARK    4  A    between atoms: C_6  and  N_29 
REMARK    5  A    between atoms: C_7  and  C_16 
REMARK    6  A    between atoms: C_12  and  O_40 
REMARK    7  A    between atoms: C_13  and  O_41 
REMARK    8  A    between atoms: O_42  and  C_16 
REMARK    9  A    between atoms: C_25  and  O_21 
REMARK   10  A    between atoms: C_26  and  O_44 
ROOT
HETATM    1  C   UNK N   1      34.310  14.425   7.255  0.00  0.00     0.166 C 
HETATM    2  O   UNK N   1      31.437  15.301   3.043  0.00  0.00    -0.371 OA
HETATM    3  C   UNK N   1      31.033  14.628   4.208  0.00  0.00     0.157 A 
HETATM    4  C   UNK N   1      34.479  15.517   9.928  0.00  0.00     0.141 C 
HETATM    5  C   UNK N   1      31.035  13.958   2.876  0.00  0.00     0.174 A 
HETATM    6  C   UNK N   1      35.216  14.246   9.438  0.00  0.00     0.144 C 
HETATM    7  O   UNK N   1      35.480  14.216   8.035  0.00  0.00    -0.349 OA
HETATM    8  C   UNK N   1      33.306  15.855   8.995  0.00  0.00     0.140 C 
HETATM    9  C   UNK N   1      33.749  15.819   7.545  0.00  0.00     0.101 C 
HETATM   10  C   UNK N   1      34.682  14.288   5.770  0.00  0.00     0.100 C 
HETATM   11  C   UNK N   1      32.239  13.137   2.509  0.00  0.00     0.013 C 
HETATM   12  C   UNK N   1      30.960  10.998   2.416  0.00  0.00     0.283 C 
HETATM   13  C   UNK N   1      32.179  14.300   5.180  0.00  0.00     0.067 C 
HETATM   14  C   UNK N   1      34.559  12.949   9.926  0.00  0.00     0.069 C 
HETATM   15  O   UNK N   1      30.937   9.769   2.985  0.00  0.00    -0.313 OA
HETATM   16  C   UNK N   1      32.206  11.802   2.387  0.00  0.00     0.081 C 
HETATM   17  C   UNK N   1      35.636  11.880  10.059  0.00  0.00     0.150 C 
HETATM   18  C   UNK N   1      33.600  14.709   4.754  0.00  0.00     0.125 C 
HETATM   19  O   UNK N   1      29.931  11.448   1.945  0.00  0.00    -0.260 OA
HETATM   20  C   UNK N   1      35.931   7.864   7.075  0.00  0.00     0.000 C 
HETATM   21  C   UNK N   1      36.703   8.927   6.396  0.00  0.00     0.000 C 
HETATM   22  C   UNK N   1      36.667  10.201   6.801  0.00  0.00    -0.000 C 
HETATM   23  C   UNK N   1      34.599   7.771   6.999  0.00  0.00    -0.000 C 
HETATM   24  C   UNK N   1      35.840  10.624   7.939  0.00  0.00    -0.002 C 
HETATM   25  C   UNK N   1      33.784   8.674   6.174  0.00  0.00    -0.004 C 
HETATM   26  C   UNK N   1      36.388  11.392   8.864  0.00  0.00     0.005 C 
HETATM   27  C   UNK N   1      32.483   8.435   6.058  0.00  0.00    -0.024 C 
HETATM   28  C   UNK N   1      31.986   9.242   3.699  0.00  0.00     0.131 C 
HETATM   29  C   UNK N   1      31.597   9.263   5.181  0.00  0.00     0.059 C 
HETATM   30  C   UNK N   1      32.254   7.832   3.194  0.00  0.00     0.040 C 
ENDROOT
BRANCH  17  31
HETATM   31  O   UNK N   1      35.520  11.014  11.156  0.00  0.00    -0.349 OA
BRANCH  31  32
HETATM   32  C   UNK N   1      35.357  11.742  12.376  0.00  0.00     0.291 C 
HETATM   33  C   UNK N   1      36.395  12.877  12.650  0.00  0.00     0.198 C 
HETATM   34  C   UNK N   1      35.885  13.746  13.790  0.00  0.00     0.139 C 
HETATM   35  C   UNK N   1      35.172  12.904  14.862  0.00  0.00     0.171 C 
HETATM   36  C   UNK N   1      35.462  11.392  14.752  0.00  0.00     0.151 C 
HETATM   37  O   UNK N   1      35.281  10.819  13.456  0.00  0.00    -0.351 OA
HETATM   38  C   UNK N   1      34.561  10.651  15.722  0.00  0.00     0.042 C 
BRANCH  33  39
HETATM   39  O   UNK N   1      37.622  12.309  13.024  0.00  0.00    -0.388 OA
HETATM   40  H   UNK N   1      38.524  11.950  13.029  0.00  0.00     0.210 HD
ENDBRANCH  33  39
BRANCH  34  41
HETATM   41  N   UNK N   1      36.961  14.572  14.323  0.00  0.00    -0.421 N 
HETATM   42  H   UNK N   1      37.116  15.072  15.200  0.00  0.00     0.150 HD
HETATM   43  H   UNK N   1      37.738  14.674  13.671  0.00  0.00     0.150 HD
ENDBRANCH  34  41
BRANCH  35  44
HETATM   44  O   UNK N   1      35.437  13.382  16.149  0.00  0.00    -0.391 OA
HETATM   45  H   UNK N   1      36.221  13.255  16.706  0.00  0.00     0.210 HD
ENDBRANCH  35  44
ENDBRANCH  31  32
ENDBRANCH  17  31
BRANCH   4  46
HETATM   46  C   UNK N   1      35.402  16.692  10.191  0.00  0.00     0.148 C 
HETATM   47  O   UNK N   1      36.396  16.534  10.882  0.00  0.00    -0.650 OA
BRANCH  46  48
HETATM   48  O   UNK N   1      35.196  17.887   9.601  0.00  0.00    -0.776 OA
HETATM   49  H   UNK N   1      34.675  18.521   9.150  0.00  0.00     0.167 HD
ENDBRANCH  46  48
ENDBRANCH   4  46
BRANCH   1  50
HETATM   50  O   UNK N   1      33.349  13.443   7.534  0.00  0.00    -0.365 OA
HETATM   51  H   UNK N   1      33.160  12.491   7.560  0.00  0.00     0.213 HD
ENDBRANCH   1  50
BRANCH   8  52
HETATM   52  O   UNK N   1      32.732  17.092   9.295  0.00  0.00    -0.394 OA
HETATM   53  H   UNK N   1      31.786  17.268   9.171  0.00  0.00     0.210 HD
ENDBRANCH   8  52
BRANCH  18  54
HETATM   54  O   UNK N   1      33.670  16.085   4.544  0.00  0.00    -0.395 OA
HETATM   55  H   UNK N   1      33.614  16.501   3.669  0.00  0.00     0.210 HD
ENDBRANCH  18  54
TORSDOF 10
ENDMDL
