MODEL 1
REMARK VINA RESULT:      -7.3      0.000      0.000
REMARK  7 active torsions:
REMARK  status: ('A' for Active; 'I' for Inactive)
REMARK    1  A    between atoms: C_14  and  O_21 
REMARK    2  A    between atoms: C_17  and  O_23 
REMARK    3  A    between atoms: C_17  and  C_26 
REMARK    4  A    between atoms: C_31  and  O_23 
REMARK    5  A    between atoms: C_26  and  S_28 
REMARK    6  A    between atoms: S_28  and  C_29 
REMARK    7  A    between atoms: C_31  and  C_32 
ROOT
HETATM    1  C   UNK N   1      30.921  16.914   7.228  0.00  0.00     0.052 C 
HETATM    2  C   UNK N   1      31.274  17.058   5.790  0.00  0.00     0.172 C 
HETATM    3  C   UNK N   1      32.341  16.172   5.261  0.00  0.00     0.061 C 
HETATM    4  C   UNK N   1      33.232  15.660   6.137  0.00  0.00    -0.027 C 
HETATM    5  C   UNK N   1      33.250  16.191   7.563  0.00  0.00     0.039 C 
HETATM    6  C   UNK N   1      31.820  16.336   8.051  0.00  0.00    -0.006 C 
HETATM    7  C   UNK N   1      34.161  14.533   5.763  0.00  0.00     0.201 C 
HETATM    8  C   UNK N   1      33.970  13.370   6.751  0.00  0.00     0.050 C 
HETATM    9  C   UNK N   1      34.040  13.778   8.244  0.00  0.00     0.037 C 
HETATM   10  C   UNK N   1      34.188  15.326   8.451  0.00  0.00     0.147 C 
HETATM   11  C   UNK N   1      35.285  13.133   8.944  0.00  0.00     0.005 C 
HETATM   12  C   UNK N   1      35.543  13.669  10.388  0.00  0.00     0.003 C 
HETATM   13  C   UNK N   1      34.389  14.526  10.912  0.00  0.00     0.048 C 
HETATM   14  C   UNK N   1      33.981  15.652   9.954  0.00  0.00     0.160 C 
HETATM   15  C   UNK N   1      35.429  11.615   9.045  0.00  0.00     0.013 C 
HETATM   16  C   UNK N   1      36.400  11.423  10.231  0.00  0.00     0.027 C 
HETATM   17  C   UNK N   1      35.786  12.398  11.261  0.00  0.00     0.152 C 
HETATM   18  O   UNK N   1      30.604  17.752   5.043  0.00  0.00    -0.289 OA
HETATM   19  C   UNK N   1      33.809  17.623   7.525  0.00  0.00     0.028 C 
HETATM   20  F   UNK N   1      35.491  15.654   8.079  0.00  0.00    -0.238 F 
HETATM   21  C   UNK N   1      36.800  14.562  10.357  0.00  0.00     0.019 C 
HETATM   22  C   UNK N   1      37.838  11.738   9.817  0.00  0.00     0.014 C 
HETATM   23  F   UNK N   1      33.937  14.090   4.471  0.00  0.00    -0.245 F 
ENDROOT
BRANCH  17  24
HETATM   24  O   UNK N   1      34.593  11.782  11.651  0.00  0.00    -0.300 OA
BRANCH  24  25
HETATM   25  C   UNK N   1      34.531  10.729  12.530  0.00  0.00     0.259 C 
HETATM   26  O   UNK N   1      35.000   9.649  12.205  0.00  0.00    -0.265 OA
BRANCH  25  27
HETATM   27  C   UNK N   1      33.874  10.856  13.884  0.00  0.00     0.106 C 
HETATM   28  C   UNK N   1      34.714  10.223  14.977  0.00  0.00     0.015 C 
ENDBRANCH  25  27
ENDBRANCH  24  25
ENDBRANCH  17  24
BRANCH  17  29
HETATM   29  C   UNK N   1      36.573  12.749  12.532  0.00  0.00     0.224 C 
HETATM   30  O   UNK N   1      37.627  12.181  12.770  0.00  0.00    -0.282 OA
BRANCH  29  31
HETATM   31  S   UNK N   1      36.024  14.060  13.670  0.00  0.00    -0.058 SA
BRANCH  31  32
HETATM   32  C   UNK N   1      36.830  13.487  15.205  0.00  0.00     0.304 C 
HETATM   33  F   UNK N   1      37.473  14.548  15.825  0.00  0.00    -0.244 F 
ENDBRANCH  31  32
ENDBRANCH  29  31
ENDBRANCH  17  29
BRANCH  14  34
HETATM   34  O   UNK N   1      34.576  16.863  10.312  0.00  0.00    -0.392 OA
HETATM   35  H   UNK N   1      34.378  17.799  10.470  0.00  0.00     0.210 HD
ENDBRANCH  14  34
TORSDOF 7
ENDMDL
MODEL 2
REMARK VINA RESULT:      -7.2     15.871     20.031
REMARK  7 active torsions:
REMARK  status: ('A' for Active; 'I' for Inactive)
REMARK    1  A    between atoms: C_14  and  O_21 
REMARK    2  A    between atoms: C_17  and  O_23 
REMARK    3  A    between atoms: C_17  and  C_26 
REMARK    4  A    between atoms: C_31  and  O_23 
REMARK    5  A    between atoms: C_26  and  S_28 
REMARK    6  A    between atoms: S_28  and  C_29 
REMARK    7  A    between atoms: C_31  and  C_32 
ROOT
HETATM    1  C   UNK N   1      34.350  21.929  -4.853  0.00  0.00     0.052 C 
HETATM    2  C   UNK N   1      34.235  20.453  -4.992  0.00  0.00     0.172 C 
HETATM    3  C   UNK N   1      32.925  19.912  -5.430  0.00  0.00     0.061 C 
HETATM    4  C   UNK N   1      31.825  20.667  -5.221  0.00  0.00    -0.027 C 
HETATM    5  C   UNK N   1      31.941  21.908  -4.348  0.00  0.00     0.039 C 
HETATM    6  C   UNK N   1      33.216  22.647  -4.712  0.00  0.00    -0.006 C 
HETATM    7  C   UNK N   1      30.506  20.355  -5.880  0.00  0.00     0.201 C 
HETATM    8  C   UNK N   1      30.028  21.587  -6.667  0.00  0.00     0.050 C 
HETATM    9  C   UNK N   1      30.033  22.907  -5.856  0.00  0.00     0.037 C 
HETATM   10  C   UNK N   1      30.630  22.741  -4.415  0.00  0.00     0.147 C 
HETATM   11  C   UNK N   1      28.576  23.448  -5.655  0.00  0.00     0.005 C 
HETATM   12  C   UNK N   1      28.484  24.654  -4.668  0.00  0.00     0.003 C 
HETATM   13  C   UNK N   1      29.857  25.216  -4.294  0.00  0.00     0.048 C 
HETATM   14  C   UNK N   1      30.837  24.148  -3.793  0.00  0.00     0.160 C 
HETATM   15  C   UNK N   1      27.713  23.840  -6.853  0.00  0.00     0.013 C 
HETATM   16  C   UNK N   1      26.671  24.805  -6.247  0.00  0.00     0.027 C 
HETATM   17  C   UNK N   1      27.585  25.708  -5.389  0.00  0.00     0.152 C 
HETATM   18  O   UNK N   1      35.218  19.734  -4.913  0.00  0.00    -0.289 OA
HETATM   19  C   UNK N   1      32.144  21.446  -2.896  0.00  0.00     0.028 C 
HETATM   20  F   UNK N   1      29.682  22.039  -3.671  0.00  0.00    -0.238 F 
HETATM   21  C   UNK N   1      27.818  24.166  -3.365  0.00  0.00     0.019 C 
HETATM   22  C   UNK N   1      25.602  24.037  -5.468  0.00  0.00     0.014 C 
HETATM   23  F   UNK N   1      30.600  19.266  -6.729  0.00  0.00    -0.245 F 
ENDROOT
BRANCH  17  24
HETATM   24  O   UNK N   1      28.297  26.466  -6.324  0.00  0.00    -0.300 OA
BRANCH  24  25
HETATM   25  C   UNK N   1      27.725  27.430  -7.117  0.00  0.00     0.259 C 
HETATM   26  O   UNK N   1      26.830  27.118  -7.887  0.00  0.00    -0.265 OA
BRANCH  25  27
HETATM   27  C   UNK N   1      28.188  28.867  -7.087  0.00  0.00     0.106 C 
HETATM   28  C   UNK N   1      29.282  29.127  -8.104  0.00  0.00     0.015 C 
ENDBRANCH  25  27
ENDBRANCH  24  25
ENDBRANCH  17  24
BRANCH  17  29
HETATM   29  C   UNK N   1      26.957  26.676  -4.377  0.00  0.00     0.224 C 
HETATM   30  O   UNK N   1      25.773  26.577  -4.095  0.00  0.00    -0.282 OA
BRANCH  29  31
HETATM   31  S   UNK N   1      27.946  27.933  -3.507  0.00  0.00    -0.058 SA
BRANCH  31  32
HETATM   32  C   UNK N   1      26.683  29.236  -3.314  0.00  0.00     0.304 C 
HETATM   33  F   UNK N   1      26.344  29.755  -4.554  0.00  0.00    -0.244 F 
ENDBRANCH  31  32
ENDBRANCH  29  31
ENDBRANCH  17  29
BRANCH  14  34
HETATM   34  O   UNK N   1      30.868  24.102  -2.398  0.00  0.00    -0.392 OA
HETATM   35  H   UNK N   1      31.374  23.744  -1.653  0.00  0.00     0.210 HD
ENDBRANCH  14  34
TORSDOF 7
ENDMDL
MODEL 3
REMARK VINA RESULT:      -6.6      4.974      9.335
REMARK  7 active torsions:
REMARK  status: ('A' for Active; 'I' for Inactive)
REMARK    1  A    between atoms: C_14  and  O_21 
REMARK    2  A    between atoms: C_17  and  O_23 
REMARK    3  A    between atoms: C_17  and  C_26 
REMARK    4  A    between atoms: C_31  and  O_23 
REMARK    5  A    between atoms: C_26  and  S_28 
REMARK    6  A    between atoms: S_28  and  C_29 
REMARK    7  A    between atoms: C_31  and  C_32 
ROOT
HETATM    1  C   UNK N   1      34.008   9.245  19.403  0.00  0.00     0.052 C 
HETATM    2  C   UNK N   1      34.456  10.319  20.330  0.00  0.00     0.172 C 
HETATM    3  C   UNK N   1      34.903  11.597  19.724  0.00  0.00     0.061 C 
HETATM    4  C   UNK N   1      35.331  11.576  18.444  0.00  0.00    -0.027 C 
HETATM    5  C   UNK N   1      35.560  10.232  17.767  0.00  0.00     0.039 C 
HETATM    6  C   UNK N   1      34.410   9.305  18.116  0.00  0.00    -0.006 C 
HETATM    7  C   UNK N   1      35.524  12.840  17.645  0.00  0.00     0.201 C 
HETATM    8  C   UNK N   1      34.686  12.761  16.359  0.00  0.00     0.050 C 
HETATM    9  C   UNK N   1      34.889  11.460  15.541  0.00  0.00     0.037 C 
HETATM   10  C   UNK N   1      35.837  10.430  16.250  0.00  0.00     0.147 C 
HETATM   11  C   UNK N   1      35.553  11.766  14.155  0.00  0.00     0.005 C 
HETATM   12  C   UNK N   1      35.984  10.489  13.368  0.00  0.00     0.003 C 
HETATM   13  C   UNK N   1      35.449   9.201  13.997  0.00  0.00     0.048 C 
HETATM   14  C   UNK N   1      35.761   9.077  15.493  0.00  0.00     0.160 C 
HETATM   15  C   UNK N   1      34.851  12.655  13.129  0.00  0.00     0.013 C 
HETATM   16  C   UNK N   1      35.503  12.244  11.790  0.00  0.00     0.027 C 
HETATM   17  C   UNK N   1      35.459  10.704  11.913  0.00  0.00     0.152 C 
HETATM   18  O   UNK N   1      34.305  10.213  21.536  0.00  0.00    -0.289 OA
HETATM   19  C   UNK N   1      36.803   9.590  18.403  0.00  0.00     0.028 C 
HETATM   20  F   UNK N   1      37.128  10.947  16.152  0.00  0.00    -0.238 F 
HETATM   21  C   UNK N   1      37.524  10.403  13.388  0.00  0.00     0.019 C 
HETATM   22  C   UNK N   1      36.902  12.845  11.656  0.00  0.00     0.014 C 
HETATM   23  F   UNK N   1      35.163  13.965  18.368  0.00  0.00    -0.245 F 
ENDROOT
BRANCH  17  24
HETATM   24  O   UNK N   1      34.105  10.386  11.783  0.00  0.00    -0.300 OA
BRANCH  24  25
HETATM   25  C   UNK N   1      33.521  10.008  10.598  0.00  0.00     0.259 C 
HETATM   26  O   UNK N   1      33.277  10.856   9.754  0.00  0.00    -0.265 OA
BRANCH  25  27
HETATM   27  C   UNK N   1      33.146   8.573  10.314  0.00  0.00     0.106 C 
HETATM   28  C   UNK N   1      31.707   8.449   9.853  0.00  0.00     0.015 C 
ENDBRANCH  25  27
ENDBRANCH  24  25
ENDBRANCH  17  24
BRANCH  17  29
HETATM   29  C   UNK N   1      36.245   9.843  10.915  0.00  0.00     0.224 C 
HETATM   30  O   UNK N   1      36.415   8.655  11.139  0.00  0.00    -0.282 OA
BRANCH  29  31
HETATM   31  S   UNK N   1      36.873  10.521   9.346  0.00  0.00    -0.058 SA
BRANCH  31  32
HETATM   32  C   UNK N   1      38.665  10.301   9.613  0.00  0.00     0.304 C 
HETATM   33  F   UNK N   1      39.317  11.517   9.473  0.00  0.00    -0.244 F 
ENDBRANCH  31  32
ENDBRANCH  29  31
ENDBRANCH  17  29
BRANCH  14  34
HETATM   34  O   UNK N   1      36.897   8.294  15.712  0.00  0.00    -0.392 OA
HETATM   35  H   UNK N   1      37.559   7.757  15.251  0.00  0.00     0.210 HD
ENDBRANCH  14  34
TORSDOF 7
ENDMDL
MODEL 4
REMARK VINA RESULT:      -6.6      4.434      7.422
REMARK  7 active torsions:
REMARK  status: ('A' for Active; 'I' for Inactive)
REMARK    1  A    between atoms: C_14  and  O_21 
REMARK    2  A    between atoms: C_17  and  O_23 
REMARK    3  A    between atoms: C_17  and  C_26 
REMARK    4  A    between atoms: C_31  and  O_23 
REMARK    5  A    between atoms: C_26  and  S_28 
REMARK    6  A    between atoms: S_28  and  C_29 
REMARK    7  A    between atoms: C_31  and  C_32 
ROOT
HETATM    1  C   UNK N   1      24.605  16.173   5.468  0.00  0.00     0.052 C 
HETATM    2  C   UNK N   1      24.038  16.026   4.101  0.00  0.00     0.172 C 
HETATM    3  C   UNK N   1      24.960  15.578   3.028  0.00  0.00     0.061 C 
HETATM    4  C   UNK N   1      26.283  15.786   3.201  0.00  0.00    -0.027 C 
HETATM    5  C   UNK N   1      26.744  16.666   4.354  0.00  0.00     0.039 C 
HETATM    6  C   UNK N   1      25.942  16.312   5.593  0.00  0.00    -0.006 C 
HETATM    7  C   UNK N   1      27.316  15.119   2.330  0.00  0.00     0.201 C 
HETATM    8  C   UNK N   1      28.299  14.336   3.217  0.00  0.00     0.050 C 
HETATM    9  C   UNK N   1      28.894  15.154   4.391  0.00  0.00     0.037 C 
HETATM   10  C   UNK N   1      28.290  16.597   4.503  0.00  0.00     0.147 C 
HETATM   11  C   UNK N   1      30.439  15.351   4.211  0.00  0.00     0.005 C 
HETATM   12  C   UNK N   1      31.070  16.343   5.237  0.00  0.00     0.003 C 
HETATM   13  C   UNK N   1      30.102  16.727   6.357  0.00  0.00     0.048 C 
HETATM   14  C   UNK N   1      28.745  17.227   5.846  0.00  0.00     0.160 C 
HETATM   15  C   UNK N   1      31.383  14.150   4.176  0.00  0.00     0.013 C 
HETATM   16  C   UNK N   1      32.751  14.756   4.560  0.00  0.00     0.027 C 
HETATM   17  C   UNK N   1      32.347  15.623   5.774  0.00  0.00     0.152 C 
HETATM   18  O   UNK N   1      22.836  16.106   3.906  0.00  0.00    -0.289 OA
HETATM   19  C   UNK N   1      26.357  18.117   4.024  0.00  0.00     0.028 C 
HETATM   20  F   UNK N   1      28.818  17.332   3.442  0.00  0.00    -0.238 F 
HETATM   21  C   UNK N   1      31.445  17.640   4.491  0.00  0.00     0.019 C 
HETATM   22  C   UNK N   1      33.357  15.526   3.386  0.00  0.00     0.014 C 
HETATM   23  F   UNK N   1      26.737  14.264   1.408  0.00  0.00    -0.245 F 
ENDROOT
BRANCH  17  24
HETATM   24  O   UNK N   1      32.054  14.696   6.778  0.00  0.00    -0.300 OA
BRANCH  24  25
HETATM   25  C   UNK N   1      33.007  14.105   7.571  0.00  0.00     0.259 C 
HETATM   26  O   UNK N   1      33.869  13.410   7.054  0.00  0.00    -0.265 OA
BRANCH  25  27
HETATM   27  C   UNK N   1      33.009  14.265   9.073  0.00  0.00     0.106 C 
HETATM   28  C   UNK N   1      34.347  13.882   9.676  0.00  0.00     0.015 C 
ENDBRANCH  25  27
ENDBRANCH  24  25
ENDBRANCH  17  24
BRANCH  17  29
HETATM   29  C   UNK N   1      33.348  16.638   6.345  0.00  0.00     0.224 C 
HETATM   30  O   UNK N   1      34.452  16.755   5.836  0.00  0.00    -0.282 OA
BRANCH  29  31
HETATM   31  S   UNK N   1      32.914  17.745   7.723  0.00  0.00    -0.058 SA
BRANCH  31  32
HETATM   32  C   UNK N   1      34.496  17.735   8.633  0.00  0.00     0.304 C 
HETATM   33  F   UNK N   1      35.189  18.912   8.391  0.00  0.00    -0.244 F 
ENDBRANCH  31  32
ENDBRANCH  29  31
ENDBRANCH  17  29
BRANCH  14  34
HETATM   34  O   UNK N   1      28.699  18.622   5.810  0.00  0.00    -0.392 OA
HETATM   35  H   UNK N   1      28.231  19.385   6.182  0.00  0.00     0.210 HD
ENDBRANCH  14  34
TORSDOF 7
ENDMDL
MODEL 5
REMARK VINA RESULT:      -6.6      2.977      8.345
REMARK  7 active torsions:
REMARK  status: ('A' for Active; 'I' for Inactive)
REMARK    1  A    between atoms: C_14  and  O_21 
REMARK    2  A    between atoms: C_17  and  O_23 
REMARK    3  A    between atoms: C_17  and  C_26 
REMARK    4  A    between atoms: C_31  and  O_23 
REMARK    5  A    between atoms: C_26  and  S_28 
REMARK    6  A    between atoms: S_28  and  C_29 
REMARK    7  A    between atoms: C_31  and  C_32 
ROOT
HETATM    1  C   UNK N   1      34.563   9.313  16.928  0.00  0.00     0.052 C 
HETATM    2  C   UNK N   1      35.090  10.076  18.090  0.00  0.00     0.172 C 
HETATM    3  C   UNK N   1      35.532  11.471  17.843  0.00  0.00     0.061 C 
HETATM    4  C   UNK N   1      35.885  11.810  16.585  0.00  0.00    -0.027 C 
HETATM    5  C   UNK N   1      36.042  10.711  15.543  0.00  0.00     0.039 C 
HETATM    6  C   UNK N   1      34.892   9.731  15.688  0.00  0.00    -0.006 C 
HETATM    7  C   UNK N   1      36.063  13.247  16.165  0.00  0.00     0.201 C 
HETATM    8  C   UNK N   1      35.150  13.541  14.963  0.00  0.00     0.050 C 
HETATM    9  C   UNK N   1      35.274  12.524  13.801  0.00  0.00     0.037 C 
HETATM   10  C   UNK N   1      36.236  11.329  14.130  0.00  0.00     0.147 C 
HETATM   11  C   UNK N   1      35.864  13.205  12.519  0.00  0.00     0.005 C 
HETATM   12  C   UNK N   1      36.219  12.200  11.378  0.00  0.00     0.003 C 
HETATM   13  C   UNK N   1      35.689  10.791  11.650  0.00  0.00     0.048 C 
HETATM   14  C   UNK N   1      36.084  10.246  13.028  0.00  0.00     0.160 C 
HETATM   15  C   UNK N   1      35.126  14.353  11.831  0.00  0.00     0.013 C 
HETATM   16  C   UNK N   1      35.690  14.333  10.393  0.00  0.00     0.027 C 
HETATM   17  C   UNK N   1      35.616  12.822  10.079  0.00  0.00     0.152 C 
HETATM   18  O   UNK N   1      35.005   9.635  19.225  0.00  0.00    -0.289 OA
HETATM   19  C   UNK N   1      37.303   9.906  15.894  0.00  0.00     0.028 C 
HETATM   20  F   UNK N   1      37.532  11.843  14.102  0.00  0.00    -0.238 F 
HETATM   21  C   UNK N   1      37.754  12.101  11.277  0.00  0.00     0.019 C 
HETATM   22  C   UNK N   1      37.094  14.938  10.348  0.00  0.00     0.014 C 
HETATM   23  F   UNK N   1      35.771  14.124  17.197  0.00  0.00    -0.245 F 
ENDROOT
BRANCH  17  24
HETATM   24  O   UNK N   1      34.249  12.563   9.948  0.00  0.00    -0.300 OA
BRANCH  24  25
HETATM   25  C   UNK N   1      33.529  12.828   8.809  0.00  0.00     0.259 C 
HETATM   26  O   UNK N   1      33.043  11.900   8.180  0.00  0.00    -0.265 OA
BRANCH  25  27
HETATM   27  C   UNK N   1      33.339  14.233   8.291  0.00  0.00     0.106 C 
HETATM   28  C   UNK N   1      32.312  14.998   9.104  0.00  0.00     0.015 C 
ENDBRANCH  25  27
ENDBRANCH  24  25
ENDBRANCH  17  24
BRANCH  17  29
HETATM   29  C   UNK N   1      36.322  12.273   8.831  0.00  0.00     0.224 C 
HETATM   30  O   UNK N   1      36.367  11.068   8.639  0.00  0.00    -0.282 OA
BRANCH  29  31
HETATM   31  S   UNK N   1      37.034  13.373   7.567  0.00  0.00    -0.058 SA
BRANCH  31  32
HETATM   32  C   UNK N   1      38.749  12.750   7.551  0.00  0.00     0.304 C 
HETATM   33  F   UNK N   1      39.437  13.229   8.656  0.00  0.00    -0.244 F 
ENDBRANCH  31  32
ENDBRANCH  29  31
ENDBRANCH  17  29
BRANCH  14  34
HETATM   34  O   UNK N   1      37.210   9.425  12.946  0.00  0.00    -0.392 OA
HETATM   35  H   UNK N   1      38.169   9.448  12.807  0.00  0.00     0.210 HD
ENDBRANCH  14  34
TORSDOF 7
ENDMDL
MODEL 6
REMARK VINA RESULT:      -6.6     19.945     22.265
REMARK  7 active torsions:
REMARK  status: ('A' for Active; 'I' for Inactive)
REMARK    1  A    between atoms: C_14  and  O_21 
REMARK    2  A    between atoms: C_17  and  O_23 
REMARK    3  A    between atoms: C_17  and  C_26 
REMARK    4  A    between atoms: C_31  and  O_23 
REMARK    5  A    between atoms: C_26  and  S_28 
REMARK    6  A    between atoms: S_28  and  C_29 
REMARK    7  A    between atoms: C_31  and  C_32 
ROOT
HETATM    1  C   UNK N   1      27.123  28.817  -5.055  0.00  0.00     0.052 C 
HETATM    2  C   UNK N   1      26.542  28.559  -3.711  0.00  0.00     0.172 C 
HETATM    3  C   UNK N   1      26.445  27.145  -3.273  0.00  0.00     0.061 C 
HETATM    4  C   UNK N   1      26.420  26.187  -4.224  0.00  0.00    -0.027 C 
HETATM    5  C   UNK N   1      26.253  26.600  -5.679  0.00  0.00     0.039 C 
HETATM    6  C   UNK N   1      27.133  27.807  -5.950  0.00  0.00    -0.006 C 
HETATM    7  C   UNK N   1      26.618  24.729  -3.894  0.00  0.00     0.201 C 
HETATM    8  C   UNK N   1      27.788  24.176  -4.725  0.00  0.00     0.050 C 
HETATM    9  C   UNK N   1      27.694  24.474  -6.243  0.00  0.00     0.037 C 
HETATM   10  C   UNK N   1      26.467  25.378  -6.616  0.00  0.00     0.147 C 
HETATM   11  C   UNK N   1      27.514  23.151  -7.064  0.00  0.00     0.005 C 
HETATM   12  C   UNK N   1      27.196  23.386  -8.574  0.00  0.00     0.003 C 
HETATM   13  C   UNK N   1      27.370  24.848  -8.991  0.00  0.00     0.048 C 
HETATM   14  C   UNK N   1      26.612  25.833  -8.093  0.00  0.00     0.160 C 
HETATM   15  C   UNK N   1      28.587  22.062  -7.041  0.00  0.00     0.013 C 
HETATM   16  C   UNK N   1      28.323  21.270  -8.340  0.00  0.00     0.027 C 
HETATM   17  C   UNK N   1      28.153  22.427  -9.350  0.00  0.00     0.152 C 
HETATM   18  O   UNK N   1      26.312  29.475  -2.938  0.00  0.00    -0.289 OA
HETATM   19  C   UNK N   1      24.813  27.102  -5.865  0.00  0.00     0.028 C 
HETATM   20  F   UNK N   1      25.331  24.580  -6.485  0.00  0.00    -0.238 F 
HETATM   21  C   UNK N   1      25.722  23.010  -8.825  0.00  0.00     0.019 C 
HETATM   22  C   UNK N   1      27.105  20.359  -8.187  0.00  0.00     0.014 C 
HETATM   23  F   UNK N   1      26.871  24.537  -2.546  0.00  0.00    -0.245 F 
ENDROOT
BRANCH  17  24
HETATM   24  O   UNK N   1      29.440  22.955  -9.489  0.00  0.00    -0.300 OA
BRANCH  24  25
HETATM   25  C   UNK N   1      30.546  22.199  -9.793  0.00  0.00     0.259 C 
HETATM   26  O   UNK N   1      30.549  21.526 -10.812  0.00  0.00    -0.265 OA
BRANCH  25  27
HETATM   27  C   UNK N   1      31.755  22.153  -8.890  0.00  0.00     0.106 C 
HETATM   28  C   UNK N   1      31.867  23.401  -8.037  0.00  0.00     0.015 C 
ENDBRANCH  25  27
ENDBRANCH  24  25
ENDBRANCH  17  24
BRANCH  17  29
HETATM   29  C   UNK N   1      27.611  22.131 -10.755  0.00  0.00     0.224 C 
HETATM   30  O   UNK N   1      27.060  21.065 -10.982  0.00  0.00    -0.282 OA
BRANCH  29  31
HETATM   31  S   UNK N   1      27.687  23.362 -12.094  0.00  0.00    -0.058 SA
BRANCH  31  32
HETATM   32  C   UNK N   1      25.904  23.550 -12.438  0.00  0.00     0.304 C 
HETATM   33  F   UNK N   1      25.396  24.628 -11.729  0.00  0.00    -0.244 F 
ENDBRANCH  31  32
ENDBRANCH  29  31
ENDBRANCH  17  29
BRANCH  14  34
HETATM   34  O   UNK N   1      25.383  26.187  -8.652  0.00  0.00    -0.392 OA
HETATM   35  H   UNK N   1      24.963  26.841  -9.231  0.00  0.00     0.210 HD
ENDBRANCH  14  34
TORSDOF 7
ENDMDL
MODEL 7
REMARK VINA RESULT:      -6.5     18.484     21.592
REMARK  7 active torsions:
REMARK  status: ('A' for Active; 'I' for Inactive)
REMARK    1  A    between atoms: C_14  and  O_21 
REMARK    2  A    between atoms: C_17  and  O_23 
REMARK    3  A    between atoms: C_17  and  C_26 
REMARK    4  A    between atoms: C_31  and  O_23 
REMARK    5  A    between atoms: C_26  and  S_28 
REMARK    6  A    between atoms: S_28  and  C_29 
REMARK    7  A    between atoms: C_31  and  C_32 
ROOT
HETATM    1  C   UNK N   1      28.299  28.385  -3.541  0.00  0.00     0.052 C 
HETATM    2  C   UNK N   1      27.081  29.235  -3.614  0.00  0.00     0.172 C 
HETATM    3  C   UNK N   1      25.937  28.716  -4.402  0.00  0.00     0.061 C 
HETATM    4  C   UNK N   1      26.191  27.801  -5.363  0.00  0.00    -0.027 C 
HETATM    5  C   UNK N   1      27.637  27.526  -5.751  0.00  0.00     0.039 C 
HETATM    6  C   UNK N   1      28.476  27.440  -4.489  0.00  0.00    -0.006 C 
HETATM    7  C   UNK N   1      25.093  26.999  -6.013  0.00  0.00     0.201 C 
HETATM    8  C   UNK N   1      25.394  25.500  -5.850  0.00  0.00     0.050 C 
HETATM    9  C   UNK N   1      26.823  25.083  -6.283  0.00  0.00     0.037 C 
HETATM   10  C   UNK N   1      27.717  26.301  -6.705  0.00  0.00     0.147 C 
HETATM   11  C   UNK N   1      26.777  24.136  -7.530  0.00  0.00     0.005 C 
HETATM   12  C   UNK N   1      28.179  23.848  -8.154  0.00  0.00     0.003 C 
HETATM   13  C   UNK N   1      29.327  24.347  -7.276  0.00  0.00     0.048 C 
HETATM   14  C   UNK N   1      29.183  25.816  -6.859  0.00  0.00     0.160 C 
HETATM   15  C   UNK N   1      26.080  22.777  -7.458  0.00  0.00     0.013 C 
HETATM   16  C   UNK N   1      26.731  21.977  -8.607  0.00  0.00     0.027 C 
HETATM   17  C   UNK N   1      28.223  22.302  -8.372  0.00  0.00     0.152 C 
HETATM   18  O   UNK N   1      26.967  30.232  -2.920  0.00  0.00    -0.289 OA
HETATM   19  C   UNK N   1      28.166  28.758  -6.503  0.00  0.00     0.028 C 
HETATM   20  F   UNK N   1      27.238  26.736  -7.941  0.00  0.00    -0.238 F 
HETATM   21  C   UNK N   1      28.273  24.594  -9.501  0.00  0.00     0.019 C 
HETATM   22  C   UNK N   1      26.177  22.417  -9.962  0.00  0.00     0.014 C 
HETATM   23  F   UNK N   1      23.853  27.288  -5.467  0.00  0.00    -0.245 F 
ENDROOT
BRANCH  17  24
HETATM   24  O   UNK N   1      28.547  21.608  -7.202  0.00  0.00    -0.300 OA
BRANCH  24  25
HETATM   25  C   UNK N   1      29.168  20.383  -7.191  0.00  0.00     0.259 C 
HETATM   26  O   UNK N   1      28.576  19.408  -7.626  0.00  0.00    -0.265 OA
BRANCH  25  27
HETATM   27  C   UNK N   1      30.558  20.197  -6.630  0.00  0.00     0.106 C 
HETATM   28  C   UNK N   1      30.746  20.958  -5.331  0.00  0.00     0.015 C 
ENDBRANCH  25  27
ENDBRANCH  24  25
ENDBRANCH  17  24
BRANCH  17  29
HETATM   29  C   UNK N   1      29.257  21.930  -9.444  0.00  0.00     0.224 C 
HETATM   30  O   UNK N   1      30.408  22.325  -9.341  0.00  0.00    -0.282 OA
BRANCH  29  31
HETATM   31  S   UNK N   1      28.843  20.838 -10.840  0.00  0.00    -0.058 SA
BRANCH  31  32
HETATM   32  C   UNK N   1      30.213  19.639 -10.707  0.00  0.00     0.304 C 
HETATM   33  F   UNK N   1      29.709  18.350 -10.633  0.00  0.00    -0.244 F 
ENDBRANCH  31  32
ENDBRANCH  29  31
ENDBRANCH  17  29
BRANCH  14  34
HETATM   34  O   UNK N   1      29.925  26.655  -7.693  0.00  0.00    -0.392 OA
HETATM   35  H   UNK N   1      30.696  27.242  -7.702  0.00  0.00     0.210 HD
ENDBRANCH  14  34
TORSDOF 7
ENDMDL
MODEL 8
REMARK VINA RESULT:      -6.5     10.972     15.053
REMARK  7 active torsions:
REMARK  status: ('A' for Active; 'I' for Inactive)
REMARK    1  A    between atoms: C_14  and  O_21 
REMARK    2  A    between atoms: C_17  and  O_23 
REMARK    3  A    between atoms: C_17  and  C_26 
REMARK    4  A    between atoms: C_31  and  O_23 
REMARK    5  A    between atoms: C_26  and  S_28 
REMARK    6  A    between atoms: S_28  and  C_29 
REMARK    7  A    between atoms: C_31  and  C_32 
ROOT
HETATM    1  C   UNK N   1      21.827  12.314   9.856  0.00  0.00     0.052 C 
HETATM    2  C   UNK N   1      23.125  12.438  10.572  0.00  0.00     0.172 C 
HETATM    3  C   UNK N   1      24.251  13.061   9.834  0.00  0.00     0.061 C 
HETATM    4  C   UNK N   1      24.214  13.041   8.485  0.00  0.00    -0.027 C 
HETATM    5  C   UNK N   1      23.162  12.188   7.791  0.00  0.00     0.039 C 
HETATM    6  C   UNK N   1      21.835  12.366   8.507  0.00  0.00    -0.006 C 
HETATM    7  C   UNK N   1      25.137  13.889   7.648  0.00  0.00     0.201 C 
HETATM    8  C   UNK N   1      24.302  14.768   6.702  0.00  0.00     0.050 C 
HETATM    9  C   UNK N   1      23.238  13.995   5.883  0.00  0.00     0.037 C 
HETATM   10  C   UNK N   1      23.154  12.475   6.263  0.00  0.00     0.147 C 
HETATM   11  C   UNK N   1      23.571  14.033   4.352  0.00  0.00     0.005 C 
HETATM   12  C   UNK N   1      22.667  13.099   3.487  0.00  0.00     0.003 C 
HETATM   13  C   UNK N   1      21.486  12.529   4.275  0.00  0.00     0.048 C 
HETATM   14  C   UNK N   1      21.897  11.860   5.592  0.00  0.00     0.160 C 
HETATM   15  C   UNK N   1      23.624  15.359   3.594  0.00  0.00     0.013 C 
HETATM   16  C   UNK N   1      23.404  14.942   2.123  0.00  0.00     0.027 C 
HETATM   17  C   UNK N   1      22.210  13.973   2.277  0.00  0.00     0.152 C 
HETATM   18  O   UNK N   1      23.212  12.191  11.764  0.00  0.00    -0.289 OA
HETATM   19  C   UNK N   1      23.538  10.712   8.002  0.00  0.00     0.028 C 
HETATM   20  F   UNK N   1      24.300  11.872   5.746  0.00  0.00    -0.238 F 
HETATM   21  C   UNK N   1      23.519  11.905   3.010  0.00  0.00     0.019 C 
HETATM   22  C   UNK N   1      24.672  14.322   1.535  0.00  0.00     0.014 C 
HETATM   23  F   UNK N   1      25.951  14.691   8.432  0.00  0.00    -0.245 F 
ENDROOT
BRANCH  17  24
HETATM   24  O   UNK N   1      21.131  14.802   2.595  0.00  0.00    -0.300 OA
BRANCH  24  25
HETATM   25  C   UNK N   1      20.840  15.965   1.925  0.00  0.00     0.259 C 
HETATM   26  O   UNK N   1      20.787  15.955   0.705  0.00  0.00    -0.265 OA
BRANCH  25  27
HETATM   27  C   UNK N   1      20.607  17.269   2.650  0.00  0.00     0.106 C 
HETATM   28  C   UNK N   1      20.319  17.049   4.122  0.00  0.00     0.015 C 
ENDBRANCH  25  27
ENDBRANCH  24  25
ENDBRANCH  17  24
BRANCH  17  29
HETATM   29  C   UNK N   1      21.794  13.091   1.091  0.00  0.00     0.224 C 
HETATM   30  O   UNK N   1      22.456  13.102   0.064  0.00  0.00    -0.282 OA
BRANCH  29  31
HETATM   31  S   UNK N   1      20.377  11.953   1.190  0.00  0.00    -0.058 SA
BRANCH  31  32
HETATM   32  C   UNK N   1      19.090  13.000   0.429  0.00  0.00     0.304 C 
HETATM   33  F   UNK N   1      18.438  13.734   1.408  0.00  0.00    -0.244 F 
ENDBRANCH  31  32
ENDBRANCH  29  31
ENDBRANCH  17  29
BRANCH  14  34
HETATM   34  O   UNK N   1      22.010  10.476   5.444  0.00  0.00    -0.392 OA
HETATM   35  H   UNK N   1      21.538   9.698   5.108  0.00  0.00     0.210 HD
ENDBRANCH  14  34
TORSDOF 7
ENDMDL
MODEL 9
REMARK VINA RESULT:      -6.4     15.659     19.779
REMARK  7 active torsions:
REMARK  status: ('A' for Active; 'I' for Inactive)
REMARK    1  A    between atoms: C_14  and  O_21 
REMARK    2  A    between atoms: C_17  and  O_23 
REMARK    3  A    between atoms: C_17  and  C_26 
REMARK    4  A    between atoms: C_31  and  O_23 
REMARK    5  A    between atoms: C_26  and  S_28 
REMARK    6  A    between atoms: S_28  and  C_29 
REMARK    7  A    between atoms: C_31  and  C_32 
ROOT
HETATM    1  C   UNK N   1      33.972  19.001  -6.204  0.00  0.00     0.052 C 
HETATM    2  C   UNK N   1      34.856  19.080  -5.010  0.00  0.00     0.172 C 
HETATM    3  C   UNK N   1      34.405  19.935  -3.885  0.00  0.00     0.061 C 
HETATM    4  C   UNK N   1      33.530  20.928  -4.155  0.00  0.00    -0.027 C 
HETATM    5  C   UNK N   1      33.235  21.273  -5.608  0.00  0.00     0.039 C 
HETATM    6  C   UNK N   1      33.069  19.986  -6.394  0.00  0.00    -0.006 C 
HETATM    7  C   UNK N   1      32.788  21.657  -3.064  0.00  0.00     0.201 C 
HETATM    8  C   UNK N   1      31.276  21.554  -3.322  0.00  0.00     0.050 C 
HETATM    9  C   UNK N   1      30.843  21.952  -4.756  0.00  0.00     0.037 C 
HETATM   10  C   UNK N   1      32.055  22.281  -5.696  0.00  0.00     0.147 C 
HETATM   11  C   UNK N   1      29.956  23.244  -4.736  0.00  0.00     0.005 C 
HETATM   12  C   UNK N   1      29.661  23.827  -6.154  0.00  0.00     0.003 C 
HETATM   13  C   UNK N   1      30.088  22.883  -7.279  0.00  0.00     0.048 C 
HETATM   14  C   UNK N   1      31.539  22.403  -7.154  0.00  0.00     0.160 C 
HETATM   15  C   UNK N   1      28.614  23.263  -4.004  0.00  0.00     0.013 C 
HETATM   16  C   UNK N   1      27.851  24.423  -4.680  0.00  0.00     0.027 C 
HETATM   17  C   UNK N   1      28.126  24.116  -6.169  0.00  0.00     0.152 C 
HETATM   18  O   UNK N   1      35.823  18.345  -4.893  0.00  0.00    -0.289 OA
HETATM   19  C   UNK N   1      34.487  21.945  -6.196  0.00  0.00     0.028 C 
HETATM   20  F   UNK N   1      32.559  23.512  -5.276  0.00  0.00    -0.238 F 
HETATM   21  C   UNK N   1      30.466  25.132  -6.319  0.00  0.00     0.019 C 
HETATM   22  C   UNK N   1      28.369  25.776  -4.190  0.00  0.00     0.014 C 
HETATM   23  F   UNK N   1      33.083  21.145  -1.811  0.00  0.00    -0.245 F 
ENDROOT
BRANCH  17  24
HETATM   24  O   UNK N   1      27.370  22.970  -6.430  0.00  0.00    -0.300 OA
BRANCH  24  25
HETATM   25  C   UNK N   1      26.033  22.994  -6.741  0.00  0.00     0.259 C 
HETATM   26  O   UNK N   1      25.235  23.424  -5.922  0.00  0.00    -0.265 OA
BRANCH  25  27
HETATM   27  C   UNK N   1      25.509  22.478  -8.060  0.00  0.00     0.106 C 
HETATM   28  C   UNK N   1      25.384  20.967  -8.063  0.00  0.00     0.015 C 
ENDBRANCH  25  27
ENDBRANCH  24  25
ENDBRANCH  17  24
BRANCH  17  29
HETATM   29  C   UNK N   1      27.778  25.165  -7.234  0.00  0.00     0.224 C 
HETATM   30  O   UNK N   1      28.099  24.978  -8.398  0.00  0.00    -0.282 OA
BRANCH  29  31
HETATM   31  S   UNK N   1      26.818  26.659  -6.835  0.00  0.00    -0.058 SA
BRANCH  31  32
HETATM   32  C   UNK N   1      28.068  27.935  -7.214  0.00  0.00     0.304 C 
HETATM   33  F   UNK N   1      27.577  29.190  -6.885  0.00  0.00    -0.244 F 
ENDBRANCH  31  32
ENDBRANCH  29  31
ENDBRANCH  17  29
BRANCH  14  34
HETATM   34  O   UNK N   1      32.397  23.167  -7.948  0.00  0.00    -0.392 OA
HETATM   35  H   UNK N   1      32.739  24.066  -8.063  0.00  0.00     0.210 HD
ENDBRANCH  14  34
TORSDOF 7
ENDMDL
