MODEL 1
REMARK VINA RESULT:      -6.6      0.000      0.000
REMARK  3 active torsions:
REMARK  status: ('A' for Active; 'I' for Inactive)
REMARK    1  A    between atoms: C_7  and  C_8 
REMARK    2  A    between atoms: N_9  and  O_15 
REMARK    3  A    between atoms: C_17  and  N_23 
ROOT
HETATM    1  C   UNK N   1      38.314  13.554   7.464  0.00  0.00     0.026 A 
HETATM    2  C   UNK N   1      37.157  13.914   6.792  0.00  0.00     0.035 A 
HETATM    3  C   UNK N   1      36.019  14.371   8.917  0.00  0.00     0.022 A 
HETATM    4  C   UNK N   1      37.225  13.988   9.601  0.00  0.00     0.046 A 
HETATM    5  C   UNK N   1      36.037  14.317   7.510  0.00  0.00     0.040 A 
HETATM    6  C   UNK N   1      38.346  13.600   8.854  0.00  0.00     0.032 A 
HETATM    7  C   UNK N   1      34.741  14.877   9.582  0.00  0.00     0.080 C 
HETATM    8  N   UNK N   1      34.405  14.505  10.797  0.00  0.00    -0.252 N 
HETATM    9  N   UNK N   1      37.408  14.049  11.008  0.00  0.00    -0.344 N 
ATOM     10  HN  UNK N   1      38.353  14.234  11.343  1.00  0.00     0.167 HD
HETATM   11  C   UNK N   1      35.126  13.490  11.520  0.00  0.00     0.232 C 
HETATM   12  C   UNK N   1      36.497  13.895  11.899  0.00  0.00     0.097 C 
HETATM   13 Cl   UNK N   1      37.110  13.888   5.043  0.00  0.00    -0.084 Cl
ENDROOT
BRANCH   7  14
HETATM   14  C   UNK N   1      33.803  15.779   8.770  0.00  0.00    -0.006 A 
HETATM   15  C   UNK N   1      32.710  15.244   8.060  0.00  0.00     0.014 A 
HETATM   16  C   UNK N   1      31.814  16.069   7.374  0.00  0.00     0.001 A 
HETATM   17  C   UNK N   1      31.989  17.452   7.388  0.00  0.00     0.000 A 
HETATM   18  C   UNK N   1      33.067  18.007   8.074  0.00  0.00     0.001 A 
HETATM   19  C   UNK N   1      33.965  17.180   8.754  0.00  0.00     0.014 A 
ENDBRANCH   7  14
BRANCH   8  20
HETATM   20  O   UNK N   1      33.419  14.933  11.314  0.00  0.00    -0.287 OA
ATOM     21  HO  UNK N   1      33.183  15.849  11.224  1.00  0.00     0.244 HD
ENDBRANCH   8  20
BRANCH  12  22
HETATM   22  N   UNK N   1      36.838  13.924  13.276  0.00  0.00    -0.383 N 
HETATM   23  C   UNK N   1      35.860  13.691  14.308  0.00  0.00     0.147 C 
HETATM   24  H   UNK N   1      37.770  14.107  13.534  0.00  0.00     0.160 HD
ENDBRANCH  12  22
TORSDOF 3
ENDMDL
MODEL 2
REMARK VINA RESULT:      -6.4      3.855      6.320
REMARK  3 active torsions:
REMARK  status: ('A' for Active; 'I' for Inactive)
REMARK    1  A    between atoms: C_7  and  C_8 
REMARK    2  A    between atoms: N_9  and  O_15 
REMARK    3  A    between atoms: C_17  and  N_23 
ROOT
HETATM    1  C   UNK N   1      29.295  17.882   7.409  0.00  0.00     0.026 A 
HETATM    2  C   UNK N   1      29.522  17.474   6.103  0.00  0.00     0.035 A 
HETATM    3  C   UNK N   1      31.836  16.876   6.652  0.00  0.00     0.022 A 
HETATM    4  C   UNK N   1      31.589  17.310   8.001  0.00  0.00     0.046 A 
HETATM    5  C   UNK N   1      30.768  16.979   5.740  0.00  0.00     0.040 A 
HETATM    6  C   UNK N   1      30.318  17.791   8.346  0.00  0.00     0.032 A 
HETATM    7  C   UNK N   1      33.141  16.270   6.138  0.00  0.00     0.080 C 
HETATM    8  N   UNK N   1      34.300  16.580   6.673  0.00  0.00    -0.252 N 
HETATM    9  N   UNK N   1      32.525  17.212   9.064  0.00  0.00    -0.344 N 
ATOM     10  HN  UNK N   1      32.146  17.075  10.001  1.00  0.00     0.167 HD
HETATM   11  C   UNK N   1      34.440  17.612   7.666  0.00  0.00     0.232 C 
HETATM   12  C   UNK N   1      33.802  17.280   8.959  0.00  0.00     0.097 C 
HETATM   13 Cl   UNK N   1      28.236  17.557   4.919  0.00  0.00    -0.084 Cl
ENDROOT
BRANCH   7  14
HETATM   14  C   UNK N   1      33.082  15.340   4.919  0.00  0.00    -0.006 A 
HETATM   15  C   UNK N   1      33.458  15.791   3.638  0.00  0.00     0.014 A 
HETATM   16  C   UNK N   1      33.471  14.929   2.539  0.00  0.00     0.001 A 
HETATM   17  C   UNK N   1      33.113  13.591   2.696  0.00  0.00     0.000 A 
HETATM   18  C   UNK N   1      32.729  13.121   3.951  0.00  0.00     0.001 A 
HETATM   19  C   UNK N   1      32.711  13.986   5.048  0.00  0.00     0.014 A 
ENDBRANCH   7  14
BRANCH   8  20
HETATM   20  O   UNK N   1      35.307  16.075   6.279  0.00  0.00    -0.287 OA
ATOM     21  HO  UNK N   1      36.041  16.610   6.001  1.00  0.00     0.244 HD
ENDBRANCH   8  20
BRANCH  12  22
HETATM   22  N   UNK N   1      34.615  17.226  10.121  0.00  0.00    -0.383 N 
HETATM   23  C   UNK N   1      35.504  16.121  10.377  0.00  0.00     0.147 C 
HETATM   24  H   UNK N   1      34.570  17.963  10.771  0.00  0.00     0.160 HD
ENDBRANCH  12  22
TORSDOF 3
ENDMDL
MODEL 3
REMARK VINA RESULT:      -6.4     15.185     16.865
REMARK  3 active torsions:
REMARK  status: ('A' for Active; 'I' for Inactive)
REMARK    1  A    between atoms: C_7  and  C_8 
REMARK    2  A    between atoms: N_9  and  O_15 
REMARK    3  A    between atoms: C_17  and  N_23 
ROOT
HETATM    1  C   UNK N   1      21.358  16.763   6.881  0.00  0.00     0.026 A 
HETATM    2  C   UNK N   1      20.979  15.590   6.247  0.00  0.00     0.035 A 
HETATM    3  C   UNK N   1      20.697  16.785   4.123  0.00  0.00     0.022 A 
HETATM    4  C   UNK N   1      21.084  17.996   4.796  0.00  0.00     0.046 A 
HETATM    5  C   UNK N   1      20.660  15.607   4.894  0.00  0.00     0.040 A 
HETATM    6  C   UNK N   1      21.416  17.950   6.158  0.00  0.00     0.032 A 
HETATM    7  C   UNK N   1      20.369  16.660   2.637  0.00  0.00     0.080 C 
HETATM    8  N   UNK N   1      19.873  17.668   1.955  0.00  0.00    -0.252 N 
HETATM    9  N   UNK N   1      21.242  19.257   4.162  0.00  0.00    -0.344 N 
ATOM     10  HN  UNK N   1      21.941  19.886   4.555  1.00  0.00     0.167 HD
HETATM   11  C   UNK N   1      19.465  18.897   2.583  0.00  0.00     0.232 C 
HETATM   12  C   UNK N   1      20.590  19.678   3.140  0.00  0.00     0.097 C 
HETATM   13 Cl   UNK N   1      20.928  14.085   7.137  0.00  0.00    -0.084 Cl
ENDROOT
BRANCH   7  14
HETATM   14  C   UNK N   1      20.560  15.296   1.960  0.00  0.00    -0.006 A 
HETATM   15  C   UNK N   1      19.480  14.404   1.799  0.00  0.00     0.014 A 
HETATM   16  C   UNK N   1      19.635  13.191   1.124  0.00  0.00     0.001 A 
HETATM   17  C   UNK N   1      20.874  12.843   0.588  0.00  0.00     0.000 A 
HETATM   18  C   UNK N   1      21.960  13.703   0.741  0.00  0.00     0.001 A 
HETATM   19  C   UNK N   1      21.805  14.913   1.421  0.00  0.00     0.014 A 
ENDBRANCH   7  14
BRANCH   8  20
HETATM   20  O   UNK N   1      19.651  17.562   0.787  0.00  0.00    -0.287 OA
ATOM     21  HO  UNK N   1      20.334  17.727   0.148  1.00  0.00     0.244 HD
ENDBRANCH   8  20
BRANCH  12  22
HETATM   22  N   UNK N   1      20.814  20.990   2.647  0.00  0.00    -0.383 N 
HETATM   23  C   UNK N   1      20.656  21.317   1.253  0.00  0.00     0.147 C 
HETATM   24  H   UNK N   1      21.084  21.698   3.276  0.00  0.00     0.160 HD
ENDBRANCH  12  22
TORSDOF 3
ENDMDL
MODEL 4
REMARK VINA RESULT:      -6.3      6.844      9.001
REMARK  3 active torsions:
REMARK  status: ('A' for Active; 'I' for Inactive)
REMARK    1  A    between atoms: C_7  and  C_8 
REMARK    2  A    between atoms: N_9  and  O_15 
REMARK    3  A    between atoms: C_17  and  N_23 
ROOT
HETATM    1  C   UNK N   1      30.095  17.572   9.560  0.00  0.00     0.026 A 
HETATM    2  C   UNK N   1      30.773  16.680   8.744  0.00  0.00     0.035 A 
HETATM    3  C   UNK N   1      29.629  17.562   6.763  0.00  0.00     0.022 A 
HETATM    4  C   UNK N   1      28.926  18.477   7.622  0.00  0.00     0.046 A 
HETATM    5  C   UNK N   1      30.543  16.683   7.374  0.00  0.00     0.040 A 
HETATM    6  C   UNK N   1      29.188  18.464   9.000  0.00  0.00     0.032 A 
HETATM    7  C   UNK N   1      29.503  17.497   5.241  0.00  0.00     0.080 C 
HETATM    8  N   UNK N   1      28.395  17.845   4.628  0.00  0.00    -0.252 N 
HETATM    9  N   UNK N   1      28.024  19.477   7.171  0.00  0.00    -0.344 N 
ATOM     10  HN  UNK N   1      27.968  20.331   7.726  1.00  0.00     0.167 HD
HETATM   11  C   UNK N   1      27.186  18.163   5.341  0.00  0.00     0.232 C 
HETATM   12  C   UNK N   1      27.275  19.409   6.131  0.00  0.00     0.097 C 
HETATM   13 Cl   UNK N   1      31.938  15.568   9.431  0.00  0.00    -0.084 Cl
ENDROOT
BRANCH   7  14
HETATM   14  C   UNK N   1      30.683  16.938   4.436  0.00  0.00    -0.006 A 
HETATM   15  C   UNK N   1      31.831  17.716   4.187  0.00  0.00     0.014 A 
HETATM   16  C   UNK N   1      32.935  17.188   3.513  0.00  0.00     0.001 A 
HETATM   17  C   UNK N   1      32.919  15.865   3.076  0.00  0.00     0.000 A 
HETATM   18  C   UNK N   1      31.792  15.075   3.300  0.00  0.00     0.001 A 
HETATM   19  C   UNK N   1      30.687  15.607   3.970  0.00  0.00     0.014 A 
ENDBRANCH   7  14
BRANCH   8  20
HETATM   20  O   UNK N   1      28.324  17.816   3.437  0.00  0.00    -0.287 OA
ATOM     21  HO  UNK N   1      28.686  17.087   2.948  1.00  0.00     0.244 HD
ENDBRANCH   8  20
BRANCH  12  22
HETATM   22  N   UNK N   1      26.375  20.466   5.835  0.00  0.00    -0.383 N 
HETATM   23  C   UNK N   1      26.315  21.662   6.636  0.00  0.00     0.147 C 
HETATM   24  H   UNK N   1      25.776  20.380   5.059  0.00  0.00     0.160 HD
ENDBRANCH  12  22
TORSDOF 3
ENDMDL
MODEL 5
REMARK VINA RESULT:      -6.1      5.971      8.579
REMARK  3 active torsions:
REMARK  status: ('A' for Active; 'I' for Inactive)
REMARK    1  A    between atoms: C_7  and  C_8 
REMARK    2  A    between atoms: N_9  and  O_15 
REMARK    3  A    between atoms: C_17  and  N_23 
ROOT
HETATM    1  C   UNK N   1      30.314  14.914   3.382  0.00  0.00     0.026 A 
HETATM    2  C   UNK N   1      29.054  15.311   2.964  0.00  0.00     0.035 A 
HETATM    3  C   UNK N   1      28.873  16.863   4.855  0.00  0.00     0.022 A 
HETATM    4  C   UNK N   1      30.179  16.436   5.282  0.00  0.00     0.046 A 
HETATM    5  C   UNK N   1      28.354  16.269   3.688  0.00  0.00     0.040 A 
HETATM    6  C   UNK N   1      30.870  15.479   4.525  0.00  0.00     0.032 A 
HETATM    7  C   UNK N   1      28.024  17.938   5.531  0.00  0.00     0.080 C 
HETATM    8  N   UNK N   1      28.118  18.178   6.820  0.00  0.00    -0.252 N 
HETATM    9  N   UNK N   1      30.882  16.977   6.391  0.00  0.00    -0.344 N 
ATOM     10  HN  UNK N   1      31.900  16.989   6.329  1.00  0.00     0.167 HD
HETATM   11  C   UNK N   1      28.904  17.356   7.702  0.00  0.00     0.232 C 
HETATM   12  C   UNK N   1      30.359  17.453   7.461  0.00  0.00     0.097 C 
HETATM   13 Cl   UNK N   1      28.352  14.629   1.513  0.00  0.00    -0.084 Cl
ENDROOT
BRANCH   7  14
HETATM   14  C   UNK N   1      26.990  18.691   4.684  0.00  0.00    -0.006 A 
HETATM   15  C   UNK N   1      25.635  18.304   4.673  0.00  0.00     0.014 A 
HETATM   16  C   UNK N   1      24.679  19.028   3.956  0.00  0.00     0.001 A 
HETATM   17  C   UNK N   1      25.055  20.161   3.237  0.00  0.00     0.000 A 
HETATM   18  C   UNK N   1      26.391  20.560   3.223  0.00  0.00     0.001 A 
HETATM   19  C   UNK N   1      27.346  19.832   3.936  0.00  0.00     0.014 A 
ENDBRANCH   7  14
BRANCH   8  20
HETATM   20  O   UNK N   1      27.469  19.042   7.327  0.00  0.00    -0.287 OA
ATOM     21  HO  UNK N   1      26.906  19.597   6.800  1.00  0.00     0.244 HD
ENDBRANCH   8  20
BRANCH  12  22
HETATM   22  N   UNK N   1      31.192  17.907   8.517  0.00  0.00    -0.383 N 
HETATM   23  C   UNK N   1      32.629  17.913   8.404  0.00  0.00     0.147 C 
HETATM   24  H   UNK N   1      30.777  18.228   9.350  0.00  0.00     0.160 HD
ENDBRANCH  12  22
TORSDOF 3
ENDMDL
MODEL 6
REMARK VINA RESULT:      -6.1      5.177      9.305
REMARK  3 active torsions:
REMARK  status: ('A' for Active; 'I' for Inactive)
REMARK    1  A    between atoms: C_7  and  C_8 
REMARK    2  A    between atoms: N_9  and  O_15 
REMARK    3  A    between atoms: C_17  and  N_23 
ROOT
HETATM    1  C   UNK N   1      35.275  13.339  18.540  0.00  0.00     0.026 A 
HETATM    2  C   UNK N   1      35.222  11.954  18.513  0.00  0.00     0.035 A 
HETATM    3  C   UNK N   1      35.820  11.940  16.134  0.00  0.00     0.022 A 
HETATM    4  C   UNK N   1      35.865  13.376  16.175  0.00  0.00     0.046 A 
HETATM    5  C   UNK N   1      35.493  11.275  17.332  0.00  0.00     0.040 A 
HETATM    6  C   UNK N   1      35.601  14.038  17.383  0.00  0.00     0.032 A 
HETATM    7  C   UNK N   1      36.144  11.074  14.918  0.00  0.00     0.080 C 
HETATM    8  N   UNK N   1      35.954  11.511  13.693  0.00  0.00    -0.252 N 
HETATM    9  N   UNK N   1      36.244  14.203  15.084  0.00  0.00    -0.344 N 
ATOM     10  HN  UNK N   1      36.702  15.086  15.312  1.00  0.00     0.167 HD
HETATM   11  C   UNK N   1      35.294  12.759  13.414  0.00  0.00     0.232 C 
HETATM   12  C   UNK N   1      36.067  13.945  13.840  0.00  0.00     0.097 C 
HETATM   13 Cl   UNK N   1      34.838  11.059  19.967  0.00  0.00    -0.084 Cl
ENDROOT
BRANCH   7  14
HETATM   14  C   UNK N   1      36.630   9.638  15.153  0.00  0.00    -0.006 A 
HETATM   15  C   UNK N   1      37.987   9.359  15.412  0.00  0.00     0.014 A 
HETATM   16  C   UNK N   1      38.421   8.062  15.694  0.00  0.00     0.001 A 
HETATM   17  C   UNK N   1      37.506   7.011  15.730  0.00  0.00     0.000 A 
HETATM   18  C   UNK N   1      36.159   7.257  15.469  0.00  0.00     0.001 A 
HETATM   19  C   UNK N   1      35.728   8.554  15.181  0.00  0.00     0.014 A 
ENDBRANCH   7  14
BRANCH   8  20
HETATM   20  O   UNK N   1      36.240  10.833  12.754  0.00  0.00    -0.287 OA
ATOM     21  HO  UNK N   1      35.872  11.013  11.897  1.00  0.00     0.244 HD
ENDBRANCH   8  20
BRANCH  12  22
HETATM   22  N   UNK N   1      36.445  14.896  12.857  0.00  0.00    -0.383 N 
HETATM   23  C   UNK N   1      35.564  15.268  11.778  0.00  0.00     0.147 C 
HETATM   24  H   UNK N   1      37.334  15.315  12.913  0.00  0.00     0.160 HD
ENDBRANCH  12  22
TORSDOF 3
ENDMDL
MODEL 7
REMARK VINA RESULT:      -5.9      4.857      8.516
REMARK  3 active torsions:
REMARK  status: ('A' for Active; 'I' for Inactive)
REMARK    1  A    between atoms: C_7  and  C_8 
REMARK    2  A    between atoms: N_9  and  O_15 
REMARK    3  A    between atoms: C_17  and  N_23 
ROOT
HETATM    1  C   UNK N   1      38.523   9.152  13.452  0.00  0.00     0.026 A 
HETATM    2  C   UNK N   1      38.451   9.144  14.837  0.00  0.00     0.035 A 
HETATM    3  C   UNK N   1      36.591  10.742  14.789  0.00  0.00     0.022 A 
HETATM    4  C   UNK N   1      36.682  10.747  13.353  0.00  0.00     0.046 A 
HETATM    5  C   UNK N   1      37.500   9.922  15.485  0.00  0.00     0.040 A 
HETATM    6  C   UNK N   1      37.640   9.941  12.722  0.00  0.00     0.032 A 
HETATM    7  C   UNK N   1      35.564  11.511  15.618  0.00  0.00     0.080 C 
HETATM    8  N   UNK N   1      35.044  12.640  15.192  0.00  0.00    -0.252 N 
HETATM    9  N   UNK N   1      35.804  11.457  12.492  0.00  0.00    -0.344 N 
ATOM     10  HN  UNK N   1      35.626  11.047  11.575  1.00  0.00     0.167 HD
HETATM   11  C   UNK N   1      35.510  13.303  14.003  0.00  0.00     0.232 C 
HETATM   12  C   UNK N   1      35.212  12.564  12.757  0.00  0.00     0.097 C 
HETATM   13 Cl   UNK N   1      39.537   8.136  15.768  0.00  0.00    -0.084 Cl
ENDROOT
BRANCH   7  14
HETATM   14  C   UNK N   1      35.201  10.975  17.009  0.00  0.00    -0.006 A 
HETATM   15  C   UNK N   1      34.522   9.750  17.165  0.00  0.00     0.014 A 
HETATM   16  C   UNK N   1      34.251   9.226  18.432  0.00  0.00     0.001 A 
HETATM   17  C   UNK N   1      34.657   9.914  19.574  0.00  0.00     0.000 A 
HETATM   18  C   UNK N   1      35.323  11.132  19.448  0.00  0.00     0.001 A 
HETATM   19  C   UNK N   1      35.588  11.657  18.181  0.00  0.00     0.014 A 
ENDBRANCH   7  14
BRANCH   8  20
HETATM   20  O   UNK N   1      34.221  13.212  15.838  0.00  0.00    -0.287 OA
ATOM     21  HO  UNK N   1      34.283  14.149  15.982  1.00  0.00     0.244 HD
ENDBRANCH   8  20
BRANCH  12  22
HETATM   22  N   UNK N   1      34.405  13.191  11.773  0.00  0.00    -0.383 N 
HETATM   23  C   UNK N   1      34.643  14.547  11.345  0.00  0.00     0.147 C 
HETATM   24  H   UNK N   1      33.663  12.687  11.370  0.00  0.00     0.160 HD
ENDBRANCH  12  22
TORSDOF 3
ENDMDL
MODEL 8
REMARK VINA RESULT:      -5.8      3.672      6.944
REMARK  3 active torsions:
REMARK  status: ('A' for Active; 'I' for Inactive)
REMARK    1  A    between atoms: C_7  and  C_8 
REMARK    2  A    between atoms: N_9  and  O_15 
REMARK    3  A    between atoms: C_17  and  N_23 
ROOT
HETATM    1  C   UNK N   1      37.863   9.126  12.783  0.00  0.00     0.026 A 
HETATM    2  C   UNK N   1      38.066   9.761  13.998  0.00  0.00     0.035 A 
HETATM    3  C   UNK N   1      37.026  11.811  13.143  0.00  0.00     0.022 A 
HETATM    4  C   UNK N   1      36.829  11.142  11.886  0.00  0.00     0.046 A 
HETATM    5  C   UNK N   1      37.650  11.076  14.169  0.00  0.00     0.040 A 
HETATM    6  C   UNK N   1      37.244   9.811  11.743  0.00  0.00     0.032 A 
HETATM    7  C   UNK N   1      36.573  13.232  13.475  0.00  0.00     0.080 C 
HETATM    8  N   UNK N   1      36.474  14.156  12.546  0.00  0.00    -0.252 N 
HETATM    9  N   UNK N   1      36.156  11.706  10.769  0.00  0.00    -0.344 N 
ATOM     10  HN  UNK N   1      35.655  11.060  10.159  1.00  0.00     0.167 HD
HETATM   11  C   UNK N   1      36.923  13.943  11.196  0.00  0.00     0.232 C 
HETATM   12  C   UNK N   1      36.118  12.949  10.454  0.00  0.00     0.097 C 
HETATM   13 Cl   UNK N   1      38.820   8.904  15.325  0.00  0.00    -0.084 Cl
ENDROOT
BRANCH   7  14
HETATM   14  C   UNK N   1      36.307  13.588  14.944  0.00  0.00    -0.006 A 
HETATM   15  C   UNK N   1      37.087  14.551  15.615  0.00  0.00     0.014 A 
HETATM   16  C   UNK N   1      36.804  14.927  16.930  0.00  0.00     0.001 A 
HETATM   17  C   UNK N   1      35.729  14.352  17.605  0.00  0.00     0.000 A 
HETATM   18  C   UNK N   1      34.946  13.390  16.968  0.00  0.00     0.001 A 
HETATM   19  C   UNK N   1      35.234  13.011  15.655  0.00  0.00     0.014 A 
ENDBRANCH   7  14
BRANCH   8  20
HETATM   20  O   UNK N   1      36.090  15.253  12.818  0.00  0.00    -0.287 OA
ATOM     21  HO  UNK N   1      35.160  15.447  12.845  1.00  0.00     0.244 HD
ENDBRANCH   8  20
BRANCH  12  22
HETATM   22  N   UNK N   1      35.453  13.362   9.271  0.00  0.00    -0.383 N 
HETATM   23  C   UNK N   1      34.869  14.674   9.144  0.00  0.00     0.147 C 
HETATM   24  H   UNK N   1      35.389  12.736   8.514  0.00  0.00     0.160 HD
ENDBRANCH  12  22
TORSDOF 3
ENDMDL
MODEL 9
REMARK VINA RESULT:      -5.6      4.417      7.544
REMARK  3 active torsions:
REMARK  status: ('A' for Active; 'I' for Inactive)
REMARK    1  A    between atoms: C_7  and  C_8 
REMARK    2  A    between atoms: N_9  and  O_15 
REMARK    3  A    between atoms: C_17  and  N_23 
ROOT
HETATM    1  C   UNK N   1      35.659  12.871  16.904  0.00  0.00     0.026 A 
HETATM    2  C   UNK N   1      35.296  11.585  16.536  0.00  0.00     0.035 A 
HETATM    3  C   UNK N   1      35.589  12.140  14.165  0.00  0.00     0.022 A 
HETATM    4  C   UNK N   1      35.956  13.473  14.561  0.00  0.00     0.046 A 
HETATM    5  C   UNK N   1      35.267  11.232  15.192  0.00  0.00     0.040 A 
HETATM    6  C   UNK N   1      35.992  13.800  15.924  0.00  0.00     0.032 A 
HETATM    7  C   UNK N   1      35.565  11.614  12.731  0.00  0.00     0.080 C 
HETATM    8  N   UNK N   1      35.332  12.409  11.711  0.00  0.00    -0.252 N 
HETATM    9  N   UNK N   1      36.377  14.494  13.668  0.00  0.00    -0.344 N 
ATOM     10  HN  UNK N   1      37.044  15.176  14.028  1.00  0.00     0.167 HD
HETATM   11  C   UNK N   1      34.938  13.783  11.878  0.00  0.00     0.232 C 
HETATM   12  C   UNK N   1      36.000  14.638  12.450  0.00  0.00     0.097 C 
HETATM   13 Cl   UNK N   1      34.899  10.397  17.758  0.00  0.00    -0.084 Cl
ENDROOT
BRANCH   7  14
HETATM   14  C   UNK N   1      35.743  10.107  12.504  0.00  0.00    -0.006 A 
HETATM   15  C   UNK N   1      34.633   9.263  12.304  0.00  0.00     0.014 A 
HETATM   16  C   UNK N   1      34.795   7.902  12.030  0.00  0.00     0.001 A 
HETATM   17  C   UNK N   1      36.074   7.355  11.944  0.00  0.00     0.000 A 
HETATM   18  C   UNK N   1      37.189   8.165  12.147  0.00  0.00     0.001 A 
HETATM   19  C   UNK N   1      37.025   9.524  12.427  0.00  0.00     0.014 A 
ENDBRANCH   7  14
BRANCH   8  20
HETATM   20  O   UNK N   1      35.347  11.987  10.595  0.00  0.00    -0.287 OA
ATOM     21  HO  UNK N   1      34.554  11.974  10.072  1.00  0.00     0.244 HD
ENDBRANCH   8  20
BRANCH  12  22
HETATM   22  N   UNK N   1      36.461  15.745  11.690  0.00  0.00    -0.383 N 
HETATM   23  C   UNK N   1      35.615  16.419  10.737  0.00  0.00     0.147 C 
HETATM   24  H   UNK N   1      37.383  16.062  11.818  0.00  0.00     0.160 HD
ENDBRANCH  12  22
TORSDOF 3
ENDMDL
