REMARK  2 active torsions:
REMARK  status: ('A' for Active; 'I' for Inactive)
REMARK    1  A    between atoms: C_4  and  C_2 
REMARK    2  A    between atoms: C_10  and  O_11 
ROOT
HETATM    1  C   UNK N   1       0.896   1.413   0.000  0.00  0.00     0.018 A 
HETATM    2  C   UNK N   1       2.241   0.662  -0.000  0.00  0.00     0.008 A 
HETATM    3  C   UNK N   1       2.212  -0.856   0.000  0.00  0.00     0.005 A 
HETATM    4  C   UNK N   1       0.870  -1.569  -0.000  0.00  0.00    -0.016 A 
HETATM    5  C   UNK N   1       0.911  -3.085   0.000  0.00  0.00     0.010 C 
HETATM    6  C   UNK N   1      -0.505  -0.873   0.000  0.00  0.00     0.036 A 
HETATM    7  C   UNK N   1      -0.398   0.633  -0.000  0.00  0.00     0.122 A 
ENDROOT
BRANCH   1   8
HETATM    8  C   UNK N   1       1.029   2.934  -0.000  0.00  0.00    -0.016 C 
HETATM    9  C   UNK N   1      -0.188   3.852   0.000  0.00  0.00     0.010 C 
HETATM   10  C   UNK N   1       2.411   3.565   0.000  0.00  0.00     0.010 C 
ENDBRANCH   1   8
BRANCH   7  11
HETATM   11  O   UNK N   1      -1.643   1.354   0.000  0.00  0.00    -0.395 OA
HETATM   12  H   UNK N   1      -1.642   2.324   0.000  0.00  0.00     0.210 HD
ENDBRANCH   7  11
TORSDOF 2
