MODEL 1
REMARK VINA RESULT:      -4.7      0.000      0.000
REMARK  2 active torsions:
REMARK  status: ('A' for Active; 'I' for Inactive)
REMARK    1  A    between atoms: C_4  and  C_2 
REMARK    2  A    between atoms: C_10  and  O_11 
ROOT
HETATM    1  C   UNK N   1      35.640  11.302  19.290  0.00  0.00     0.018 A 
HETATM    2  C   UNK N   1      36.030  10.507  18.029  0.00  0.00     0.008 A 
HETATM    3  C   UNK N   1      35.938  11.207  16.685  0.00  0.00     0.005 A 
HETATM    4  C   UNK N   1      35.470  12.652  16.636  0.00  0.00    -0.016 A 
HETATM    5  C   UNK N   1      35.401  13.293  15.263  0.00  0.00     0.010 C 
HETATM    6  C   UNK N   1      35.068  13.497  17.860  0.00  0.00     0.036 A 
HETATM    7  C   UNK N   1      35.183  12.736  19.159  0.00  0.00     0.122 A 
ENDROOT
BRANCH   1   8
HETATM    8  C   UNK N   1      35.765  10.513  20.591  0.00  0.00    -0.016 C 
HETATM    9  C   UNK N   1      34.548   9.944  21.311  0.00  0.00     0.010 C 
HETATM   10  C   UNK N   1      37.138  10.281  21.197  0.00  0.00     0.010 C 
ENDBRANCH   1   8
BRANCH   7  11
HETATM   11  O   UNK N   1      34.824  13.461  20.349  0.00  0.00    -0.395 OA
HETATM   12  H   UNK N   1      34.157  14.164  20.306  0.00  0.00     0.210 HD
ENDBRANCH   7  11
TORSDOF 2
ENDMDL
MODEL 2
REMARK VINA RESULT:      -4.6      2.600      4.268
REMARK  2 active torsions:
REMARK  status: ('A' for Active; 'I' for Inactive)
REMARK    1  A    between atoms: C_4  and  C_2 
REMARK    2  A    between atoms: C_10  and  O_11 
ROOT
HETATM    1  C   UNK N   1      35.443  12.699  15.839  0.00  0.00     0.018 A 
HETATM    2  C   UNK N   1      34.349  11.792  15.245  0.00  0.00     0.008 A 
HETATM    3  C   UNK N   1      34.332  11.581  13.742  0.00  0.00     0.005 A 
HETATM    4  C   UNK N   1      35.386  12.267  12.888  0.00  0.00    -0.016 A 
HETATM    5  C   UNK N   1      35.314  12.016  11.395  0.00  0.00     0.010 C 
HETATM    6  C   UNK N   1      36.503  13.184  13.424  0.00  0.00     0.036 A 
HETATM    7  C   UNK N   1      36.457  13.347  14.925  0.00  0.00     0.122 A 
ENDROOT
BRANCH   1   8
HETATM    8  C   UNK N   1      35.376  12.849  17.357  0.00  0.00    -0.016 C 
HETATM    9  C   UNK N   1      35.302  14.213  18.032  0.00  0.00     0.010 C 
HETATM   10  C   UNK N   1      35.383  11.607  18.233  0.00  0.00     0.010 C 
ENDBRANCH   1   8
BRANCH   7  11
HETATM   11  O   UNK N   1      37.471  14.190  15.499  0.00  0.00    -0.395 OA
HETATM   12  H   UNK N   1      38.271  14.401  14.993  0.00  0.00     0.210 HD
ENDBRANCH   7  11
TORSDOF 2
ENDMDL
MODEL 3
REMARK VINA RESULT:      -4.6     12.915     14.388
REMARK  2 active torsions:
REMARK  status: ('A' for Active; 'I' for Inactive)
REMARK    1  A    between atoms: C_4  and  C_2 
REMARK    2  A    between atoms: C_10  and  O_11 
ROOT
HETATM    1  C   UNK N   1      32.430  16.951   5.909  0.00  0.00     0.018 A 
HETATM    2  C   UNK N   1      30.913  16.693   5.977  0.00  0.00     0.008 A 
HETATM    3  C   UNK N   1      30.158  17.187   7.198  0.00  0.00     0.005 A 
HETATM    4  C   UNK N   1      30.920  17.909   8.296  0.00  0.00    -0.016 A 
HETATM    5  C   UNK N   1      30.107  18.376   9.488  0.00  0.00     0.010 C 
HETATM    6  C   UNK N   1      32.434  18.196   8.284  0.00  0.00     0.036 A 
HETATM    7  C   UNK N   1      33.118  17.677   7.041  0.00  0.00     0.122 A 
ENDROOT
BRANCH   1   8
HETATM    8  C   UNK N   1      33.099  16.418   4.645  0.00  0.00    -0.016 C 
HETATM    9  C   UNK N   1      34.101  15.270   4.683  0.00  0.00     0.010 C 
HETATM   10  C   UNK N   1      32.765  17.042   3.300  0.00  0.00     0.010 C 
ENDBRANCH   1   8
BRANCH   7  11
HETATM   11  O   UNK N   1      34.535  17.908   6.958  0.00  0.00    -0.395 OA
HETATM   12  H   UNK N   1      34.914  18.733   7.301  0.00  0.00     0.210 HD
ENDBRANCH   7  11
TORSDOF 2
ENDMDL
MODEL 4
REMARK VINA RESULT:      -4.6     13.806     16.342
REMARK  2 active torsions:
REMARK  status: ('A' for Active; 'I' for Inactive)
REMARK    1  A    between atoms: C_4  and  C_2 
REMARK    2  A    between atoms: C_10  and  O_11 
ROOT
HETATM    1  C   UNK N   1      27.931  19.133   6.123  0.00  0.00     0.018 A 
HETATM    2  C   UNK N   1      28.702  18.602   4.900  0.00  0.00     0.008 A 
HETATM    3  C   UNK N   1      29.750  17.527   5.127  0.00  0.00     0.005 A 
HETATM    4  C   UNK N   1      29.995  17.021   6.539  0.00  0.00    -0.016 A 
HETATM    5  C   UNK N   1      31.054  15.948   6.696  0.00  0.00     0.010 C 
HETATM    6  C   UNK N   1      29.257  17.513   7.799  0.00  0.00     0.036 A 
HETATM    7  C   UNK N   1      28.232  18.580   7.497  0.00  0.00     0.122 A 
ENDROOT
BRANCH   1   8
HETATM    8  C   UNK N   1      26.900  20.211   5.794  0.00  0.00    -0.016 C 
HETATM    9  C   UNK N   1      27.063  21.654   6.258  0.00  0.00     0.010 C 
HETATM   10  C   UNK N   1      25.671  19.847   4.980  0.00  0.00     0.010 C 
ENDBRANCH   1   8
BRANCH   7  11
HETATM   11  O   UNK N   1      27.500  19.090   8.626  0.00  0.00    -0.395 OA
HETATM   12  H   UNK N   1      26.655  18.687   8.879  0.00  0.00     0.210 HD
ENDBRANCH   7  11
TORSDOF 2
ENDMDL
MODEL 5
REMARK VINA RESULT:      -4.5     27.845     29.042
REMARK  2 active torsions:
REMARK  status: ('A' for Active; 'I' for Inactive)
REMARK    1  A    between atoms: C_4  and  C_2 
REMARK    2  A    between atoms: C_10  and  O_11 
ROOT
HETATM    1  C   UNK N   1      26.574  24.901  -5.392  0.00  0.00     0.018 A 
HETATM    2  C   UNK N   1      26.475  26.064  -6.397  0.00  0.00     0.008 A 
HETATM    3  C   UNK N   1      26.308  27.470  -5.849  0.00  0.00     0.005 A 
HETATM    4  C   UNK N   1      26.246  27.673  -4.344  0.00  0.00    -0.016 A 
HETATM    5  C   UNK N   1      26.078  29.102  -3.862  0.00  0.00     0.010 C 
HETATM    6  C   UNK N   1      26.339  26.551  -3.292  0.00  0.00     0.036 A 
HETATM    7  C   UNK N   1      26.503  25.183  -3.909  0.00  0.00     0.122 A 
ENDROOT
BRANCH   1   8
HETATM    8  C   UNK N   1      26.740  23.528  -6.039  0.00  0.00    -0.016 C 
HETATM    9  C   UNK N   1      25.546  22.710  -6.519  0.00  0.00     0.010 C 
HETATM   10  C   UNK N   1      28.132  22.946  -6.215  0.00  0.00     0.010 C 
ENDBRANCH   1   8
BRANCH   7  11
HETATM   11  O   UNK N   1      26.598  24.082  -2.988  0.00  0.00    -0.395 OA
HETATM   12  H   UNK N   1      26.604  23.171  -3.320  0.00  0.00     0.210 HD
ENDBRANCH   7  11
TORSDOF 2
ENDMDL
MODEL 6
REMARK VINA RESULT:      -4.5     24.235     25.917
REMARK  2 active torsions:
REMARK  status: ('A' for Active; 'I' for Inactive)
REMARK    1  A    between atoms: C_4  and  C_2 
REMARK    2  A    between atoms: C_10  and  O_11 
ROOT
HETATM    1  C   UNK N   1      29.562  23.141  -3.869  0.00  0.00     0.018 A 
HETATM    2  C   UNK N   1      29.571  22.519  -5.278  0.00  0.00     0.008 A 
HETATM    3  C   UNK N   1      30.522  21.367  -5.546  0.00  0.00     0.005 A 
HETATM    4  C   UNK N   1      31.422  20.876  -4.424  0.00  0.00    -0.016 A 
HETATM    5  C   UNK N   1      32.349  19.723  -4.757  0.00  0.00     0.010 C 
HETATM    6  C   UNK N   1      31.458  21.457  -2.997  0.00  0.00     0.036 A 
HETATM    7  C   UNK N   1      30.487  22.597  -2.805  0.00  0.00     0.122 A 
ENDROOT
BRANCH   1   8
HETATM    8  C   UNK N   1      28.573  24.291  -3.698  0.00  0.00    -0.016 C 
HETATM    9  C   UNK N   1      28.906  25.715  -4.131  0.00  0.00     0.010 C 
HETATM   10  C   UNK N   1      27.212  24.023  -3.079  0.00  0.00     0.010 C 
ENDBRANCH   1   8
BRANCH   7  11
HETATM   11  O   UNK N   1      30.464  23.192  -1.495  0.00  0.00    -0.395 OA
HETATM   12  H   UNK N   1      31.220  23.714  -1.186  0.00  0.00     0.210 HD
ENDBRANCH   7  11
TORSDOF 2
ENDMDL
MODEL 7
REMARK VINA RESULT:      -4.5      2.830      5.450
REMARK  2 active torsions:
REMARK  status: ('A' for Active; 'I' for Inactive)
REMARK    1  A    between atoms: C_4  and  C_2 
REMARK    2  A    between atoms: C_10  and  O_11 
ROOT
HETATM    1  C   UNK N   1      36.356  13.105  15.755  0.00  0.00     0.018 A 
HETATM    2  C   UNK N   1      35.461  13.315  16.991  0.00  0.00     0.008 A 
HETATM    3  C   UNK N   1      35.084  12.097  17.815  0.00  0.00     0.005 A 
HETATM    4  C   UNK N   1      35.599  10.731  17.394  0.00  0.00    -0.016 A 
HETATM    5  C   UNK N   1      35.186   9.557  18.260  0.00  0.00     0.010 C 
HETATM    6  C   UNK N   1      36.495  10.459  16.170  0.00  0.00     0.036 A 
HETATM    7  C   UNK N   1      36.829  11.714  15.399  0.00  0.00     0.122 A 
ENDROOT
BRANCH   1   8
HETATM    8  C   UNK N   1      36.680  14.387  14.991  0.00  0.00    -0.016 C 
HETATM    9  C   UNK N   1      36.316  14.567  13.522  0.00  0.00     0.010 C 
HETATM   10  C   UNK N   1      37.385  15.526  15.707  0.00  0.00     0.010 C 
ENDBRANCH   1   8
BRANCH   7  11
HETATM   11  O   UNK N   1      37.664  11.540  14.241  0.00  0.00    -0.395 OA
HETATM   12  H   UNK N   1      37.353  11.833  13.370  0.00  0.00     0.210 HD
ENDBRANCH   7  11
TORSDOF 2
ENDMDL
MODEL 8
REMARK VINA RESULT:      -4.4     30.159     30.746
REMARK  2 active torsions:
REMARK  status: ('A' for Active; 'I' for Inactive)
REMARK    1  A    between atoms: C_4  and  C_2 
REMARK    2  A    between atoms: C_10  and  O_11 
ROOT
HETATM    1  C   UNK N   1      26.989  28.819  -5.187  0.00  0.00     0.018 A 
HETATM    2  C   UNK N   1      27.723  28.546  -6.514  0.00  0.00     0.008 A 
HETATM    3  C   UNK N   1      27.279  27.355  -7.345  0.00  0.00     0.005 A 
HETATM    4  C   UNK N   1      26.139  26.486  -6.840  0.00  0.00    -0.016 A 
HETATM    5  C   UNK N   1      25.744  25.313  -7.716  0.00  0.00     0.010 C 
HETATM    6  C   UNK N   1      25.369  26.709  -5.523  0.00  0.00     0.036 A 
HETATM    7  C   UNK N   1      25.864  27.909  -4.752  0.00  0.00     0.122 A 
ENDROOT
BRANCH   1   8
HETATM    8  C   UNK N   1      27.507  30.036  -4.425  0.00  0.00    -0.016 C 
HETATM    9  C   UNK N   1      26.566  31.062  -3.806  0.00  0.00     0.010 C 
HETATM   10  C   UNK N   1      29.005  30.242  -4.272  0.00  0.00     0.010 C 
ENDBRANCH   1   8
BRANCH   7  11
HETATM   11  O   UNK N   1      25.193  28.181  -3.509  0.00  0.00    -0.395 OA
HETATM   12  H   UNK N   1      25.632  28.712  -2.826  0.00  0.00     0.210 HD
ENDBRANCH   7  11
TORSDOF 2
ENDMDL
MODEL 9
REMARK VINA RESULT:      -4.4     14.522     16.649
REMARK  2 active torsions:
REMARK  status: ('A' for Active; 'I' for Inactive)
REMARK    1  A    between atoms: C_4  and  C_2 
REMARK    2  A    between atoms: C_10  and  O_11 
ROOT
HETATM    1  C   UNK N   1      22.886  13.092   8.499  0.00  0.00     0.018 A 
HETATM    2  C   UNK N   1      24.242  12.725   9.130  0.00  0.00     0.008 A 
HETATM    3  C   UNK N   1      24.258  12.281  10.582  0.00  0.00     0.005 A 
HETATM    4  C   UNK N   1      22.947  12.217  11.349  0.00  0.00    -0.016 A 
HETATM    5  C   UNK N   1      23.033  11.766  12.794  0.00  0.00     0.010 C 
HETATM    6  C   UNK N   1      21.563  12.572  10.772  0.00  0.00     0.036 A 
HETATM    7  C   UNK N   1      21.625  13.003   9.327  0.00  0.00     0.122 A 
ENDROOT
BRANCH   1   8
HETATM    8  C   UNK N   1      22.973  13.526   7.037  0.00  0.00    -0.016 C 
HETATM    9  C   UNK N   1      22.753  12.547   5.889  0.00  0.00     0.010 C 
HETATM   10  C   UNK N   1      23.289  14.974   6.703  0.00  0.00     0.010 C 
ENDBRANCH   1   8
BRANCH   7  11
HETATM   11  O   UNK N   1      20.369  13.351   8.717  0.00  0.00    -0.395 OA
HETATM   12  H   UNK N   1      19.586  13.498   9.271  0.00  0.00     0.210 HD
ENDBRANCH   7  11
TORSDOF 2
ENDMDL
