MODEL 1
REMARK VINA RESULT:      -5.0      0.000      0.000
REMARK  3 active torsions:
REMARK  status: ('A' for Active; 'I' for Inactive)
REMARK    1  A    between atoms: O_1  and  C_5 
REMARK    2  A    between atoms: O_3  and  C_6 
REMARK    3  A    between atoms: C_4  and  C_6 
ROOT
HETATM    1  C   UNK N   1      22.085  12.436  10.899  0.00  0.00     0.070 A 
HETATM    2  C   UNK N   1      23.025  11.922  11.826  0.00  0.00     0.082 A 
HETATM    3  C   UNK N   1      22.552  13.005   9.705  0.00  0.00     0.021 A 
HETATM    4  C   UNK N   1      24.393  11.989  11.538  0.00  0.00     0.037 A 
HETATM    5  C   UNK N   1      23.918  13.066   9.429  0.00  0.00     0.001 A 
HETATM    6  C   UNK N   1      24.838  12.559  10.345  0.00  0.00     0.003 A 
ENDROOT
BRANCH   1   7
HETATM    7  C   UNK N   1      20.618  12.399  11.139  0.00  0.00     0.178 C 
HETATM    8  O   UNK N   1      19.874  13.090  10.457  0.00  0.00    -0.646 OA
BRANCH   7   9
HETATM    9  O   UNK N   1      20.089  11.615  12.097  0.00  0.00    -0.773 OA
HETATM   10  H   UNK N   1      20.338  10.713  12.155  0.00  0.00     0.167 HD
ENDBRANCH   7   9
ENDBRANCH   1   7
BRANCH   2  11
HETATM   11  O   UNK N   1      22.630  11.367  12.986  0.00  0.00    -0.360 OA
HETATM   12  H   UNK N   1      22.611  11.881  13.768  0.00  0.00     0.217 HD
ENDBRANCH   2  11
TORSDOF 3
ENDMDL
MODEL 2
REMARK VINA RESULT:      -5.0     10.573     11.811
REMARK  3 active torsions:
REMARK  status: ('A' for Active; 'I' for Inactive)
REMARK    1  A    between atoms: O_1  and  C_5 
REMARK    2  A    between atoms: O_3  and  C_6 
REMARK    3  A    between atoms: C_4  and  C_6 
ROOT
HETATM    1  C   UNK N   1      20.634  19.029   1.915  0.00  0.00     0.070 A 
HETATM    2  C   UNK N   1      20.359  17.829   1.215  0.00  0.00     0.082 A 
HETATM    3  C   UNK N   1      20.674  19.002   3.317  0.00  0.00     0.021 A 
HETATM    4  C   UNK N   1      20.135  16.644   1.926  0.00  0.00     0.037 A 
HETATM    5  C   UNK N   1      20.449  17.815   4.016  0.00  0.00     0.001 A 
HETATM    6  C   UNK N   1      20.179  16.637   3.321  0.00  0.00     0.003 A 
ENDROOT
BRANCH   1   7
HETATM    7  C   UNK N   1      20.882  20.322   1.225  0.00  0.00     0.178 C 
HETATM    8  O   UNK N   1      21.371  21.256   1.845  0.00  0.00    -0.646 OA
BRANCH   7   9
HETATM    9  O   UNK N   1      20.577  20.487  -0.075  0.00  0.00    -0.773 OA
HETATM   10  H   UNK N   1      21.233  20.352  -0.731  0.00  0.00     0.167 HD
ENDBRANCH   7   9
ENDBRANCH   1   7
BRANCH   2  11
HETATM   11  O   UNK N   1      20.309  17.800  -0.129  0.00  0.00    -0.360 OA
HETATM   12  H   UNK N   1      20.038  17.020  -0.571  0.00  0.00     0.217 HD
ENDBRANCH   2  11
TORSDOF 3
ENDMDL
MODEL 3
REMARK VINA RESULT:      -4.9     11.302     12.817
REMARK  3 active torsions:
REMARK  status: ('A' for Active; 'I' for Inactive)
REMARK    1  A    between atoms: O_1  and  C_5 
REMARK    2  A    between atoms: O_3  and  C_6 
REMARK    3  A    between atoms: C_4  and  C_6 
ROOT
HETATM    1  C   UNK N   1      33.410  17.737   7.539  0.00  0.00     0.070 A 
HETATM    2  C   UNK N   1      32.047  17.511   7.848  0.00  0.00     0.082 A 
HETATM    3  C   UNK N   1      33.831  17.623   6.205  0.00  0.00     0.021 A 
HETATM    4  C   UNK N   1      31.147  17.181   6.827  0.00  0.00     0.037 A 
HETATM    5  C   UNK N   1      32.926  17.293   5.196  0.00  0.00     0.001 A 
HETATM    6  C   UNK N   1      31.585  17.072   5.506  0.00  0.00     0.003 A 
ENDROOT
BRANCH   1   7
HETATM    7  C   UNK N   1      34.419  18.090   8.571  0.00  0.00     0.178 C 
HETATM    8  O   UNK N   1      35.183  19.026   8.378  0.00  0.00    -0.646 OA
BRANCH   7   9
HETATM    9  O   UNK N   1      34.511  17.398   9.722  0.00  0.00    -0.773 OA
HETATM   10  H   UNK N   1      35.199  16.773   9.839  0.00  0.00     0.167 HD
ENDBRANCH   7   9
ENDBRANCH   1   7
BRANCH   2  11
HETATM   11  O   UNK N   1      31.591  17.607   9.110  0.00  0.00    -0.360 OA
HETATM   12  H   UNK N   1      32.194  17.725   9.817  0.00  0.00     0.217 HD
ENDBRANCH   2  11
TORSDOF 3
ENDMDL
MODEL 4
REMARK VINA RESULT:      -4.9      1.732      2.880
REMARK  3 active torsions:
REMARK  status: ('A' for Active; 'I' for Inactive)
REMARK    1  A    between atoms: O_1  and  C_5 
REMARK    2  A    between atoms: O_3  and  C_6 
REMARK    3  A    between atoms: C_4  and  C_6 
ROOT
HETATM    1  C   UNK N   1      23.110  12.240  11.346  0.00  0.00     0.070 A 
HETATM    2  C   UNK N   1      24.277  12.578  10.618  0.00  0.00     0.082 A 
HETATM    3  C   UNK N   1      21.884  12.169  10.668  0.00  0.00     0.021 A 
HETATM    4  C   UNK N   1      24.190  12.834   9.244  0.00  0.00     0.037 A 
HETATM    5  C   UNK N   1      21.809  12.427   9.299  0.00  0.00     0.001 A 
HETATM    6  C   UNK N   1      22.960  12.759   8.587  0.00  0.00     0.003 A 
ENDROOT
BRANCH   1   7
HETATM    7  C   UNK N   1      23.129  11.956  12.805  0.00  0.00     0.178 C 
HETATM    8  O   UNK N   1      22.350  11.137  13.274  0.00  0.00    -0.646 OA
BRANCH   7   9
HETATM    9  O   UNK N   1      23.991  12.584  13.626  0.00  0.00    -0.773 OA
HETATM   10  H   UNK N   1      23.768  12.717  14.526  0.00  0.00     0.167 HD
ENDBRANCH   7   9
ENDBRANCH   1   7
BRANCH   2  11
HETATM   11  O   UNK N   1      25.477  12.659  11.220  0.00  0.00    -0.360 OA
HETATM   12  H   UNK N   1      25.552  13.064  12.061  0.00  0.00     0.217 HD
ENDBRANCH   2  11
TORSDOF 3
ENDMDL
MODEL 5
REMARK VINA RESULT:      -4.8     12.238     13.267
REMARK  3 active torsions:
REMARK  status: ('A' for Active; 'I' for Inactive)
REMARK    1  A    between atoms: O_1  and  C_5 
REMARK    2  A    between atoms: O_3  and  C_6 
REMARK    3  A    between atoms: C_4  and  C_6 
ROOT
HETATM    1  C   UNK N   1      34.282  16.997   8.847  0.00  0.00     0.070 A 
HETATM    2  C   UNK N   1      34.976  16.675  10.039  0.00  0.00     0.082 A 
HETATM    3  C   UNK N   1      33.231  16.167   8.429  0.00  0.00     0.021 A 
HETATM    4  C   UNK N   1      34.605  15.543  10.776  0.00  0.00     0.037 A 
HETATM    5  C   UNK N   1      32.870  15.041   9.170  0.00  0.00     0.001 A 
HETATM    6  C   UNK N   1      33.557  14.730  10.343  0.00  0.00     0.003 A 
ENDROOT
BRANCH   1   7
HETATM    7  C   UNK N   1      34.622  18.182   8.017  0.00  0.00     0.178 C 
HETATM    8  O   UNK N   1      34.326  18.196   6.830  0.00  0.00    -0.646 OA
BRANCH   7   9
HETATM    9  O   UNK N   1      35.252  19.246   8.547  0.00  0.00    -0.773 OA
HETATM   10  H   UNK N   1      35.366  19.309   9.474  0.00  0.00     0.167 HD
ENDBRANCH   7   9
ENDBRANCH   1   7
BRANCH   2  11
HETATM   11  O   UNK N   1      35.991  17.437  10.485  0.00  0.00    -0.360 OA
HETATM   12  H   UNK N   1      36.657  17.722   9.891  0.00  0.00     0.217 HD
ENDBRANCH   2  11
TORSDOF 3
ENDMDL
MODEL 6
REMARK VINA RESULT:      -4.8     18.992     19.640
REMARK  3 active torsions:
REMARK  status: ('A' for Active; 'I' for Inactive)
REMARK    1  A    between atoms: O_1  and  C_5 
REMARK    2  A    between atoms: O_3  and  C_6 
REMARK    3  A    between atoms: C_4  and  C_6 
ROOT
HETATM    1  C   UNK N   1      30.850  22.199  -3.492  0.00  0.00     0.070 A 
HETATM    2  C   UNK N   1      31.871  21.238  -3.291  0.00  0.00     0.082 A 
HETATM    3  C   UNK N   1      30.080  22.136  -4.663  0.00  0.00     0.021 A 
HETATM    4  C   UNK N   1      32.094  20.249  -4.257  0.00  0.00     0.037 A 
HETATM    5  C   UNK N   1      30.311  21.146  -5.618  0.00  0.00     0.001 A 
HETATM    6  C   UNK N   1      31.317  20.203  -5.415  0.00  0.00     0.003 A 
ENDROOT
BRANCH   1   7
HETATM    7  C   UNK N   1      30.559  23.277  -2.510  0.00  0.00     0.178 C 
HETATM    8  O   UNK N   1      30.338  22.989  -1.342  0.00  0.00    -0.646 OA
BRANCH   7   9
HETATM    9  O   UNK N   1      30.532  24.570  -2.882  0.00  0.00    -0.773 OA
HETATM   10  H   UNK N   1      29.859  24.878  -3.456  0.00  0.00     0.167 HD
ENDBRANCH   7   9
ENDBRANCH   1   7
BRANCH   2  11
HETATM   11  O   UNK N   1      32.638  21.254  -2.187  0.00  0.00    -0.360 OA
HETATM   12  H   UNK N   1      32.268  21.027  -1.357  0.00  0.00     0.217 HD
ENDBRANCH   2  11
TORSDOF 3
ENDMDL
MODEL 7
REMARK VINA RESULT:      -4.8     11.510     12.865
REMARK  3 active torsions:
REMARK  status: ('A' for Active; 'I' for Inactive)
REMARK    1  A    between atoms: O_1  and  C_5 
REMARK    2  A    between atoms: O_3  and  C_6 
REMARK    3  A    between atoms: C_4  and  C_6 
ROOT
HETATM    1  C   UNK N   1      33.065  17.755   7.818  0.00  0.00     0.070 A 
HETATM    2  C   UNK N   1      33.149  17.486   6.429  0.00  0.00     0.082 A 
HETATM    3  C   UNK N   1      31.811  17.699   8.445  0.00  0.00     0.021 A 
HETATM    4  C   UNK N   1      31.989  17.172   5.710  0.00  0.00     0.037 A 
HETATM    5  C   UNK N   1      30.662  17.384   7.718  0.00  0.00     0.001 A 
HETATM    6  C   UNK N   1      30.751  17.121   6.352  0.00  0.00     0.003 A 
ENDROOT
BRANCH   1   7
HETATM    7  C   UNK N   1      34.254  18.095   8.642  0.00  0.00     0.178 C 
HETATM    8  O   UNK N   1      34.986  19.014   8.302  0.00  0.00    -0.646 OA
BRANCH   7   9
HETATM    9  O   UNK N   1      34.544  17.408   9.763  0.00  0.00    -0.773 OA
HETATM   10  H   UNK N   1      35.408  17.443  10.124  0.00  0.00     0.167 HD
ENDBRANCH   7   9
ENDBRANCH   1   7
BRANCH   2  11
HETATM   11  O   UNK N   1      34.326  17.526   5.780  0.00  0.00    -0.360 OA
HETATM   12  H   UNK N   1      35.079  17.895   6.199  0.00  0.00     0.217 HD
ENDBRANCH   2  11
TORSDOF 3
ENDMDL
MODEL 8
REMARK VINA RESULT:      -4.8      1.906      3.409
REMARK  3 active torsions:
REMARK  status: ('A' for Active; 'I' for Inactive)
REMARK    1  A    between atoms: O_1  and  C_5 
REMARK    2  A    between atoms: O_3  and  C_6 
REMARK    3  A    between atoms: C_4  and  C_6 
ROOT
HETATM    1  C   UNK N   1      22.954  12.798  10.552  0.00  0.00     0.070 A 
HETATM    2  C   UNK N   1      22.156  12.112  11.501  0.00  0.00     0.082 A 
HETATM    3  C   UNK N   1      22.324  13.619   9.604  0.00  0.00     0.021 A 
HETATM    4  C   UNK N   1      20.764  12.263  11.478  0.00  0.00     0.037 A 
HETATM    5  C   UNK N   1      20.936  13.762   9.591  0.00  0.00     0.001 A 
HETATM    6  C   UNK N   1      20.157  13.085  10.528  0.00  0.00     0.003 A 
ENDROOT
BRANCH   1   7
HETATM    7  C   UNK N   1      24.435  12.684  10.517  0.00  0.00     0.178 C 
HETATM    8  O   UNK N   1      25.044  13.000   9.504  0.00  0.00    -0.646 OA
BRANCH   7   9
HETATM    9  O   UNK N   1      25.125  12.239  11.583  0.00  0.00    -0.773 OA
HETATM   10  H   UNK N   1      25.527  11.393  11.561  0.00  0.00     0.167 HD
ENDBRANCH   7   9
ENDBRANCH   1   7
BRANCH   2  11
HETATM   11  O   UNK N   1      22.709  11.313  12.430  0.00  0.00    -0.360 OA
HETATM   12  H   UNK N   1      23.050  11.682  13.221  0.00  0.00     0.217 HD
ENDBRANCH   2  11
TORSDOF 3
ENDMDL
MODEL 9
REMARK VINA RESULT:      -4.7     19.499     21.039
REMARK  3 active torsions:
REMARK  status: ('A' for Active; 'I' for Inactive)
REMARK    1  A    between atoms: O_1  and  C_5 
REMARK    2  A    between atoms: O_3  and  C_6 
REMARK    3  A    between atoms: C_4  and  C_6 
ROOT
HETATM    1  C   UNK N   1      26.330  25.546  -4.150  0.00  0.00     0.070 A 
HETATM    2  C   UNK N   1      25.565  25.592  -5.342  0.00  0.00     0.082 A 
HETATM    3  C   UNK N   1      26.411  26.696  -3.351  0.00  0.00     0.021 A 
HETATM    4  C   UNK N   1      24.907  26.775  -5.700  0.00  0.00     0.037 A 
HETATM    5  C   UNK N   1      25.750  27.869  -3.718  0.00  0.00     0.001 A 
HETATM    6  C   UNK N   1      24.999  27.908  -4.891  0.00  0.00     0.003 A 
ENDROOT
BRANCH   1   7
HETATM    7  C   UNK N   1      27.055  24.325  -3.709  0.00  0.00     0.178 C 
HETATM    8  O   UNK N   1      26.865  23.880  -2.586  0.00  0.00    -0.646 OA
BRANCH   7   9
HETATM    9  O   UNK N   1      27.921  23.696  -4.525  0.00  0.00    -0.773 OA
HETATM   10  H   UNK N   1      27.699  22.862  -4.890  0.00  0.00     0.167 HD
ENDBRANCH   7   9
ENDBRANCH   1   7
BRANCH   2  11
HETATM   11  O   UNK N   1      25.456  24.518  -6.143  0.00  0.00    -0.360 OA
HETATM   12  H   UNK N   1      25.683  23.668  -5.821  0.00  0.00     0.217 HD
ENDBRANCH   2  11
TORSDOF 3
ENDMDL
