MODEL 1
REMARK VINA RESULT:      -5.9      0.000      0.000
REMARK  1 active torsions:
REMARK  status: ('A' for Active; 'I' for Inactive)
REMARK    1  A    between atoms: O_2  and  C_3 
ROOT
HETATM    1  C   UNK N   1      35.121  12.410  14.977  0.00  0.00     0.138 A 
HETATM    2  C   UNK N   1      35.186  12.532  16.399  0.00  0.00     0.126 A 
HETATM    3  O   UNK N   1      35.141  13.725  16.996  0.00  0.00    -0.272 OA
HETATM    4  C   UNK N   1      35.200  13.866  18.322  0.00  0.00     0.288 A 
HETATM    5  O   UNK N   1      35.154  14.979  18.813  0.00  0.00    -0.260 OA
HETATM    6  C   UNK N   1      35.312  12.750  19.153  0.00  0.00     0.083 A 
HETATM    7  C   UNK N   1      35.364  11.481  18.585  0.00  0.00     0.020 A 
HETATM    8  C   UNK N   1      35.302  11.354  17.203  0.00  0.00     0.002 A 
HETATM    9  C   UNK N   1      35.352  10.082  16.612  0.00  0.00     0.028 A 
HETATM   10  C   UNK N   1      35.286  10.010  15.228  0.00  0.00     0.003 A 
HETATM   11  C   UNK N   1      35.176  11.121  14.448  0.00  0.00     0.121 A 
HETATM   12  O   UNK N   1      35.134  10.775  13.188  0.00  0.00    -0.319 OA
HETATM   13  C   UNK N   1      35.213   9.458  13.107  0.00  0.00     0.143 A 
HETATM   14  C   UNK N   1      35.312   8.920  14.392  0.00  0.00     0.039 A 
ENDROOT
BRANCH   1  15
HETATM   15  O   UNK N   1      35.011  13.457  14.118  0.00  0.00    -0.351 OA
HETATM   16  C   UNK N   1      36.062  14.186  13.615  0.00  0.00     0.210 C 
ENDBRANCH   1  15
TORSDOF 1
ENDMDL
MODEL 2
REMARK VINA RESULT:      -5.9     24.427     27.343
REMARK  1 active torsions:
REMARK  status: ('A' for Active; 'I' for Inactive)
REMARK    1  A    between atoms: O_2  and  C_3 
ROOT
HETATM    1  C   UNK N   1      26.131  24.967  -4.416  0.00  0.00     0.138 A 
HETATM    2  C   UNK N   1      25.963  24.503  -5.757  0.00  0.00     0.126 A 
HETATM    3  O   UNK N   1      25.992  23.201  -6.049  0.00  0.00    -0.272 OA
HETATM    4  C   UNK N   1      25.838  22.742  -7.292  0.00  0.00     0.288 A 
HETATM    5  O   UNK N   1      25.873  21.544  -7.502  0.00  0.00    -0.260 OA
HETATM    6  C   UNK N   1      25.636  23.622  -8.358  0.00  0.00     0.083 A 
HETATM    7  C   UNK N   1      25.597  24.991  -8.111  0.00  0.00     0.020 A 
HETATM    8  C   UNK N   1      25.759  25.450  -6.809  0.00  0.00     0.002 A 
HETATM    9  C   UNK N   1      25.723  26.828  -6.541  0.00  0.00     0.028 A 
HETATM   10  C   UNK N   1      25.890  27.233  -5.225  0.00  0.00     0.003 A 
HETATM   11  C   UNK N   1      26.085  26.345  -4.212  0.00  0.00     0.121 A 
HETATM   12  O   UNK N   1      26.213  26.987  -3.080  0.00  0.00    -0.319 OA
HETATM   13  C   UNK N   1      26.109  28.285  -3.313  0.00  0.00     0.143 A 
HETATM   14  C   UNK N   1      25.900  28.494  -4.678  0.00  0.00     0.039 A 
ENDROOT
BRANCH   1  15
HETATM   15  O   UNK N   1      26.330  24.161  -3.341  0.00  0.00    -0.351 OA
HETATM   16  C   UNK N   1      27.556  23.787  -2.843  0.00  0.00     0.210 C 
ENDBRANCH   1  15
TORSDOF 1
ENDMDL
MODEL 3
REMARK VINA RESULT:      -5.8     22.419     25.044
REMARK  1 active torsions:
REMARK  status: ('A' for Active; 'I' for Inactive)
REMARK    1  A    between atoms: O_2  and  C_3 
ROOT
HETATM    1  C   UNK N   1      27.130  24.207  -4.433  0.00  0.00     0.138 A 
HETATM    2  C   UNK N   1      28.346  23.548  -4.074  0.00  0.00     0.126 A 
HETATM    3  O   UNK N   1      28.826  23.609  -2.831  0.00  0.00    -0.272 OA
HETATM    4  C   UNK N   1      29.959  23.003  -2.470  0.00  0.00     0.288 A 
HETATM    5  O   UNK N   1      30.352  23.091  -1.322  0.00  0.00    -0.260 OA
HETATM    6  C   UNK N   1      30.701  22.267  -3.397  0.00  0.00     0.083 A 
HETATM    7  C   UNK N   1      30.246  22.170  -4.708  0.00  0.00     0.020 A 
HETATM    8  C   UNK N   1      29.064  22.808  -5.065  0.00  0.00     0.002 A 
HETATM    9  C   UNK N   1      28.590  22.721  -6.384  0.00  0.00     0.028 A 
HETATM   10  C   UNK N   1      27.405  23.377  -6.688  0.00  0.00     0.003 A 
HETATM   11  C   UNK N   1      26.709  24.085  -5.757  0.00  0.00     0.121 A 
HETATM   12  O   UNK N   1      25.638  24.599  -6.302  0.00  0.00    -0.319 OA
HETATM   13  C   UNK N   1      25.601  24.250  -7.577  0.00  0.00     0.143 A 
HETATM   14  C   UNK N   1      26.717  23.463  -7.873  0.00  0.00     0.039 A 
ENDROOT
BRANCH   1  15
HETATM   15  O   UNK N   1      26.367  24.936  -3.577  0.00  0.00    -0.351 OA
HETATM   16  C   UNK N   1      26.478  26.290  -3.368  0.00  0.00     0.210 C 
ENDBRANCH   1  15
TORSDOF 1
ENDMDL
MODEL 4
REMARK VINA RESULT:      -5.7     25.413     27.963
REMARK  1 active torsions:
REMARK  status: ('A' for Active; 'I' for Inactive)
REMARK    1  A    between atoms: O_2  and  C_3 
ROOT
HETATM    1  C   UNK N   1      25.829  23.616  -7.424  0.00  0.00     0.138 A 
HETATM    2  C   UNK N   1      26.030  24.391  -6.240  0.00  0.00     0.126 A 
HETATM    3  O   UNK N   1      26.215  23.810  -5.054  0.00  0.00    -0.272 OA
HETATM    4  C   UNK N   1      26.405  24.511  -3.934  0.00  0.00     0.288 A 
HETATM    5  O   UNK N   1      26.569  23.929  -2.878  0.00  0.00    -0.260 OA
HETATM    6  C   UNK N   1      26.417  25.907  -3.960  0.00  0.00     0.083 A 
HETATM    7  C   UNK N   1      26.228  26.566  -5.171  0.00  0.00     0.020 A 
HETATM    8  C   UNK N   1      26.033  25.819  -6.326  0.00  0.00     0.002 A 
HETATM    9  C   UNK N   1      25.841  26.466  -7.557  0.00  0.00     0.028 A 
HETATM   10  C   UNK N   1      25.650  25.674  -8.680  0.00  0.00     0.003 A 
HETATM   11  C   UNK N   1      25.645  24.314  -8.616  0.00  0.00     0.121 A 
HETATM   12  O   UNK N   1      25.446  23.815  -9.808  0.00  0.00    -0.319 OA
HETATM   13  C   UNK N   1      25.318  24.811 -10.669  0.00  0.00     0.143 A 
HETATM   14  C   UNK N   1      25.442  26.026  -9.992  0.00  0.00     0.039 A 
ENDROOT
BRANCH   1  15
HETATM   15  O   UNK N   1      25.808  22.258  -7.461  0.00  0.00    -0.351 OA
HETATM   16  C   UNK N   1      24.694  21.474  -7.272  0.00  0.00     0.210 C 
ENDBRANCH   1  15
TORSDOF 1
ENDMDL
MODEL 5
REMARK VINA RESULT:      -5.6      9.488     11.657
REMARK  1 active torsions:
REMARK  status: ('A' for Active; 'I' for Inactive)
REMARK    1  A    between atoms: O_2  and  C_3 
ROOT
HETATM    1  C   UNK N   1      30.320  17.362   7.871  0.00  0.00     0.138 A 
HETATM    2  C   UNK N   1      31.737  17.373   7.686  0.00  0.00     0.126 A 
HETATM    3  O   UNK N   1      32.572  17.424   8.726  0.00  0.00    -0.272 OA
HETATM    4  C   UNK N   1      33.899  17.436   8.580  0.00  0.00     0.288 A 
HETATM    5  O   UNK N   1      34.614  17.482   9.564  0.00  0.00    -0.260 OA
HETATM    6  C   UNK N   1      34.477  17.395   7.310  0.00  0.00     0.083 A 
HETATM    7  C   UNK N   1      33.653  17.341   6.189  0.00  0.00     0.020 A 
HETATM    8  C   UNK N   1      32.275  17.330   6.361  0.00  0.00     0.002 A 
HETATM    9  C   UNK N   1      31.428  17.276   5.242  0.00  0.00     0.028 A 
HETATM   10  C   UNK N   1      30.059  17.267   5.469  0.00  0.00     0.003 A 
HETATM   11  C   UNK N   1      29.531  17.308   6.723  0.00  0.00     0.121 A 
HETATM   12  O   UNK N   1      28.226  17.288   6.655  0.00  0.00    -0.319 OA
HETATM   13  C   UNK N   1      27.868  17.235   5.383  0.00  0.00     0.143 A 
HETATM   14  C   UNK N   1      29.012  17.219   4.581  0.00  0.00     0.039 A 
ENDROOT
BRANCH   1  15
HETATM   15  O   UNK N   1      29.701  17.400   9.080  0.00  0.00    -0.351 OA
HETATM   16  C   UNK N   1      29.483  18.533   9.826  0.00  0.00     0.210 C 
ENDBRANCH   1  15
TORSDOF 1
ENDMDL
MODEL 6
REMARK VINA RESULT:      -5.5     11.022     12.441
REMARK  1 active torsions:
REMARK  status: ('A' for Active; 'I' for Inactive)
REMARK    1  A    between atoms: O_2  and  C_3 
ROOT
HETATM    1  C   UNK N   1      29.782  17.112   6.302  0.00  0.00     0.138 A 
HETATM    2  C   UNK N   1      31.192  17.068   6.074  0.00  0.00     0.126 A 
HETATM    3  O   UNK N   1      31.692  16.711   4.890  0.00  0.00    -0.272 OA
HETATM    4  C   UNK N   1      33.005  16.661   4.651  0.00  0.00     0.288 A 
HETATM    5  O   UNK N   1      33.406  16.329   3.552  0.00  0.00    -0.260 OA
HETATM    6  C   UNK N   1      33.924  16.987   5.651  0.00  0.00     0.083 A 
HETATM    7  C   UNK N   1      33.457  17.366   6.906  0.00  0.00     0.020 A 
HETATM    8  C   UNK N   1      32.088  17.412   7.135  0.00  0.00     0.002 A 
HETATM    9  C   UNK N   1      31.599  17.792   8.395  0.00  0.00     0.028 A 
HETATM   10  C   UNK N   1      30.223  17.821   8.571  0.00  0.00     0.003 A 
HETATM   11  C   UNK N   1      29.357  17.497   7.572  0.00  0.00     0.121 A 
HETATM   12  O   UNK N   1      28.126  17.607   8.000  0.00  0.00    -0.319 OA
HETATM   13  C   UNK N   1      28.150  17.997   9.264  0.00  0.00     0.143 A 
HETATM   14  C   UNK N   1      29.475  18.149   9.676  0.00  0.00     0.039 A 
ENDROOT
BRANCH   1  15
HETATM   15  O   UNK N   1      28.841  16.807   5.370  0.00  0.00    -0.351 OA
HETATM   16  C   UNK N   1      28.323  17.683   4.446  0.00  0.00     0.210 C 
ENDBRANCH   1  15
TORSDOF 1
ENDMDL
MODEL 7
REMARK VINA RESULT:      -5.5     16.385     18.421
REMARK  1 active torsions:
REMARK  status: ('A' for Active; 'I' for Inactive)
REMARK    1  A    between atoms: O_2  and  C_3 
ROOT
HETATM    1  C   UNK N   1      23.221  18.499   4.537  0.00  0.00     0.138 A 
HETATM    2  C   UNK N   1      24.577  18.909   4.356  0.00  0.00     0.126 A 
HETATM    3  O   UNK N   1      25.578  18.301   4.994  0.00  0.00    -0.272 OA
HETATM    4  C   UNK N   1      26.853  18.665   4.842  0.00  0.00     0.288 A 
HETATM    5  O   UNK N   1      27.726  18.075   5.449  0.00  0.00    -0.260 OA
HETATM    6  C   UNK N   1      27.197  19.718   3.991  0.00  0.00     0.083 A 
HETATM    7  C   UNK N   1      26.192  20.388   3.299  0.00  0.00     0.020 A 
HETATM    8  C   UNK N   1      24.871  19.995   3.471  0.00  0.00     0.002 A 
HETATM    9  C   UNK N   1      23.845  20.660   2.781  0.00  0.00     0.028 A 
HETATM   10  C   UNK N   1      22.543  20.227   2.989  0.00  0.00     0.003 A 
HETATM   11  C   UNK N   1      22.246  19.196   3.826  0.00  0.00     0.121 A 
HETATM   12  O   UNK N   1      20.954  18.995   3.839  0.00  0.00    -0.319 OA
HETATM   13  C   UNK N   1      20.380  19.868   3.028  0.00  0.00     0.143 A 
HETATM   14  C   UNK N   1      21.360  20.683   2.458  0.00  0.00     0.039 A 
ENDROOT
BRANCH   1  15
HETATM   15  O   UNK N   1      22.826  17.484   5.350  0.00  0.00    -0.351 OA
HETATM   16  C   UNK N   1      22.752  16.159   4.989  0.00  0.00     0.210 C 
ENDBRANCH   1  15
TORSDOF 1
ENDMDL
MODEL 8
REMARK VINA RESULT:      -5.5     10.510     12.665
REMARK  1 active torsions:
REMARK  status: ('A' for Active; 'I' for Inactive)
REMARK    1  A    between atoms: O_2  and  C_3 
ROOT
HETATM    1  C   UNK N   1      31.538  17.079   4.294  0.00  0.00     0.138 A 
HETATM    2  C   UNK N   1      31.920  17.340   5.646  0.00  0.00     0.126 A 
HETATM    3  O   UNK N   1      33.176  17.660   5.963  0.00  0.00    -0.272 OA
HETATM    4  C   UNK N   1      33.559  17.908   7.217  0.00  0.00     0.288 A 
HETATM    5  O   UNK N   1      34.718  18.196   7.449  0.00  0.00    -0.260 OA
HETATM    6  C   UNK N   1      32.642  17.840   8.269  0.00  0.00     0.083 A 
HETATM    7  C   UNK N   1      31.318  17.510   7.996  0.00  0.00     0.020 A 
HETATM    8  C   UNK N   1      30.939  17.255   6.684  0.00  0.00     0.002 A 
HETATM    9  C   UNK N   1      29.607  16.921   6.390  0.00  0.00     0.028 A 
HETATM   10  C   UNK N   1      29.281  16.677   5.064  0.00  0.00     0.003 A 
HETATM   11  C   UNK N   1      30.203  16.752   4.064  0.00  0.00     0.121 A 
HETATM   12  O   UNK N   1      29.636  16.478   2.918  0.00  0.00    -0.319 OA
HETATM   13  C   UNK N   1      28.356  16.220   3.128  0.00  0.00     0.143 A 
HETATM   14  C   UNK N   1      28.079  16.335   4.492  0.00  0.00     0.039 A 
ENDROOT
BRANCH   1  15
HETATM   15  O   UNK N   1      32.383  17.130   3.232  0.00  0.00    -0.351 OA
HETATM   16  C   UNK N   1      33.258  16.135   2.863  0.00  0.00     0.210 C 
ENDBRANCH   1  15
TORSDOF 1
ENDMDL
MODEL 9
REMARK VINA RESULT:      -5.4     14.989     15.891
REMARK  1 active torsions:
REMARK  status: ('A' for Active; 'I' for Inactive)
REMARK    1  A    between atoms: O_2  and  C_3 
ROOT
HETATM    1  C   UNK N   1      20.901  14.720   8.199  0.00  0.00     0.138 A 
HETATM    2  C   UNK N   1      21.325  13.752   9.161  0.00  0.00     0.126 A 
HETATM    3  O   UNK N   1      20.497  13.304  10.106  0.00  0.00    -0.272 OA
HETATM    4  C   UNK N   1      20.868  12.400  11.015  0.00  0.00     0.288 A 
HETATM    5  O   UNK N   1      20.071  12.026  11.855  0.00  0.00    -0.260 OA
HETATM    6  C   UNK N   1      22.163  11.877  11.013  0.00  0.00     0.083 A 
HETATM    7  C   UNK N   1      23.069  12.309  10.050  0.00  0.00     0.020 A 
HETATM    8  C   UNK N   1      22.664  13.251   9.112  0.00  0.00     0.002 A 
HETATM    9  C   UNK N   1      23.565  13.698   8.132  0.00  0.00     0.028 A 
HETATM   10  C   UNK N   1      23.110  14.639   7.219  0.00  0.00     0.003 A 
HETATM   11  C   UNK N   1      21.839  15.126   7.252  0.00  0.00     0.121 A 
HETATM   12  O   UNK N   1      21.673  15.993   6.287  0.00  0.00    -0.319 OA
HETATM   13  C   UNK N   1      22.803  16.097   5.610  0.00  0.00     0.143 A 
HETATM   14  C   UNK N   1      23.758  15.246   6.171  0.00  0.00     0.039 A 
ENDROOT
BRANCH   1  15
HETATM   15  O   UNK N   1      19.657  15.264   8.151  0.00  0.00    -0.351 OA
HETATM   16  C   UNK N   1      19.254  16.390   8.829  0.00  0.00     0.210 C 
ENDBRANCH   1  15
TORSDOF 1
ENDMDL
