MODEL 1
REMARK VINA RESULT:      -5.6      0.000      0.000
REMARK  8 active torsions:
REMARK  status: ('A' for Active; 'I' for Inactive)
REMARK    1  A    between atoms: N_2  and  C_9 
REMARK    2  A    between atoms: N_2  and  C_11 
REMARK    3  A    between atoms: N_2  and  C_12 
REMARK    4  A    between atoms: N_3  and  C_8 
REMARK    5  A    between atoms: N_3  and  C_13 
REMARK    6  A    between atoms: C_6  and  C_7 
REMARK    7  A    between atoms: C_6  and  C_8 
REMARK    8  A    between atoms: C_7  and  C_9 
ROOT
HETATM    1 Cl   UNK N   1      33.664  16.238   5.510  0.00  0.00    -0.084 Cl
HETATM    2  N   UNK N   1      30.569  17.759   9.287  0.00  0.00    -0.365 N 
ATOM      3  HN  UNK N   1      31.342  17.568   9.924  1.00  0.00     0.165 HD
HETATM    4  C   UNK N   1      28.466  18.279   7.560  0.00  0.00     0.042 A 
HETATM    5  C   UNK N   1      29.676  17.785   7.056  0.00  0.00     0.017 A 
HETATM    6  C   UNK N   1      28.331  18.514   8.930  0.00  0.00     0.047 A 
HETATM    7  C   UNK N   1      30.734  17.532   7.957  0.00  0.00     0.046 A 
HETATM    8  C   UNK N   1      29.863  17.571   5.685  0.00  0.00     0.018 A 
HETATM    9  C   UNK N   1      29.396  18.237   9.786  0.00  0.00     0.090 A 
HETATM   10  C   UNK N   1      31.958  17.061   7.474  0.00  0.00     0.054 A 
HETATM   11  C   UNK N   1      31.090  17.098   5.212  0.00  0.00     0.025 A 
HETATM   12  C   UNK N   1      32.134  16.842   6.106  0.00  0.00     0.036 A 
ENDROOT
BRANCH   4  13
HETATM   13  N   UNK N   1      27.423  18.641   6.687  0.00  0.00    -0.385 N 
HETATM   14  H   UNK N   1      26.714  18.003   6.441  0.00  0.00     0.160 HD
BRANCH  13  15
HETATM   15  C   UNK N   1      27.438  19.979   6.171  0.00  0.00     0.077 C 
HETATM   16  C   UNK N   1      26.562  20.953   6.942  0.00  0.00     0.032 C 
BRANCH  15  17
HETATM   17  C   UNK N   1      27.515  20.033   4.647  0.00  0.00     0.026 C 
BRANCH  17  18
HETATM   18  C   UNK N   1      26.222  20.419   3.958  0.00  0.00     0.032 C 
BRANCH  18  19
HETATM   19  C   UNK N   1      25.580  19.266   3.175  0.00  0.00     0.272 C 
BRANCH  19  20
HETATM   20  N   UNK N   1      24.974  18.267   4.066  0.00  0.00     0.087 N 
BRANCH  20  21
HETATM   21  C   UNK N   1      25.247  16.920   3.547  0.00  0.00     0.268 C 
HETATM   22  C   UNK N   1      26.661  16.490   3.885  0.00  0.00     0.037 C 
ENDBRANCH  20  21
BRANCH  20  23
HETATM   23  C   UNK N   1      23.542  18.594   4.157  0.00  0.00     0.268 C 
HETATM   24  C   UNK N   1      22.822  18.066   5.393  0.00  0.00     0.037 C 
ENDBRANCH  20  23
ENDBRANCH  19  20
ENDBRANCH  18  19
ENDBRANCH  17  18
ENDBRANCH  15  17
ENDBRANCH  13  15
ENDBRANCH   4  13
TORSDOF 8
ENDMDL
MODEL 2
REMARK VINA RESULT:      -5.4     12.256     15.241
REMARK  8 active torsions:
REMARK  status: ('A' for Active; 'I' for Inactive)
REMARK    1  A    between atoms: N_2  and  C_9 
REMARK    2  A    between atoms: N_2  and  C_11 
REMARK    3  A    between atoms: N_2  and  C_12 
REMARK    4  A    between atoms: N_3  and  C_8 
REMARK    5  A    between atoms: N_3  and  C_13 
REMARK    6  A    between atoms: C_6  and  C_7 
REMARK    7  A    between atoms: C_6  and  C_8 
REMARK    8  A    between atoms: C_7  and  C_9 
ROOT
HETATM    1 Cl   UNK N   1      30.204  30.176  -8.407  0.00  0.00    -0.084 Cl
HETATM    2  N   UNK N   1      27.039  29.628  -4.428  0.00  0.00    -0.365 N 
ATOM      3  HN  UNK N   1      27.432  30.496  -4.064  1.00  0.00     0.165 HD
HETATM    4  C   UNK N   1      25.967  27.269  -5.410  0.00  0.00     0.042 A 
HETATM    5  C   UNK N   1      26.974  27.929  -6.126  0.00  0.00     0.017 A 
HETATM    6  C   UNK N   1      25.504  27.811  -4.209  0.00  0.00     0.047 A 
HETATM    7  C   UNK N   1      27.501  29.132  -5.606  0.00  0.00     0.046 A 
HETATM    8  C   UNK N   1      27.440  27.438  -7.352  0.00  0.00     0.018 A 
HETATM    9  C   UNK N   1      26.061  28.993  -3.724  0.00  0.00     0.090 A 
HETATM   10  C   UNK N   1      28.490  29.819  -6.314  0.00  0.00     0.054 A 
HETATM   11  C   UNK N   1      28.431  28.132  -8.053  0.00  0.00     0.025 A 
HETATM   12  C   UNK N   1      28.955  29.319  -7.533  0.00  0.00     0.036 A 
ENDROOT
BRANCH   4  13
HETATM   13  N   UNK N   1      25.344  26.125  -5.942  0.00  0.00    -0.385 N 
HETATM   14  H   UNK N   1      24.474  26.180  -6.400  0.00  0.00     0.160 HD
BRANCH  13  15
HETATM   15  C   UNK N   1      26.031  24.876  -5.789  0.00  0.00     0.077 C 
HETATM   16  C   UNK N   1      25.974  23.979  -7.015  0.00  0.00     0.032 C 
BRANCH  15  17
HETATM   17  C   UNK N   1      25.905  24.290  -4.385  0.00  0.00     0.026 C 
BRANCH  17  18
HETATM   18  C   UNK N   1      27.140  24.441  -3.519  0.00  0.00     0.032 C 
BRANCH  18  19
HETATM   19  C   UNK N   1      28.424  24.675  -4.324  0.00  0.00     0.272 C 
BRANCH  19  20
HETATM   20  N   UNK N   1      29.626  24.310  -3.560  0.00  0.00     0.087 N 
BRANCH  20  21
HETATM   21  C   UNK N   1      30.581  25.426  -3.589  0.00  0.00     0.268 C 
HETATM   22  C   UNK N   1      30.000  26.611  -4.336  0.00  0.00     0.037 C 
ENDBRANCH  20  21
BRANCH  20  23
HETATM   23  C   UNK N   1      30.142  23.065  -4.152  0.00  0.00     0.268 C 
HETATM   24  C   UNK N   1      29.561  22.692  -5.512  0.00  0.00     0.037 C 
ENDBRANCH  20  23
ENDBRANCH  19  20
ENDBRANCH  18  19
ENDBRANCH  17  18
ENDBRANCH  15  17
ENDBRANCH  13  15
ENDBRANCH   4  13
TORSDOF 8
ENDMDL
MODEL 3
REMARK VINA RESULT:      -5.3      6.444      8.330
REMARK  8 active torsions:
REMARK  status: ('A' for Active; 'I' for Inactive)
REMARK    1  A    between atoms: N_2  and  C_9 
REMARK    2  A    between atoms: N_2  and  C_11 
REMARK    3  A    between atoms: N_2  and  C_12 
REMARK    4  A    between atoms: N_3  and  C_8 
REMARK    5  A    between atoms: N_3  and  C_13 
REMARK    6  A    between atoms: C_6  and  C_7 
REMARK    7  A    between atoms: C_6  and  C_8 
REMARK    8  A    between atoms: C_7  and  C_9 
ROOT
HETATM    1 Cl   UNK N   1      22.956  11.570  13.184  0.00  0.00    -0.084 Cl
HETATM    2  N   UNK N   1      24.859  13.133   8.702  0.00  0.00    -0.365 N 
ATOM      3  HN  UNK N   1      25.785  12.986   9.105  1.00  0.00     0.165 HD
HETATM    4  C   UNK N   1      22.349  13.538   7.603  0.00  0.00     0.042 A 
HETATM    5  C   UNK N   1      22.467  13.088   8.924  0.00  0.00     0.017 A 
HETATM    6  C   UNK N   1      23.499  13.771   6.845  0.00  0.00     0.047 A 
HETATM    7  C   UNK N   1      23.759  12.886   9.460  0.00  0.00     0.046 A 
HETATM    8  C   UNK N   1      21.338  12.806   9.704  0.00  0.00     0.018 A 
HETATM    9  C   UNK N   1      24.754  13.573   7.418  0.00  0.00     0.090 A 
HETATM   10  C   UNK N   1      23.901  12.415  10.768  0.00  0.00     0.054 A 
HETATM   11  C   UNK N   1      21.491  12.338  11.012  0.00  0.00     0.025 A 
HETATM   12  C   UNK N   1      22.770  12.144  11.542  0.00  0.00     0.036 A 
ENDROOT
BRANCH   4  13
HETATM   13  N   UNK N   1      21.083  13.653   6.998  0.00  0.00    -0.385 N 
HETATM   14  H   UNK N   1      20.511  12.866   6.848  0.00  0.00     0.160 HD
BRANCH  13  15
HETATM   15  C   UNK N   1      20.661  14.968   6.611  0.00  0.00     0.077 C 
HETATM   16  C   UNK N   1      20.242  15.855   7.772  0.00  0.00     0.032 C 
BRANCH  15  17
HETATM   17  C   UNK N   1      19.891  14.987   5.293  0.00  0.00     0.026 C 
BRANCH  17  18
HETATM   18  C   UNK N   1      19.483  16.366   4.814  0.00  0.00     0.032 C 
BRANCH  18  19
HETATM   19  C   UNK N   1      20.045  16.721   3.431  0.00  0.00     0.272 C 
BRANCH  19  20
HETATM   20  N   UNK N   1      21.017  17.821   3.500  0.00  0.00     0.087 N 
BRANCH  20  21
HETATM   21  C   UNK N   1      21.165  18.256   4.896  0.00  0.00     0.268 C 
HETATM   22  C   UNK N   1      22.587  18.044   5.377  0.00  0.00     0.037 C 
ENDBRANCH  20  21
BRANCH  20  23
HETATM   23  C   UNK N   1      20.531  18.874   2.594  0.00  0.00     0.268 C 
HETATM   24  C   UNK N   1      20.501  20.282   3.176  0.00  0.00     0.037 C 
ENDBRANCH  20  23
ENDBRANCH  19  20
ENDBRANCH  18  19
ENDBRANCH  17  18
ENDBRANCH  15  17
ENDBRANCH  13  15
ENDBRANCH   4  13
TORSDOF 8
ENDMDL
MODEL 4
REMARK VINA RESULT:      -5.2      5.533      7.883
REMARK  8 active torsions:
REMARK  status: ('A' for Active; 'I' for Inactive)
REMARK    1  A    between atoms: N_2  and  C_9 
REMARK    2  A    between atoms: N_2  and  C_11 
REMARK    3  A    between atoms: N_2  and  C_12 
REMARK    4  A    between atoms: N_3  and  C_8 
REMARK    5  A    between atoms: N_3  and  C_13 
REMARK    6  A    between atoms: C_6  and  C_7 
REMARK    7  A    between atoms: C_6  and  C_8 
REMARK    8  A    between atoms: C_7  and  C_9 
ROOT
HETATM    1 Cl   UNK N   1      22.694  11.489  12.887  0.00  0.00    -0.084 Cl
HETATM    2  N   UNK N   1      21.642  13.974   8.543  0.00  0.00    -0.365 N 
ATOM      3  HN  UNK N   1      20.667  13.978   8.845  1.00  0.00     0.165 HD
HETATM    4  C   UNK N   1      24.286  13.966   7.718  0.00  0.00     0.042 A 
HETATM    5  C   UNK N   1      23.933  13.364   8.933  0.00  0.00     0.017 A 
HETATM    6  C   UNK N   1      23.303  14.574   6.935  0.00  0.00     0.047 A 
HETATM    7  C   UNK N   1      22.578  13.384   9.333  0.00  0.00     0.046 A 
HETATM    8  C   UNK N   1      24.894  12.776   9.764  0.00  0.00     0.018 A 
HETATM    9  C   UNK N   1      21.975  14.560   7.361  0.00  0.00     0.090 A 
HETATM   10  C   UNK N   1      22.205  12.811  10.551  0.00  0.00     0.054 A 
HETATM   11  C   UNK N   1      24.512  12.202  10.980  0.00  0.00     0.025 A 
HETATM   12  C   UNK N   1      23.170  12.219  11.371  0.00  0.00     0.036 A 
ENDROOT
BRANCH   4  13
HETATM   13  N   UNK N   1      25.637  14.057   7.333  0.00  0.00    -0.385 N 
HETATM   14  H   UNK N   1      26.362  14.073   7.999  0.00  0.00     0.160 HD
BRANCH  13  15
HETATM   15  C   UNK N   1      25.911  14.126   5.927  0.00  0.00     0.077 C 
HETATM   16  C   UNK N   1      26.116  12.773   5.265  0.00  0.00     0.032 C 
BRANCH  15  17
HETATM   17  C   UNK N   1      26.777  15.323   5.543  0.00  0.00     0.026 C 
BRANCH  17  18
HETATM   18  C   UNK N   1      27.122  16.253   6.690  0.00  0.00     0.032 C 
BRANCH  18  19
HETATM   19  C   UNK N   1      28.576  16.740   6.663  0.00  0.00     0.272 C 
BRANCH  19  20
HETATM   20  N   UNK N   1      28.702  18.120   7.153  0.00  0.00     0.087 N 
BRANCH  20  21
HETATM   21  C   UNK N   1      28.239  18.189   8.545  0.00  0.00     0.268 C 
HETATM   22  C   UNK N   1      29.389  18.515   9.479  0.00  0.00     0.037 C 
ENDBRANCH  20  21
BRANCH  20  23
HETATM   23  C   UNK N   1      27.938  18.970   6.226  0.00  0.00     0.268 C 
HETATM   24  C   UNK N   1      27.406  20.272   6.812  0.00  0.00     0.037 C 
ENDBRANCH  20  23
ENDBRANCH  19  20
ENDBRANCH  18  19
ENDBRANCH  17  18
ENDBRANCH  15  17
ENDBRANCH  13  15
ENDBRANCH   4  13
TORSDOF 8
ENDMDL
MODEL 5
REMARK VINA RESULT:      -5.1     12.713     15.062
REMARK  8 active torsions:
REMARK  status: ('A' for Active; 'I' for Inactive)
REMARK    1  A    between atoms: N_2  and  C_9 
REMARK    2  A    between atoms: N_2  and  C_11 
REMARK    3  A    between atoms: N_2  and  C_12 
REMARK    4  A    between atoms: N_3  and  C_8 
REMARK    5  A    between atoms: N_3  and  C_13 
REMARK    6  A    between atoms: C_6  and  C_7 
REMARK    7  A    between atoms: C_6  and  C_8 
REMARK    8  A    between atoms: C_7  and  C_9 
ROOT
HETATM    1 Cl   UNK N   1      25.775  25.624  -9.486  0.00  0.00    -0.084 Cl
HETATM    2  N   UNK N   1      25.236  27.485  -4.753  0.00  0.00    -0.365 N 
ATOM      3  HN  UNK N   1      24.291  27.101  -4.768  1.00  0.00     0.165 HD
HETATM    4  C   UNK N   1      27.800  28.532  -4.708  0.00  0.00     0.042 A 
HETATM    5  C   UNK N   1      27.340  27.863  -5.849  0.00  0.00     0.017 A 
HETATM    6  C   UNK N   1      26.965  28.658  -3.596  0.00  0.00     0.047 A 
HETATM    7  C   UNK N   1      26.030  27.335  -5.846  0.00  0.00     0.046 A 
HETATM    8  C   UNK N   1      28.160  27.683  -6.971  0.00  0.00     0.018 A 
HETATM    9  C   UNK N   1      25.673  28.135  -3.639  0.00  0.00     0.090 A 
HETATM   10  C   UNK N   1      25.557  26.644  -6.965  0.00  0.00     0.054 A 
HETATM   11  C   UNK N   1      27.677  26.992  -8.086  0.00  0.00     0.025 A 
HETATM   12  C   UNK N   1      26.378  26.476  -8.083  0.00  0.00     0.036 A 
ENDROOT
BRANCH   4  13
HETATM   13  N   UNK N   1      29.132  28.982  -4.631  0.00  0.00    -0.385 N 
HETATM   14  H   UNK N   1      29.472  29.685  -5.232  0.00  0.00     0.160 HD
BRANCH  13  15
HETATM   15  C   UNK N   1      29.971  28.373  -3.641  0.00  0.00     0.077 C 
HETATM   16  C   UNK N   1      30.594  29.355  -2.663  0.00  0.00     0.032 C 
BRANCH  15  17
HETATM   17  C   UNK N   1      30.772  27.190  -4.180  0.00  0.00     0.026 C 
BRANCH  17  18
HETATM   18  C   UNK N   1      30.258  25.828  -3.758  0.00  0.00     0.032 C 
BRANCH  18  19
HETATM   19  C   UNK N   1      29.977  24.890  -4.939  0.00  0.00     0.272 C 
BRANCH  19  20
HETATM   20  N   UNK N   1      28.538  24.657  -5.125  0.00  0.00     0.087 N 
BRANCH  20  21
HETATM   21  C   UNK N   1      27.836  24.898  -3.857  0.00  0.00     0.268 C 
HETATM   22  C   UNK N   1      26.500  24.182  -3.838  0.00  0.00     0.037 C 
ENDBRANCH  20  21
BRANCH  20  23
HETATM   23  C   UNK N   1      28.394  23.285  -5.637  0.00  0.00     0.268 C 
HETATM   24  C   UNK N   1      27.939  23.166  -7.087  0.00  0.00     0.037 C 
ENDBRANCH  20  23
ENDBRANCH  19  20
ENDBRANCH  18  19
ENDBRANCH  17  18
ENDBRANCH  15  17
ENDBRANCH  13  15
ENDBRANCH   4  13
TORSDOF 8
ENDMDL
MODEL 6
REMARK VINA RESULT:      -5.1      3.025      6.043
REMARK  8 active torsions:
REMARK  status: ('A' for Active; 'I' for Inactive)
REMARK    1  A    between atoms: N_2  and  C_9 
REMARK    2  A    between atoms: N_2  and  C_11 
REMARK    3  A    between atoms: N_2  and  C_12 
REMARK    4  A    between atoms: N_3  and  C_8 
REMARK    5  A    between atoms: N_3  and  C_13 
REMARK    6  A    between atoms: C_6  and  C_7 
REMARK    7  A    between atoms: C_6  and  C_8 
REMARK    8  A    between atoms: C_7  and  C_9 
ROOT
HETATM    1 Cl   UNK N   1      29.555  18.431  10.128  0.00  0.00    -0.084 Cl
HETATM    2  N   UNK N   1      26.713  19.903   6.140  0.00  0.00    -0.365 N 
ATOM      3  HN  UNK N   1      26.210  20.507   6.790  1.00  0.00     0.165 HD
HETATM    4  C   UNK N   1      28.071  18.261   4.370  0.00  0.00     0.042 A 
HETATM    5  C   UNK N   1      28.429  18.274   5.724  0.00  0.00     0.017 A 
HETATM    6  C   UNK N   1      27.037  19.084   3.919  0.00  0.00     0.047 A 
HETATM    7  C   UNK N   1      27.723  19.122   6.606  0.00  0.00     0.046 A 
HETATM    8  C   UNK N   1      29.485  17.491   6.208  0.00  0.00     0.018 A 
HETATM    9  C   UNK N   1      26.356  19.896   4.826  0.00  0.00     0.090 A 
HETATM   10  C   UNK N   1      28.078  19.169   7.956  0.00  0.00     0.054 A 
HETATM   11  C   UNK N   1      29.831  17.543   7.561  0.00  0.00     0.025 A 
HETATM   12  C   UNK N   1      29.127  18.379   8.433  0.00  0.00     0.036 A 
ENDROOT
BRANCH   4  13
HETATM   13  N   UNK N   1      28.815  17.508   3.441  0.00  0.00    -0.385 N 
HETATM   14  H   UNK N   1      29.646  17.858   3.044  0.00  0.00     0.160 HD
BRANCH  13  15
HETATM   15  C   UNK N   1      28.311  16.210   3.099  0.00  0.00     0.077 C 
HETATM   16  C   UNK N   1      27.060  15.807   3.863  0.00  0.00     0.032 C 
BRANCH  15  17
HETATM   17  C   UNK N   1      29.414  15.195   2.813  0.00  0.00     0.026 C 
BRANCH  17  18
HETATM   18  C   UNK N   1      30.058  14.590   4.045  0.00  0.00     0.032 C 
BRANCH  18  19
HETATM   19  C   UNK N   1      31.514  15.027   4.249  0.00  0.00     0.272 C 
BRANCH  19  20
HETATM   20  N   UNK N   1      32.208  15.240   2.971  0.00  0.00     0.087 N 
BRANCH  20  21
HETATM   21  C   UNK N   1      32.986  14.041   2.632  0.00  0.00     0.268 C 
HETATM   22  C   UNK N   1      34.422  14.181   3.101  0.00  0.00     0.037 C 
ENDBRANCH  20  21
BRANCH  20  23
HETATM   23  C   UNK N   1      33.022  16.456   3.128  0.00  0.00     0.268 C 
HETATM   24  C   UNK N   1      32.437  17.526   4.042  0.00  0.00     0.037 C 
ENDBRANCH  20  23
ENDBRANCH  19  20
ENDBRANCH  18  19
ENDBRANCH  17  18
ENDBRANCH  15  17
ENDBRANCH  13  15
ENDBRANCH   4  13
TORSDOF 8
ENDMDL
MODEL 7
REMARK VINA RESULT:      -5.0      3.929      8.450
REMARK  8 active torsions:
REMARK  status: ('A' for Active; 'I' for Inactive)
REMARK    1  A    between atoms: N_2  and  C_9 
REMARK    2  A    between atoms: N_2  and  C_11 
REMARK    3  A    between atoms: N_2  and  C_12 
REMARK    4  A    between atoms: N_3  and  C_8 
REMARK    5  A    between atoms: N_3  and  C_13 
REMARK    6  A    between atoms: C_6  and  C_7 
REMARK    7  A    between atoms: C_6  and  C_8 
REMARK    8  A    between atoms: C_7  and  C_9 
ROOT
HETATM    1 Cl   UNK N   1      25.958  16.221   4.930  0.00  0.00    -0.084 Cl
HETATM    2  N   UNK N   1      28.619  18.451   8.685  0.00  0.00    -0.365 N 
ATOM      3  HN  UNK N   1      27.741  18.875   8.983  1.00  0.00     0.165 HD
HETATM    4  C   UNK N   1      31.009  17.306   7.879  0.00  0.00     0.042 A 
HETATM    5  C   UNK N   1      29.835  17.047   7.161  0.00  0.00     0.017 A 
HETATM    6  C   UNK N   1      30.965  18.133   9.003  0.00  0.00     0.047 A 
HETATM    7  C   UNK N   1      28.628  17.641   7.594  0.00  0.00     0.046 A 
HETATM    8  C   UNK N   1      29.830  16.193   6.050  0.00  0.00     0.018 A 
HETATM    9  C   UNK N   1      29.756  18.710   9.389  0.00  0.00     0.090 A 
HETATM   10  C   UNK N   1      27.440  17.379   6.907  0.00  0.00     0.054 A 
HETATM   11  C   UNK N   1      28.638  15.939   5.368  0.00  0.00     0.025 A 
HETATM   12  C   UNK N   1      27.446  16.532   5.795  0.00  0.00     0.036 A 
ENDROOT
BRANCH   4  13
HETATM   13  N   UNK N   1      32.211  16.654   7.543  0.00  0.00    -0.385 N 
HETATM   14  H   UNK N   1      32.314  15.680   7.646  0.00  0.00     0.160 HD
BRANCH  13  15
HETATM   15  C   UNK N   1      33.279  17.470   7.044  0.00  0.00     0.077 C 
HETATM   16  C   UNK N   1      33.385  17.499   5.528  0.00  0.00     0.032 C 
BRANCH  15  17
HETATM   17  C   UNK N   1      34.532  17.417   7.915  0.00  0.00     0.026 C 
BRANCH  17  18
HETATM   18  C   UNK N   1      34.418  16.531   9.140  0.00  0.00     0.032 C 
BRANCH  18  19
HETATM   19  C   UNK N   1      35.299  15.278   9.070  0.00  0.00     0.272 C 
BRANCH  19  20
HETATM   20  N   UNK N   1      36.388  15.316  10.057  0.00  0.00     0.087 N 
BRANCH  20  21
HETATM   21  C   UNK N   1      36.986  13.979  10.175  0.00  0.00     0.268 C 
HETATM   22  C   UNK N   1      38.431  13.994   9.716  0.00  0.00     0.037 C 
ENDBRANCH  20  21
BRANCH  20  23
HETATM   23  C   UNK N   1      35.807  15.824  11.309  0.00  0.00     0.268 C 
HETATM   24  C   UNK N   1      35.847  14.864  12.492  0.00  0.00     0.037 C 
ENDBRANCH  20  23
ENDBRANCH  19  20
ENDBRANCH  18  19
ENDBRANCH  17  18
ENDBRANCH  15  17
ENDBRANCH  13  15
ENDBRANCH   4  13
TORSDOF 8
ENDMDL
MODEL 8
REMARK VINA RESULT:      -5.0      8.542     11.770
REMARK  8 active torsions:
REMARK  status: ('A' for Active; 'I' for Inactive)
REMARK    1  A    between atoms: N_2  and  C_9 
REMARK    2  A    between atoms: N_2  and  C_11 
REMARK    3  A    between atoms: N_2  and  C_12 
REMARK    4  A    between atoms: N_3  and  C_8 
REMARK    5  A    between atoms: N_3  and  C_13 
REMARK    6  A    between atoms: C_6  and  C_7 
REMARK    7  A    between atoms: C_6  and  C_8 
REMARK    8  A    between atoms: C_7  and  C_9 
ROOT
HETATM    1 Cl   UNK N   1      34.989  11.393  18.954  0.00  0.00    -0.084 Cl
HETATM    2  N   UNK N   1      37.100   9.852  14.558  0.00  0.00    -0.365 N 
ATOM      3  HN  UNK N   1      37.121   8.914  14.960  1.00  0.00     0.165 HD
HETATM    4  C   UNK N   1      37.047  12.396  13.463  0.00  0.00     0.042 A 
HETATM    5  C   UNK N   1      36.570  12.186  14.763  0.00  0.00     0.017 A 
HETATM    6  C   UNK N   1      37.538  11.317  12.724  0.00  0.00     0.047 A 
HETATM    7  C   UNK N   1      36.604  10.879  15.298  0.00  0.00     0.046 A 
HETATM    8  C   UNK N   1      36.034  13.234  15.523  0.00  0.00     0.018 A 
HETATM    9  C   UNK N   1      37.567  10.046  13.294  0.00  0.00     0.090 A 
HETATM   10  C   UNK N   1      36.113  10.642  16.584  0.00  0.00     0.054 A 
HETATM   11  C   UNK N   1      35.547  12.988  16.810  0.00  0.00     0.025 A 
HETATM   12  C   UNK N   1      35.588  11.694  17.338  0.00  0.00     0.036 A 
ENDROOT
BRANCH   4  13
HETATM   13  N   UNK N   1      36.935  13.661  12.856  0.00  0.00    -0.385 N 
HETATM   14  H   UNK N   1      37.322  14.466  13.271  0.00  0.00     0.160 HD
BRANCH  13  15
HETATM   15  C   UNK N   1      36.235  13.727  11.607  0.00  0.00     0.077 C 
HETATM   16  C   UNK N   1      37.117  14.057  10.415  0.00  0.00     0.032 C 
BRANCH  15  17
HETATM   17  C   UNK N   1      34.836  14.326  11.735  0.00  0.00     0.026 C 
BRANCH  17  18
HETATM   18  C   UNK N   1      34.445  15.273  10.618  0.00  0.00     0.032 C 
BRANCH  18  19
HETATM   19  C   UNK N   1      33.265  14.769   9.777  0.00  0.00     0.272 C 
BRANCH  19  20
HETATM   20  N   UNK N   1      33.298  15.303   8.408  0.00  0.00     0.087 N 
BRANCH  20  21
HETATM   21  C   UNK N   1      34.641  15.824   8.119  0.00  0.00     0.268 C 
HETATM   22  C   UNK N   1      35.305  15.019   7.019  0.00  0.00     0.037 C 
ENDBRANCH  20  21
BRANCH  20  23
HETATM   23  C   UNK N   1      32.233  16.315   8.322  0.00  0.00     0.268 C 
HETATM   24  C   UNK N   1      32.692  17.765   8.427  0.00  0.00     0.037 C 
ENDBRANCH  20  23
ENDBRANCH  19  20
ENDBRANCH  18  19
ENDBRANCH  17  18
ENDBRANCH  15  17
ENDBRANCH  13  15
ENDBRANCH   4  13
TORSDOF 8
ENDMDL
MODEL 9
REMARK VINA RESULT:      -4.9      6.880     11.379
REMARK  8 active torsions:
REMARK  status: ('A' for Active; 'I' for Inactive)
REMARK    1  A    between atoms: N_2  and  C_9 
REMARK    2  A    between atoms: N_2  and  C_11 
REMARK    3  A    between atoms: N_2  and  C_12 
REMARK    4  A    between atoms: N_3  and  C_8 
REMARK    5  A    between atoms: N_3  and  C_13 
REMARK    6  A    between atoms: C_6  and  C_7 
REMARK    7  A    between atoms: C_6  and  C_8 
REMARK    8  A    between atoms: C_7  and  C_9 
ROOT
HETATM    1 Cl   UNK N   1      31.467  16.715   5.858  0.00  0.00    -0.084 Cl
HETATM    2  N   UNK N   1      34.599  17.119   9.879  0.00  0.00    -0.365 N 
ATOM      3  HN  UNK N   1      34.644  18.118   9.676  1.00  0.00     0.165 HD
HETATM    4  C   UNK N   1      34.486  14.408  10.435  0.00  0.00     0.042 A 
HETATM    5  C   UNK N   1      33.778  14.926   9.343  0.00  0.00     0.017 A 
HETATM    6  C   UNK N   1      35.238  15.264  11.242  0.00  0.00     0.047 A 
HETATM    7  C   UNK N   1      33.849  16.313   9.083  0.00  0.00     0.046 A 
HETATM    8  C   UNK N   1      32.982  14.107   8.532  0.00  0.00     0.018 A 
HETATM    9  C   UNK N   1      35.292  16.625  10.942  0.00  0.00     0.090 A 
HETATM   10  C   UNK N   1      33.133  16.856   8.014  0.00  0.00     0.054 A 
HETATM   11  C   UNK N   1      32.271  14.659   7.463  0.00  0.00     0.025 A 
HETATM   12  C   UNK N   1      32.348  16.031   7.204  0.00  0.00     0.036 A 
ENDROOT
BRANCH   4  13
HETATM   13  N   UNK N   1      34.359  13.051  10.789  0.00  0.00    -0.385 N 
HETATM   14  H   UNK N   1      33.482  12.651  10.988  0.00  0.00     0.160 HD
BRANCH  13  15
HETATM   15  C   UNK N   1      35.565  12.277  10.848  0.00  0.00     0.077 C 
HETATM   16  C   UNK N   1      35.968  11.650   9.524  0.00  0.00     0.032 C 
BRANCH  15  17
HETATM   17  C   UNK N   1      35.719  11.507  12.157  0.00  0.00     0.026 C 
BRANCH  17  18
HETATM   18  C   UNK N   1      36.377  12.284  13.280  0.00  0.00     0.032 C 
BRANCH  18  19
HETATM   19  C   UNK N   1      36.839  11.400  14.445  0.00  0.00     0.272 C 
BRANCH  19  20
HETATM   20  N   UNK N   1      35.861  11.380  15.542  0.00  0.00     0.087 N 
BRANCH  20  21
HETATM   21  C   UNK N   1      34.924  10.267  15.339  0.00  0.00     0.268 C 
HETATM   22  C   UNK N   1      33.543  10.784  14.983  0.00  0.00     0.037 C 
ENDBRANCH  20  21
BRANCH  20  23
HETATM   23  C   UNK N   1      35.220  12.705  15.561  0.00  0.00     0.268 C 
HETATM   24  C   UNK N   1      34.976  13.297  16.944  0.00  0.00     0.037 C 
ENDBRANCH  20  23
ENDBRANCH  19  20
ENDBRANCH  18  19
ENDBRANCH  17  18
ENDBRANCH  15  17
ENDBRANCH  13  15
ENDBRANCH   4  13
TORSDOF 8
ENDMDL
