MODEL 1
REMARK VINA RESULT:      -5.1      0.000      0.000
REMARK  5 active torsions:
REMARK  status: ('A' for Active; 'I' for Inactive)
REMARK    1  A    between atoms: N_3  and  C_9 
REMARK       I    between atoms: N_4  and  C_13 
REMARK    2  A    between atoms: C_5  and  C_8 
REMARK    3  A    between atoms: C_8  and  C_11 
REMARK    4  A    between atoms: C_9  and  C_12 
REMARK    5  A    between atoms: C_9  and  C_13 
ROOT
HETATM    1  O   UNK N   1      35.426  17.934   9.805  0.00  0.00    -0.273 OA
HETATM    2  N   UNK N   1      34.223  16.036   9.480  0.00  0.00    -0.338 N 
HETATM    3  C   UNK N   1      34.972  14.811  11.281  0.00  0.00     0.012 A 
HETATM    4  C   UNK N   1      34.049  14.758  10.100  0.00  0.00     0.132 A 
HETATM    5  C   UNK N   1      35.706  16.150  11.358  0.00  0.00     0.109 A 
HETATM    6  C   UNK N   1      35.118  16.802  10.151  0.00  0.00     0.221 A 
ENDROOT
BRANCH   2   7
HETATM    7  C   UNK N   1      33.484  16.404   8.263  0.00  0.00     0.178 C 
BRANCH   7   8
HETATM    8  C   UNK N   1      31.950  16.523   8.373  0.00  0.00     0.030 C 
HETATM    9  C   UNK N   1      31.400  17.923   8.571  0.00  0.00     0.007 C 
ENDBRANCH   7   8
BRANCH   7  10
HETATM   10  C   UNK N   1      34.279  16.645   6.966  0.00  0.00     0.238 C 
HETATM   11  O   UNK N   1      34.428  17.773   6.525  0.00  0.00    -0.271 OA
HETATM   12  N   UNK N   1      34.827  15.619   6.291  0.00  0.00    -0.368 N 
HETATM   13  H   UNK N   1      35.332  15.788   5.463  0.00  0.00     0.159 HD
HETATM   14  H   UNK N   1      34.723  14.698   6.624  0.00  0.00     0.159 HD
ENDBRANCH   7  10
ENDBRANCH   2   7
BRANCH   3  15
HETATM   15  C   UNK N   1      35.028  13.587  12.169  0.00  0.00     0.006 C 
BRANCH  15  16
HETATM   16  C   UNK N   1      36.359  13.358  12.831  0.00  0.00    -0.004 C 
HETATM   17  C   UNK N   1      36.227  13.831  14.263  0.00  0.00     0.005 C 
ENDBRANCH  15  16
ENDBRANCH   3  15
TORSDOF 5
ENDMDL
MODEL 2
REMARK VINA RESULT:      -5.1      4.074      7.365
REMARK  5 active torsions:
REMARK  status: ('A' for Active; 'I' for Inactive)
REMARK    1  A    between atoms: N_3  and  C_9 
REMARK       I    between atoms: N_4  and  C_13 
REMARK    2  A    between atoms: C_5  and  C_8 
REMARK    3  A    between atoms: C_8  and  C_11 
REMARK    4  A    between atoms: C_9  and  C_12 
REMARK    5  A    between atoms: C_9  and  C_13 
ROOT
HETATM    1  O   UNK N   1      29.940  18.786   9.945  0.00  0.00    -0.273 OA
HETATM    2  N   UNK N   1      30.399  17.616   8.054  0.00  0.00    -0.338 N 
HETATM    3  C   UNK N   1      28.440  17.995   6.901  0.00  0.00     0.012 A 
HETATM    4  C   UNK N   1      29.767  17.301   6.809  0.00  0.00     0.132 A 
HETATM    5  C   UNK N   1      28.287  18.735   8.230  0.00  0.00     0.109 A 
HETATM    6  C   UNK N   1      29.608  18.393   8.835  0.00  0.00     0.221 A 
ENDROOT
BRANCH   2   7
HETATM    7  C   UNK N   1      31.745  17.122   8.376  0.00  0.00     0.178 C 
BRANCH   7   8
HETATM    8  C   UNK N   1      32.923  18.101   8.195  0.00  0.00     0.030 C 
HETATM    9  C   UNK N   1      34.009  17.669   7.227  0.00  0.00     0.007 C 
ENDBRANCH   7   8
BRANCH   7  10
HETATM   10  C   UNK N   1      31.895  15.671   8.871  0.00  0.00     0.238 C 
HETATM   11  O   UNK N   1      32.110  14.762   8.085  0.00  0.00    -0.271 OA
HETATM   12  N   UNK N   1      31.793  15.373  10.178  0.00  0.00    -0.368 N 
HETATM   13  H   UNK N   1      31.892  14.440  10.480  0.00  0.00     0.159 HD
HETATM   14  H   UNK N   1      31.620  16.086  10.835  0.00  0.00     0.159 HD
ENDBRANCH   7  10
ENDBRANCH   2   7
BRANCH   3  15
HETATM   15  C   UNK N   1      27.506  17.859   5.719  0.00  0.00     0.006 C 
BRANCH  15  16
HETATM   16  C   UNK N   1      27.998  18.512   4.457  0.00  0.00    -0.004 C 
HETATM   17  C   UNK N   1      27.891  20.008   4.665  0.00  0.00     0.005 C 
ENDBRANCH  15  16
ENDBRANCH   3  15
TORSDOF 5
ENDMDL
MODEL 3
REMARK VINA RESULT:      -5.0      2.737      4.712
REMARK  5 active torsions:
REMARK  status: ('A' for Active; 'I' for Inactive)
REMARK    1  A    between atoms: N_3  and  C_9 
REMARK       I    between atoms: N_4  and  C_13 
REMARK    2  A    between atoms: C_5  and  C_8 
REMARK    3  A    between atoms: C_8  and  C_11 
REMARK    4  A    between atoms: C_9  and  C_12 
REMARK    5  A    between atoms: C_9  and  C_13 
ROOT
HETATM    1  O   UNK N   1      34.705  12.337  11.032  0.00  0.00    -0.273 OA
HETATM    2  N   UNK N   1      35.832  14.040  12.026  0.00  0.00    -0.338 N 
HETATM    3  C   UNK N   1      35.676  13.356  14.220  0.00  0.00     0.012 A 
HETATM    4  C   UNK N   1      36.222  14.443  13.342  0.00  0.00     0.132 A 
HETATM    5  C   UNK N   1      34.947  12.289  13.402  0.00  0.00     0.109 A 
HETATM    6  C   UNK N   1      35.140  12.874  12.042  0.00  0.00     0.221 A 
ENDROOT
BRANCH   2   7
HETATM    7  C   UNK N   1      36.176  14.845  10.845  0.00  0.00     0.178 C 
BRANCH   7   8
HETATM    8  C   UNK N   1      37.304  14.319   9.932  0.00  0.00     0.030 C 
HETATM    9  C   UNK N   1      38.305  13.380  10.577  0.00  0.00     0.007 C 
ENDBRANCH   7   8
BRANCH   7  10
HETATM   10  C   UNK N   1      35.399  16.151  10.594  0.00  0.00     0.238 C 
HETATM   11  O   UNK N   1      35.963  17.232  10.643  0.00  0.00    -0.271 OA
HETATM   12  N   UNK N   1      34.084  16.129  10.316  0.00  0.00    -0.368 N 
HETATM   13  H   UNK N   1      33.600  16.972  10.158  0.00  0.00     0.159 HD
HETATM   14  H   UNK N   1      33.603  15.270  10.270  0.00  0.00     0.159 HD
ENDBRANCH   7  10
ENDBRANCH   2   7
BRANCH   3  15
HETATM   15  C   UNK N   1      35.920  13.481  15.708  0.00  0.00     0.006 C 
BRANCH  15  16
HETATM   16  C   UNK N   1      34.704  13.251  16.561  0.00  0.00    -0.004 C 
HETATM   17  C   UNK N   1      35.175  13.203  17.998  0.00  0.00     0.005 C 
ENDBRANCH  15  16
ENDBRANCH   3  15
TORSDOF 5
ENDMDL
MODEL 4
REMARK VINA RESULT:      -5.0     11.120     13.350
REMARK  5 active torsions:
REMARK  status: ('A' for Active; 'I' for Inactive)
REMARK    1  A    between atoms: N_3  and  C_9 
REMARK       I    between atoms: N_4  and  C_13 
REMARK    2  A    between atoms: C_5  and  C_8 
REMARK    3  A    between atoms: C_8  and  C_11 
REMARK    4  A    between atoms: C_9  and  C_12 
REMARK    5  A    between atoms: C_9  and  C_13 
ROOT
HETATM    1  O   UNK N   1      22.954  20.897   2.176  0.00  0.00    -0.273 OA
HETATM    2  N   UNK N   1      23.273  19.315   3.773  0.00  0.00    -0.338 N 
HETATM    3  C   UNK N   1      25.570  19.408   3.931  0.00  0.00     0.012 A 
HETATM    4  C   UNK N   1      24.360  18.714   4.484  0.00  0.00     0.132 A 
HETATM    5  C   UNK N   1      25.187  20.440   2.870  0.00  0.00     0.109 A 
HETATM    6  C   UNK N   1      23.706  20.252   2.894  0.00  0.00     0.221 A 
ENDROOT
BRANCH   2   7
HETATM    7  C   UNK N   1      21.882  18.912   4.019  0.00  0.00     0.178 C 
BRANCH   7   8
HETATM    8  C   UNK N   1      21.647  17.706   4.953  0.00  0.00     0.030 C 
HETATM    9  C   UNK N   1      21.266  18.032   6.385  0.00  0.00     0.007 C 
ENDBRANCH   7   8
BRANCH   7  10
HETATM   10  C   UNK N   1      20.754  19.709   3.338  0.00  0.00     0.238 C 
HETATM   11  O   UNK N   1      20.254  20.678   3.887  0.00  0.00    -0.271 OA
HETATM   12  N   UNK N   1      20.296  19.358   2.124  0.00  0.00    -0.368 N 
HETATM   13  H   UNK N   1      19.574  19.877   1.700  0.00  0.00     0.159 HD
HETATM   14  H   UNK N   1      20.681  18.580   1.657  0.00  0.00     0.159 HD
ENDBRANCH   7  10
ENDBRANCH   2   7
BRANCH   3  15
HETATM   15  C   UNK N   1      26.916  18.996   4.484  0.00  0.00     0.006 C 
BRANCH  15  16
HETATM   16  C   UNK N   1      27.856  20.138   4.754  0.00  0.00    -0.004 C 
HETATM   17  C   UNK N   1      27.288  20.909   5.926  0.00  0.00     0.005 C 
ENDBRANCH  15  16
ENDBRANCH   3  15
TORSDOF 5
ENDMDL
MODEL 5
REMARK VINA RESULT:      -5.0      2.462      5.669
REMARK  5 active torsions:
REMARK  status: ('A' for Active; 'I' for Inactive)
REMARK    1  A    between atoms: N_3  and  C_9 
REMARK       I    between atoms: N_4  and  C_13 
REMARK    2  A    between atoms: C_5  and  C_8 
REMARK    3  A    between atoms: C_8  and  C_11 
REMARK    4  A    between atoms: C_9  and  C_12 
REMARK    5  A    between atoms: C_9  and  C_13 
ROOT
HETATM    1  O   UNK N   1      34.489  16.873   6.076  0.00  0.00    -0.273 OA
HETATM    2  N   UNK N   1      33.258  16.487   7.944  0.00  0.00    -0.338 N 
HETATM    3  C   UNK N   1      31.183  17.100   7.152  0.00  0.00     0.012 A 
HETATM    4  C   UNK N   1      31.895  16.587   8.369  0.00  0.00     0.132 A 
HETATM    5  C   UNK N   1      32.148  17.307   5.985  0.00  0.00     0.109 A 
HETATM    6  C   UNK N   1      33.411  16.874   6.654  0.00  0.00     0.221 A 
ENDROOT
BRANCH   2   7
HETATM    7  C   UNK N   1      34.310  16.014   8.854  0.00  0.00     0.178 C 
BRANCH   7   8
HETATM    8  C   UNK N   1      34.700  14.523   8.774  0.00  0.00     0.030 C 
HETATM    9  C   UNK N   1      36.163  14.227   8.502  0.00  0.00     0.007 C 
ENDBRANCH   7   8
BRANCH   7  10
HETATM   10  C   UNK N   1      34.954  17.024   9.822  0.00  0.00     0.238 C 
HETATM   11  O   UNK N   1      35.352  18.106   9.422  0.00  0.00    -0.271 OA
HETATM   12  N   UNK N   1      35.091  16.737  11.129  0.00  0.00    -0.368 N 
HETATM   13  H   UNK N   1      35.505  17.393  11.736  0.00  0.00     0.159 HD
HETATM   14  H   UNK N   1      34.779  15.871  11.479  0.00  0.00     0.159 HD
ENDBRANCH   7  10
ENDBRANCH   2   7
BRANCH   3  15
HETATM   15  C   UNK N   1      29.691  17.322   7.267  0.00  0.00     0.006 C 
BRANCH  15  16
HETATM   16  C   UNK N   1      29.290  18.347   8.291  0.00  0.00    -0.004 C 
HETATM   17  C   UNK N   1      28.302  17.679   9.222  0.00  0.00     0.005 C 
ENDBRANCH  15  16
ENDBRANCH   3  15
TORSDOF 5
ENDMDL
MODEL 6
REMARK VINA RESULT:      -5.0     11.163     13.530
REMARK  5 active torsions:
REMARK  status: ('A' for Active; 'I' for Inactive)
REMARK    1  A    between atoms: N_3  and  C_9 
REMARK       I    between atoms: N_4  and  C_13 
REMARK    2  A    between atoms: C_5  and  C_8 
REMARK    3  A    between atoms: C_8  and  C_11 
REMARK    4  A    between atoms: C_9  and  C_12 
REMARK    5  A    between atoms: C_9  and  C_13 
ROOT
HETATM    1  O   UNK N   1      41.082  19.825   3.816  0.00  0.00    -0.273 OA
HETATM    2  N   UNK N   1      42.488  21.243   2.736  0.00  0.00    -0.338 N 
HETATM    3  C   UNK N   1      40.970  22.290   1.356  0.00  0.00     0.012 A 
HETATM    4  C   UNK N   1      42.423  22.252   1.724  0.00  0.00     0.132 A 
HETATM    5  C   UNK N   1      40.160  21.279   2.170  0.00  0.00     0.109 A 
HETATM    6  C   UNK N   1      41.269  20.706   2.988  0.00  0.00     0.221 A 
ENDROOT
BRANCH   2   7
HETATM    7  C   UNK N   1      43.760  20.885   3.380  0.00  0.00     0.178 C 
BRANCH   7   8
HETATM    8  C   UNK N   1      44.329  19.479   3.094  0.00  0.00     0.030 C 
HETATM    9  C   UNK N   1      44.408  19.073   1.634  0.00  0.00     0.007 C 
ENDBRANCH   7   8
BRANCH   7  10
HETATM   10  C   UNK N   1      44.440  21.923   4.291  0.00  0.00     0.238 C 
HETATM   11  O   UNK N   1      43.804  22.513   5.149  0.00  0.00    -0.271 OA
HETATM   12  N   UNK N   1      45.749  22.203   4.163  0.00  0.00    -0.368 N 
HETATM   13  H   UNK N   1      46.171  22.870   4.753  0.00  0.00     0.159 HD
HETATM   14  H   UNK N   1      46.287  21.742   3.479  0.00  0.00     0.159 HD
ENDBRANCH   7  10
ENDBRANCH   2   7
BRANCH   3  15
HETATM   15  C   UNK N   1      40.553  23.276   0.287  0.00  0.00     0.006 C 
BRANCH  15  16
HETATM   16  C   UNK N   1      40.688  24.720   0.684  0.00  0.00    -0.004 C 
HETATM   17  C   UNK N   1      41.612  25.370  -0.323  0.00  0.00     0.005 C 
ENDBRANCH  15  16
ENDBRANCH   3  15
TORSDOF 5
ENDMDL
MODEL 7
REMARK VINA RESULT:      -5.0     16.396     19.278
REMARK  5 active torsions:
REMARK  status: ('A' for Active; 'I' for Inactive)
REMARK    1  A    between atoms: N_3  and  C_9 
REMARK       I    between atoms: N_4  and  C_13 
REMARK    2  A    between atoms: C_5  and  C_8 
REMARK    3  A    between atoms: C_8  and  C_11 
REMARK    4  A    between atoms: C_9  and  C_12 
REMARK    5  A    between atoms: C_9  and  C_13 
ROOT
HETATM    1  O   UNK N   1      24.936  25.600  -5.715  0.00  0.00    -0.273 OA
HETATM    2  N   UNK N   1      26.938  26.317  -4.920  0.00  0.00    -0.338 N 
HETATM    3  C   UNK N   1      27.951  24.277  -4.575  0.00  0.00     0.012 A 
HETATM    4  C   UNK N   1      28.170  25.757  -4.455  0.00  0.00     0.132 A 
HETATM    5  C   UNK N   1      26.560  23.960  -5.123  0.00  0.00     0.109 A 
HETATM    6  C   UNK N   1      26.055  25.355  -5.286  0.00  0.00     0.221 A 
ENDROOT
BRANCH   2   7
HETATM    7  C   UNK N   1      26.728  27.771  -4.967  0.00  0.00     0.178 C 
BRANCH   7   8
HETATM    8  C   UNK N   1      27.203  28.516  -6.232  0.00  0.00     0.030 C 
HETATM    9  C   UNK N   1      28.537  29.231  -6.128  0.00  0.00     0.007 C 
ENDBRANCH   7   8
BRANCH   7  10
HETATM   10  C   UNK N   1      26.055  28.456  -3.763  0.00  0.00     0.238 C 
HETATM   11  O   UNK N   1      25.481  27.797  -2.910  0.00  0.00    -0.271 OA
HETATM   12  N   UNK N   1      26.083  29.793  -3.624  0.00  0.00    -0.368 N 
HETATM   13  H   UNK N   1      25.648  30.217  -2.848  0.00  0.00     0.159 HD
HETATM   14  H   UNK N   1      26.539  30.349  -4.297  0.00  0.00     0.159 HD
ENDBRANCH   7  10
ENDBRANCH   2   7
BRANCH   3  15
HETATM   15  C   UNK N   1      29.090  23.374  -4.154  0.00  0.00     0.006 C 
BRANCH  15  16
HETATM   16  C   UNK N   1      29.558  23.580  -2.739  0.00  0.00    -0.004 C 
HETATM   17  C   UNK N   1      30.796  22.729  -2.556  0.00  0.00     0.005 C 
ENDBRANCH  15  16
ENDBRANCH   3  15
TORSDOF 5
ENDMDL
MODEL 8
REMARK VINA RESULT:      -4.9      4.483      6.009
REMARK  5 active torsions:
REMARK  status: ('A' for Active; 'I' for Inactive)
REMARK    1  A    between atoms: N_3  and  C_9 
REMARK       I    between atoms: N_4  and  C_13 
REMARK    2  A    between atoms: C_5  and  C_8 
REMARK    3  A    between atoms: C_8  and  C_11 
REMARK    4  A    between atoms: C_9  and  C_12 
REMARK    5  A    between atoms: C_9  and  C_13 
ROOT
HETATM    1  O   UNK N   1      34.241  10.991  12.575  0.00  0.00    -0.273 OA
HETATM    2  N   UNK N   1      35.415  12.777  13.340  0.00  0.00    -0.338 N 
HETATM    3  C   UNK N   1      34.828  12.681  15.565  0.00  0.00     0.012 A 
HETATM    4  C   UNK N   1      35.645  13.459  14.577  0.00  0.00     0.132 A 
HETATM    5  C   UNK N   1      34.101  11.515  14.895  0.00  0.00     0.109 A 
HETATM    6  C   UNK N   1      34.580  11.721  13.497  0.00  0.00     0.221 A 
ENDROOT
BRANCH   2   7
HETATM    7  C   UNK N   1      36.044  13.227  12.090  0.00  0.00     0.178 C 
BRANCH   7   8
HETATM    8  C   UNK N   1      35.281  14.271  11.247  0.00  0.00     0.030 C 
HETATM    9  C   UNK N   1      35.584  15.726  11.550  0.00  0.00     0.007 C 
ENDBRANCH   7   8
BRANCH   7  10
HETATM   10  C   UNK N   1      37.411  12.635  11.701  0.00  0.00     0.238 C 
HETATM   11  O   UNK N   1      37.702  11.487  11.997  0.00  0.00    -0.271 OA
HETATM   12  N   UNK N   1      38.315  13.368  11.027  0.00  0.00    -0.368 N 
HETATM   13  H   UNK N   1      39.186  12.976  10.785  0.00  0.00     0.159 HD
HETATM   14  H   UNK N   1      38.107  14.297  10.775  0.00  0.00     0.159 HD
ENDBRANCH   7  10
ENDBRANCH   2   7
BRANCH   3  15
HETATM   15  C   UNK N   1      34.851  13.151  17.003  0.00  0.00     0.006 C 
BRANCH  15  16
HETATM   16  C   UNK N   1      35.253  12.097  17.997  0.00  0.00    -0.004 C 
HETATM   17  C   UNK N   1      35.240  12.750  19.363  0.00  0.00     0.005 C 
ENDBRANCH  15  16
ENDBRANCH   3  15
TORSDOF 5
ENDMDL
MODEL 9
REMARK VINA RESULT:      -4.9     15.696     18.116
REMARK  5 active torsions:
REMARK  status: ('A' for Active; 'I' for Inactive)
REMARK    1  A    between atoms: N_3  and  C_9 
REMARK       I    between atoms: N_4  and  C_13 
REMARK    2  A    between atoms: C_5  and  C_8 
REMARK    3  A    between atoms: C_8  and  C_11 
REMARK    4  A    between atoms: C_9  and  C_12 
REMARK    5  A    between atoms: C_9  and  C_13 
ROOT
HETATM    1  O   UNK N   1      29.014  26.961  -5.063  0.00  0.00    -0.273 OA
HETATM    2  N   UNK N   1      27.588  25.498  -4.070  0.00  0.00    -0.338 N 
HETATM    3  C   UNK N   1      29.116  23.952  -3.308  0.00  0.00     0.012 A 
HETATM    4  C   UNK N   1      27.649  24.263  -3.351  0.00  0.00     0.132 A 
HETATM    5  C   UNK N   1      29.937  25.029  -4.017  0.00  0.00     0.109 A 
HETATM    6  C   UNK N   1      28.821  25.926  -4.438  0.00  0.00     0.221 A 
ENDROOT
BRANCH   2   7
HETATM    7  C   UNK N   1      26.306  26.165  -4.340  0.00  0.00     0.178 C 
BRANCH   7   8
HETATM    8  C   UNK N   1      25.462  25.631  -5.517  0.00  0.00     0.030 C 
HETATM    9  C   UNK N   1      25.780  26.208  -6.884  0.00  0.00     0.007 C 
ENDBRANCH   7   8
BRANCH   7  10
HETATM   10  C   UNK N   1      25.887  27.343  -3.441  0.00  0.00     0.238 C 
HETATM   11  O   UNK N   1      25.894  27.234  -2.225  0.00  0.00    -0.271 OA
HETATM   12  N   UNK N   1      25.505  28.517  -3.974  0.00  0.00    -0.368 N 
HETATM   13  H   UNK N   1      25.239  29.261  -3.387  0.00  0.00     0.159 HD
HETATM   14  H   UNK N   1      25.490  28.633  -4.952  0.00  0.00     0.159 HD
ENDBRANCH   7  10
ENDBRANCH   2   7
BRANCH   3  15
HETATM   15  C   UNK N   1      29.532  22.680  -2.601  0.00  0.00     0.006 C 
BRANCH  15  16
HETATM   16  C   UNK N   1      30.339  21.734  -3.446  0.00  0.00    -0.004 C 
HETATM   17  C   UNK N   1      31.761  21.785  -2.930  0.00  0.00     0.005 C 
ENDBRANCH  15  16
ENDBRANCH   3  15
TORSDOF 5
ENDMDL
