REMARK  8 active torsions:
REMARK  status: ('A' for Active; 'I' for Inactive)
REMARK    1  A    between atoms: C_17  and  C_5 
REMARK    2  A    between atoms: C_9  and  C_6 
REMARK    3  A    between atoms: C_15  and  C_6 
REMARK    4  A    between atoms: C_22  and  C_9 
REMARK    5  A    between atoms: C_18  and  C_15 
REMARK    6  A    between atoms: C_16  and  O_27 
REMARK    7  A    between atoms: O_29  and  C_22 
REMARK    8  A    between atoms: C_24  and  O_30 
ROOT
HETATM    1  C   UNK N   1       5.653  -2.221  -2.375  0.00  0.00     0.016 C 
HETATM    2  C   UNK N   1       0.853  -2.240   1.164  0.00  0.00     0.016 C 
HETATM    3  C   UNK N   1       7.041  -0.133  -0.673  0.00  0.00     0.006 C 
HETATM    4  C   UNK N   1       5.798   0.521  -1.306  0.00  0.00     0.006 C 
HETATM    5  C   UNK N   1       0.415  -1.430  -1.963  0.00  0.00     0.032 C 
HETATM    6  C   UNK N   1       3.839  -2.449   1.017  0.00  0.00     0.007 C 
HETATM    7  C   UNK N   1       1.678  -1.738  -1.132  0.00  0.00     0.012 C 
HETATM    8  C   UNK N   1       4.377  -2.849  -0.355  0.00  0.00     0.010 C 
HETATM    9  C   UNK N   1      -0.477   0.144  -0.215  0.00  0.00     0.037 C 
HETATM   10  C   UNK N   1      -0.796  -1.052  -1.114  0.00  0.00     0.118 C 
HETATM   11  C   UNK N   1       1.819   1.246  -0.321  0.00  0.00     0.019 C 
HETATM   12  C   UNK N   1       6.591  -1.496  -0.131  0.00  0.00    -0.002 C 
HETATM   13  C   UNK N   1       4.617  -0.405  -0.993  0.00  0.00     0.001 C 
HETATM   14  C   UNK N   1       3.069  -1.118   0.974  0.00  0.00     0.001 C 
HETATM   15  C   UNK N   1       0.949   0.163   0.387  0.00  0.00     0.003 C 
HETATM   16  C   UNK N   1       3.972   0.000   0.381  0.00  0.00     0.024 C 
HETATM   17  C   UNK N   1       3.199   1.345   0.372  0.00  0.00     0.127 C 
HETATM   18  C   UNK N   1       5.306  -1.787  -0.947  0.00  0.00    -0.036 C 
HETATM   19  C   UNK N   1       1.648  -1.231   0.330  0.00  0.00    -0.036 C 
ENDROOT
BRANCH  12  20
HETATM   20  C   UNK N   1       7.752  -2.527  -0.069  0.00  0.00    -0.013 C 
HETATM   21  C   UNK N   1       8.480  -2.714  -1.396  0.00  0.00     0.010 C 
BRANCH  20  22
HETATM   22  C   UNK N   1       7.339  -3.874   0.542  0.00  0.00     0.015 C 
BRANCH  22  23
HETATM   23  C   UNK N   1       6.669  -4.821  -0.451  0.00  0.00     0.110 C 
BRANCH  23  24
HETATM   24  C   UNK N   1       5.832  -5.836   0.255  0.00  0.00     0.139 C 
HETATM   25  O   UNK N   1       6.335  -6.592   1.070  0.00  0.00    -0.650 OA
BRANCH  24  26
HETATM   26  O   UNK N   1       4.520  -5.932  -0.028  0.00  0.00    -0.776 OA
HETATM   27  H   UNK N   1       4.005  -5.174  -0.224  0.00  0.00     0.167 HD
ENDBRANCH  24  26
ENDBRANCH  23  24
ENDBRANCH  22  23
ENDBRANCH  20  22
ENDBRANCH  12  20
BRANCH  17  28
HETATM   28  O   UNK N   1       3.970   2.356  -0.211  0.00  0.00    -0.395 OA
HETATM   29  H   UNK N   1       4.844   2.244  -0.615  0.00  0.00     0.210 HD
ENDBRANCH  17  28
BRANCH  11  30
HETATM   30  C   UNK N   1       1.121   2.621  -0.336  0.00  0.00     0.003 C 
HETATM   31  C   UNK N   1       0.830   3.180   1.049  0.00  0.00     0.005 C 
ENDBRANCH  11  30
BRANCH  10  32
HETATM   32  O   UNK N   1      -1.869  -0.725  -1.941  0.00  0.00    -0.396 OA
HETATM   33  H   UNK N   1      -2.046   0.036  -2.517  0.00  0.00     0.210 HD
ENDBRANCH  10  32
TORSDOF 8
