MODEL 1
REMARK VINA RESULT:      -7.6      0.000      0.000
REMARK  6 active torsions:
REMARK  status: ('A' for Active; 'I' for Inactive)
REMARK    1  A    between atoms: C_2  and  N_4 
REMARK    2  A    between atoms: N_4  and  C_10 
REMARK    3  A    between atoms: C_9  and  O_18 
REMARK    4  A    between atoms: C_11  and  O_26 
REMARK    5  A    between atoms: O_18  and  C_24 
REMARK    6  A    between atoms: C_24  and  C_28 
ROOT
HETATM    1  C   UNK N   1      29.990  17.395   7.193  0.00  0.00     0.038 A 
HETATM    2  C   UNK N   1      28.603  17.431   7.053  0.00  0.00     0.119 A 
HETATM    3  C   UNK N   1      30.546  17.635   8.456  0.00  0.00     0.050 A 
HETATM    4  C   UNK N   1      30.819  17.160   6.096  0.00  0.00     0.057 A 
HETATM    5  N   UNK N   1      27.826  17.686   8.142  0.00  0.00    -0.338 N 
ATOM      6  HN  UNK N   1      26.811  17.709   8.042  1.00  0.00     0.168 HD
HETATM    7  C   UNK N   1      31.930  17.630   8.617  0.00  0.00     0.070 A 
HETATM    8  C   UNK N   1      32.776  17.389   7.525  0.00  0.00     0.104 A 
HETATM    9  C   UNK N   1      32.214  17.159   6.240  0.00  0.00     0.102 A 
HETATM   10  N   UNK N   1      29.735  17.886   9.516  0.00  0.00    -0.351 N 
ATOM     11  HN  UNK N   1      30.142  18.059  10.435  1.00  0.00     0.166 HD
HETATM   12  C   UNK N   1      28.383  17.910   9.364  0.00  0.00     0.182 A 
ENDROOT
BRANCH   2  13
HETATM   13  N   UNK N   1      28.019  17.197   5.781  0.00  0.00    -0.339 N 
HETATM   14  H   UNK N   1      28.295  16.383   5.301  0.00  0.00     0.167 HD
BRANCH  13  15
HETATM   15  C   UNK N   1      27.069  18.037   5.143  0.00  0.00     0.072 A 
HETATM   16  C   UNK N   1      27.422  19.280   4.568  0.00  0.00     0.144 A 
HETATM   17  C   UNK N   1      26.456  20.033   3.896  0.00  0.00     0.063 A 
HETATM   18  F   UNK N   1      28.694  19.745   4.605  0.00  0.00    -0.204 F 
HETATM   19  C   UNK N   1      25.147  19.565   3.787  0.00  0.00     0.014 A 
HETATM   20  C   UNK N   1      24.796  18.333   4.342  0.00  0.00     0.021 A 
HETATM   21 Br   UNK N   1      23.845  20.597   2.859  0.00  0.00    -0.051 Br
HETATM   22  C   UNK N   1      25.757  17.571   5.012  0.00  0.00     0.034 A 
ENDBRANCH  13  15
ENDBRANCH   2  13
BRANCH   9  23
HETATM   23  O   UNK N   1      33.012  16.966   5.161  0.00  0.00    -0.353 OA
HETATM   24  C   UNK N   1      32.658  17.326   3.879  0.00  0.00     0.210 C 
ENDBRANCH   9  23
BRANCH   8  25
HETATM   25  O   UNK N   1      34.113  17.396   7.757  0.00  0.00    -0.348 OA
BRANCH  25  26
HETATM   26  C   UNK N   1      34.740  16.791   8.823  0.00  0.00     0.180 C 
BRANCH  26  27
HETATM   27  C   UNK N   1      34.680  15.266   8.682  0.00  0.00     0.013 C 
HETATM   28  C   UNK N   1      33.726  14.649   9.705  0.00  0.00     0.037 C 
HETATM   29  C   UNK N   1      34.269  14.868  11.115  0.00  0.00     0.272 C 
HETATM   30  N   UNK N   1      35.592  14.256  11.252  0.00  0.00     0.084 N 
HETATM   31  C   UNK N   1      36.534  14.868  10.313  0.00  0.00     0.272 C 
HETATM   32  C   UNK N   1      36.061  14.586  12.585  0.00  0.00     0.309 C 
HETATM   33  C   UNK N   1      36.070  14.666   8.869  0.00  0.00     0.037 C 
ENDBRANCH  26  27
ENDBRANCH  25  26
ENDBRANCH   8  25
TORSDOF 6
ENDMDL
MODEL 2
REMARK VINA RESULT:      -7.6      1.951      3.275
REMARK  6 active torsions:
REMARK  status: ('A' for Active; 'I' for Inactive)
REMARK    1  A    between atoms: C_2  and  N_4 
REMARK    2  A    between atoms: N_4  and  C_10 
REMARK    3  A    between atoms: C_9  and  O_18 
REMARK    4  A    between atoms: C_11  and  O_26 
REMARK    5  A    between atoms: O_18  and  C_24 
REMARK    6  A    between atoms: C_24  and  C_28 
ROOT
HETATM    1  C   UNK N   1      30.991  17.118   5.404  0.00  0.00     0.038 A 
HETATM    2  C   UNK N   1      30.189  16.839   4.298  0.00  0.00     0.119 A 
HETATM    3  C   UNK N   1      32.361  17.330   5.206  0.00  0.00     0.050 A 
HETATM    4  C   UNK N   1      30.455  17.152   6.692  0.00  0.00     0.057 A 
HETATM    5  N   UNK N   1      30.750  16.792   3.057  0.00  0.00    -0.338 N 
ATOM      6  HN  UNK N   1      30.164  16.592   2.247  1.00  0.00     0.168 HD
HETATM    7  C   UNK N   1      33.188  17.585   6.298  0.00  0.00     0.070 A 
HETATM    8  C   UNK N   1      32.665  17.628   7.598  0.00  0.00     0.104 A 
HETATM    9  C   UNK N   1      31.276  17.399   7.801  0.00  0.00     0.102 A 
HETATM   10  N   UNK N   1      32.881  17.273   3.952  0.00  0.00    -0.351 N 
ATOM     11  HN  UNK N   1      33.879  17.430   3.810  1.00  0.00     0.166 HD
HETATM   12  C   UNK N   1      32.083  17.008   2.883  0.00  0.00     0.182 A 
ENDROOT
BRANCH   2  13
HETATM   13  N   UNK N   1      28.799  16.614   4.477  0.00  0.00    -0.339 N 
HETATM   14  H   UNK N   1      28.531  15.773   4.911  0.00  0.00     0.167 HD
BRANCH  13  15
HETATM   15  C   UNK N   1      27.763  17.501   4.082  0.00  0.00     0.072 A 
HETATM   16  C   UNK N   1      26.509  17.043   3.616  0.00  0.00     0.144 A 
HETATM   17  C   UNK N   1      25.506  17.962   3.305  0.00  0.00     0.063 A 
HETATM   18  F   UNK N   1      26.230  15.721   3.508  0.00  0.00    -0.204 F 
HETATM   19  C   UNK N   1      25.732  19.330   3.454  0.00  0.00     0.014 A 
HETATM   20  C   UNK N   1      26.963  19.788   3.925  0.00  0.00     0.021 A 
HETATM   21 Br   UNK N   1      24.351  20.571   3.035  0.00  0.00    -0.051 Br
HETATM   22  C   UNK N   1      27.972  18.875   4.244  0.00  0.00     0.034 A 
ENDBRANCH  13  15
ENDBRANCH   2  13
BRANCH   9  23
HETATM   23  O   UNK N   1      30.753  17.393   9.053  0.00  0.00    -0.353 OA
HETATM   24  C   UNK N   1      29.811  18.299   9.487  0.00  0.00     0.210 C 
ENDBRANCH   9  23
BRANCH   8  25
HETATM   25  O   UNK N   1      33.529  17.885   8.612  0.00  0.00    -0.348 OA
BRANCH  25  26
HETATM   26  C   UNK N   1      34.618  17.111   8.945  0.00  0.00     0.180 C 
BRANCH  26  27
HETATM   27  C   UNK N   1      34.165  15.829   9.654  0.00  0.00     0.013 C 
HETATM   28  C   UNK N   1      34.880  15.652  10.993  0.00  0.00     0.037 C 
HETATM   29  C   UNK N   1      36.373  15.434  10.756  0.00  0.00     0.272 C 
HETATM   30  N   UNK N   1      36.591  14.249   9.927  0.00  0.00     0.084 N 
HETATM   31  C   UNK N   1      35.954  14.420   8.619  0.00  0.00     0.272 C 
HETATM   32  C   UNK N   1      38.019  14.172   9.686  0.00  0.00     0.309 C 
HETATM   33  C   UNK N   1      34.444  14.616   8.772  0.00  0.00     0.037 C 
ENDBRANCH  26  27
ENDBRANCH  25  26
ENDBRANCH   8  25
TORSDOF 6
ENDMDL
MODEL 3
REMARK VINA RESULT:      -7.3      4.605     10.497
REMARK  6 active torsions:
REMARK  status: ('A' for Active; 'I' for Inactive)
REMARK    1  A    between atoms: C_2  and  N_4 
REMARK    2  A    between atoms: N_4  and  C_10 
REMARK    3  A    between atoms: C_9  and  O_18 
REMARK    4  A    between atoms: C_11  and  O_26 
REMARK    5  A    between atoms: O_18  and  C_24 
REMARK    6  A    between atoms: C_24  and  C_28 
ROOT
HETATM    1  C   UNK N   1      27.779  17.573   3.983  0.00  0.00     0.038 A 
HETATM    2  C   UNK N   1      29.084  17.168   3.708  0.00  0.00     0.119 A 
HETATM    3  C   UNK N   1      26.716  16.803   3.494  0.00  0.00     0.050 A 
HETATM    4  C   UNK N   1      27.524  18.742   4.701  0.00  0.00     0.057 A 
HETATM    5  N   UNK N   1      29.295  16.032   2.984  0.00  0.00    -0.338 N 
ATOM      6  HN  UNK N   1      30.249  15.733   2.785  1.00  0.00     0.168 HD
HETATM    7  C   UNK N   1      25.402  17.201   3.734  0.00  0.00     0.070 A 
HETATM    8  C   UNK N   1      25.130  18.369   4.459  0.00  0.00     0.104 A 
HETATM    9  C   UNK N   1      26.208  19.160   4.943  0.00  0.00     0.102 A 
HETATM   10  N   UNK N   1      26.970  15.678   2.776  0.00  0.00    -0.351 N 
ATOM     11  HN  UNK N   1      26.195  15.117   2.423  1.00  0.00     0.166 HD
HETATM   12  C   UNK N   1      28.250  15.292   2.523  0.00  0.00     0.182 A 
ENDROOT
BRANCH   2  13
HETATM   13  N   UNK N   1      30.175  17.938   4.187  0.00  0.00    -0.339 N 
HETATM   14  H   UNK N   1      30.307  18.829   3.791  0.00  0.00     0.167 HD
BRANCH  13  15
HETATM   15  C   UNK N   1      31.092  17.531   5.192  0.00  0.00     0.072 A 
HETATM   16  C   UNK N   1      32.491  17.543   4.991  0.00  0.00     0.144 A 
HETATM   17  C   UNK N   1      33.347  17.194   6.039  0.00  0.00     0.063 A 
HETATM   18  F   UNK N   1      33.038  17.935   3.815  0.00  0.00    -0.204 F 
HETATM   19  C   UNK N   1      32.828  16.837   7.283  0.00  0.00     0.014 A 
HETATM   20  C   UNK N   1      31.448  16.835   7.491  0.00  0.00     0.021 A 
HETATM   21 Br   UNK N   1      34.006  16.375   8.705  0.00  0.00    -0.051 Br
HETATM   22  C   UNK N   1      30.585  17.187   6.450  0.00  0.00     0.034 A 
ENDBRANCH  13  15
ENDBRANCH   2  13
BRANCH   9  23
HETATM   23  O   UNK N   1      25.971  20.317   5.610  0.00  0.00    -0.353 OA
HETATM   24  C   UNK N   1      26.947  21.028   6.271  0.00  0.00     0.210 C 
ENDBRANCH   9  23
BRANCH   8  25
HETATM   25  O   UNK N   1      23.827  18.693   4.656  0.00  0.00    -0.348 OA
BRANCH  25  26
HETATM   26  C   UNK N   1      22.942  19.070   3.671  0.00  0.00     0.180 C 
BRANCH  26  27
HETATM   27  C   UNK N   1      21.507  19.060   4.210  0.00  0.00     0.013 C 
HETATM   28  C   UNK N   1      20.969  17.634   4.330  0.00  0.00     0.037 C 
HETATM   29  C   UNK N   1      20.846  17.010   2.942  0.00  0.00     0.272 C 
HETATM   30  N   UNK N   1      19.944  17.802   2.105  0.00  0.00     0.084 N 
HETATM   31  C   UNK N   1      20.468  19.160   1.938  0.00  0.00     0.272 C 
HETATM   32  C   UNK N   1      19.956  17.188   0.791  0.00  0.00     0.309 C 
HETATM   33  C   UNK N   1      20.594  19.864   3.290  0.00  0.00     0.037 C 
ENDBRANCH  26  27
ENDBRANCH  25  26
ENDBRANCH   8  25
TORSDOF 6
ENDMDL
MODEL 4
REMARK VINA RESULT:      -7.3      2.886      4.146
REMARK  6 active torsions:
REMARK  status: ('A' for Active; 'I' for Inactive)
REMARK    1  A    between atoms: C_2  and  N_4 
REMARK    2  A    between atoms: N_4  and  C_10 
REMARK    3  A    between atoms: C_9  and  O_18 
REMARK    4  A    between atoms: C_11  and  O_26 
REMARK    5  A    between atoms: O_18  and  C_24 
REMARK    6  A    between atoms: C_24  and  C_28 
ROOT
HETATM    1  C   UNK N   1      27.362  18.731   5.476  0.00  0.00     0.038 A 
HETATM    2  C   UNK N   1      26.405  19.693   5.159  0.00  0.00     0.119 A 
HETATM    3  C   UNK N   1      27.939  18.747   6.752  0.00  0.00     0.050 A 
HETATM    4  C   UNK N   1      27.773  17.786   4.534  0.00  0.00     0.057 A 
HETATM    5  N   UNK N   1      26.045  20.614   6.096  0.00  0.00    -0.338 N 
ATOM      6  HN  UNK N   1      25.342  21.317   5.867  1.00  0.00     0.168 HD
HETATM    7  C   UNK N   1      28.917  17.812   7.085  0.00  0.00     0.070 A 
HETATM    8  C   UNK N   1      29.335  16.853   6.152  0.00  0.00     0.104 A 
HETATM    9  C   UNK N   1      28.762  16.843   4.851  0.00  0.00     0.102 A 
HETATM   10  N   UNK N   1      27.552  19.684   7.657  0.00  0.00    -0.351 N 
ATOM     11  HN  UNK N   1      27.971  19.693   8.587  1.00  0.00     0.166 HD
HETATM   12  C   UNK N   1      26.611  20.612   7.334  0.00  0.00     0.182 A 
ENDROOT
BRANCH   2  13
HETATM   13  N   UNK N   1      25.814  19.698   3.869  0.00  0.00    -0.339 N 
HETATM   14  H   UNK N   1      26.414  19.820   3.099  0.00  0.00     0.167 HD
BRANCH  13  15
HETATM   15  C   UNK N   1      24.429  19.541   3.597  0.00  0.00     0.072 A 
HETATM   16  C   UNK N   1      23.690  18.424   4.050  0.00  0.00     0.144 A 
HETATM   17  C   UNK N   1      22.316  18.355   3.807  0.00  0.00     0.063 A 
HETATM   18  F   UNK N   1      24.270  17.429   4.764  0.00  0.00    -0.204 F 
HETATM   19  C   UNK N   1      21.669  19.384   3.123  0.00  0.00     0.014 A 
HETATM   20  C   UNK N   1      22.392  20.495   2.684  0.00  0.00     0.021 A 
HETATM   21 Br   UNK N   1      19.795  19.282   2.809  0.00  0.00    -0.051 Br
HETATM   22  C   UNK N   1      23.765  20.574   2.927  0.00  0.00     0.034 A 
ENDBRANCH  13  15
ENDBRANCH   2  13
BRANCH   9  23
HETATM   23  O   UNK N   1      29.180  15.953   3.918  0.00  0.00    -0.353 OA
HETATM   24  C   UNK N   1      29.744  16.318   2.716  0.00  0.00     0.210 C 
ENDBRANCH   9  23
BRANCH   8  25
HETATM   25  O   UNK N   1      30.289  15.972   6.547  0.00  0.00    -0.348 OA
BRANCH  25  26
HETATM   26  C   UNK N   1      31.500  16.308   7.111  0.00  0.00     0.180 C 
BRANCH  26  27
HETATM   27  C   UNK N   1      32.341  17.123   6.122  0.00  0.00     0.013 C 
HETATM   28  C   UNK N   1      32.759  16.278   4.919  0.00  0.00     0.037 C 
HETATM   29  C   UNK N   1      33.699  15.164   5.372  0.00  0.00     0.272 C 
HETATM   30  N   UNK N   1      34.890  15.729   6.008  0.00  0.00     0.084 N 
HETATM   31  C   UNK N   1      34.514  16.503   7.193  0.00  0.00     0.272 C 
HETATM   32  C   UNK N   1      35.677  14.605   6.479  0.00  0.00     0.309 C 
HETATM   33  C   UNK N   1      33.590  17.662   6.814  0.00  0.00     0.037 C 
ENDBRANCH  26  27
ENDBRANCH  25  26
ENDBRANCH   8  25
TORSDOF 6
ENDMDL
MODEL 5
REMARK VINA RESULT:      -7.1      6.054      9.187
REMARK  6 active torsions:
REMARK  status: ('A' for Active; 'I' for Inactive)
REMARK    1  A    between atoms: C_2  and  N_4 
REMARK    2  A    between atoms: N_4  and  C_10 
REMARK    3  A    between atoms: C_9  and  O_18 
REMARK    4  A    between atoms: C_11  and  O_26 
REMARK    5  A    between atoms: O_18  and  C_24 
REMARK    6  A    between atoms: C_24  and  C_28 
ROOT
HETATM    1  C   UNK N   1      22.565  15.494   6.292  0.00  0.00     0.038 A 
HETATM    2  C   UNK N   1      21.668  14.633   6.921  0.00  0.00     0.119 A 
HETATM    3  C   UNK N   1      22.126  16.770   5.917  0.00  0.00     0.050 A 
HETATM    4  C   UNK N   1      23.870  15.090   6.003  0.00  0.00     0.057 A 
HETATM    5  N   UNK N   1      20.395  15.054   7.166  0.00  0.00    -0.338 N 
ATOM      6  HN  UNK N   1      19.738  14.427   7.630  1.00  0.00     0.168 HD
HETATM    7  C   UNK N   1      22.997  17.640   5.263  0.00  0.00     0.070 A 
HETATM    8  C   UNK N   1      24.311  17.251   4.973  0.00  0.00     0.104 A 
HETATM    9  C   UNK N   1      24.755  15.951   5.339  0.00  0.00     0.102 A 
HETATM   10  N   UNK N   1      20.848  17.150   6.179  0.00  0.00    -0.351 N 
ATOM     11  HN  UNK N   1      20.531  18.080   5.908  1.00  0.00     0.166 HD
HETATM   12  C   UNK N   1      19.987  16.300   6.801  0.00  0.00     0.182 A 
ENDROOT
BRANCH   2  13
HETATM   13  N   UNK N   1      22.090  13.334   7.303  0.00  0.00    -0.339 N 
HETATM   14  H   UNK N   1      22.171  12.659   6.591  0.00  0.00     0.167 HD
BRANCH  13  15
HETATM   15  C   UNK N   1      22.408  12.926   8.625  0.00  0.00     0.072 A 
HETATM   16  C   UNK N   1      23.741  12.761   9.067  0.00  0.00     0.144 A 
HETATM   17  C   UNK N   1      23.994  12.421  10.398  0.00  0.00     0.063 A 
HETATM   18  F   UNK N   1      24.796  12.973   8.243  0.00  0.00    -0.204 F 
HETATM   19  C   UNK N   1      22.940  12.247  11.293  0.00  0.00     0.014 A 
HETATM   20  C   UNK N   1      21.623  12.420  10.866  0.00  0.00     0.021 A 
HETATM   21 Br   UNK N   1      23.301  11.794  13.107  0.00  0.00    -0.051 Br
HETATM   22  C   UNK N   1      21.360  12.765   9.538  0.00  0.00     0.034 A 
ENDBRANCH  13  15
ENDBRANCH   2  13
BRANCH   9  23
HETATM   23  O   UNK N   1      26.009  15.536   5.031  0.00  0.00    -0.353 OA
HETATM   24  C   UNK N   1      26.317  14.239   4.688  0.00  0.00     0.210 C 
ENDBRANCH   9  23
BRANCH   8  25
HETATM   25  O   UNK N   1      25.103  18.151   4.337  0.00  0.00    -0.348 OA
BRANCH  25  26
HETATM   26  C   UNK N   1      25.391  19.419   4.790  0.00  0.00     0.180 C 
BRANCH  26  27
HETATM   27  C   UNK N   1      26.846  19.782   4.474  0.00  0.00     0.013 C 
HETATM   28  C   UNK N   1      27.770  18.576   4.647  0.00  0.00     0.037 C 
HETATM   29  C   UNK N   1      27.805  18.158   6.115  0.00  0.00     0.272 C 
HETATM   30  N   UNK N   1      28.284  19.261   6.948  0.00  0.00     0.084 N 
HETATM   31  C   UNK N   1      27.384  20.411   6.834  0.00  0.00     0.272 C 
HETATM   32  C   UNK N   1      28.202  18.804   8.322  0.00  0.00     0.309 C 
HETATM   33  C   UNK N   1      27.318  20.908   5.388  0.00  0.00     0.037 C 
ENDBRANCH  26  27
ENDBRANCH  25  26
ENDBRANCH   8  25
TORSDOF 6
ENDMDL
MODEL 6
REMARK VINA RESULT:      -7.1      5.616     10.352
REMARK  6 active torsions:
REMARK  status: ('A' for Active; 'I' for Inactive)
REMARK    1  A    between atoms: C_2  and  N_4 
REMARK    2  A    between atoms: N_4  and  C_10 
REMARK    3  A    between atoms: C_9  and  O_18 
REMARK    4  A    between atoms: C_11  and  O_26 
REMARK    5  A    between atoms: O_18  and  C_24 
REMARK    6  A    between atoms: C_24  and  C_28 
ROOT
HETATM    1  C   UNK N   1      36.431  14.575   9.890  0.00  0.00     0.038 A 
HETATM    2  C   UNK N   1      36.911  14.218  11.149  0.00  0.00     0.119 A 
HETATM    3  C   UNK N   1      36.972  13.950   8.759  0.00  0.00     0.050 A 
HETATM    4  C   UNK N   1      35.454  15.561   9.745  0.00  0.00     0.057 A 
HETATM    5  N   UNK N   1      37.881  13.267  11.251  0.00  0.00    -0.338 N 
ATOM      6  HN  UNK N   1      38.231  13.002  12.172  1.00  0.00     0.168 HD
HETATM    7  C   UNK N   1      36.527  14.308   7.488  0.00  0.00     0.070 A 
HETATM    8  C   UNK N   1      35.543  15.292   7.326  0.00  0.00     0.104 A 
HETATM    9  C   UNK N   1      35.002  15.938   8.472  0.00  0.00     0.102 A 
HETATM   10  N   UNK N   1      37.939  13.007   8.906  0.00  0.00    -0.351 N 
ATOM     11  HN  UNK N   1      38.331  12.551   8.081  1.00  0.00     0.166 HD
HETATM   12  C   UNK N   1      38.391  12.665  10.142  0.00  0.00     0.182 A 
ENDROOT
BRANCH   2  13
HETATM   13  N   UNK N   1      36.381  14.844  12.307  0.00  0.00    -0.339 N 
HETATM   14  H   UNK N   1      36.213  15.812  12.259  0.00  0.00     0.167 HD
BRANCH  13  15
HETATM   15  C   UNK N   1      36.071  14.190  13.528  0.00  0.00     0.072 A 
HETATM   16  C   UNK N   1      35.156  13.114  13.601  0.00  0.00     0.144 A 
HETATM   17  C   UNK N   1      34.941  12.467  14.820  0.00  0.00     0.063 A 
HETATM   18  F   UNK N   1      34.511  12.653  12.503  0.00  0.00    -0.204 F 
HETATM   19  C   UNK N   1      35.625  12.875  15.965  0.00  0.00     0.014 A 
HETATM   20  C   UNK N   1      36.538  13.928  15.897  0.00  0.00     0.021 A 
HETATM   21 Br   UNK N   1      35.329  11.976  17.617  0.00  0.00    -0.051 Br
HETATM   22  C   UNK N   1      36.764  14.577  14.680  0.00  0.00     0.034 A 
ENDBRANCH  13  15
ENDBRANCH   2  13
BRANCH   9  23
HETATM   23  O   UNK N   1      34.080  16.923   8.339  0.00  0.00    -0.353 OA
HETATM   24  C   UNK N   1      34.403  18.246   8.133  0.00  0.00     0.210 C 
ENDBRANCH   9  23
BRANCH   8  25
HETATM   25  O   UNK N   1      35.156  15.587   6.060  0.00  0.00    -0.348 OA
BRANCH  25  26
HETATM   26  C   UNK N   1      33.919  15.314   5.520  0.00  0.00     0.180 C 
BRANCH  26  27
HETATM   27  C   UNK N   1      33.365  16.551   4.803  0.00  0.00     0.013 C 
HETATM   28  C   UNK N   1      32.041  17.003   5.419  0.00  0.00     0.037 C 
HETATM   29  C   UNK N   1      30.974  15.936   5.192  0.00  0.00     0.272 C 
HETATM   30  N   UNK N   1      30.788  15.697   3.760  0.00  0.00     0.084 N 
HETATM   31  C   UNK N   1      32.034  15.215   3.160  0.00  0.00     0.272 C 
HETATM   32  C   UNK N   1      29.827  14.617   3.644  0.00  0.00     0.309 C 
HETATM   33  C   UNK N   1      33.151  16.248   3.323  0.00  0.00     0.037 C 
ENDBRANCH  26  27
ENDBRANCH  25  26
ENDBRANCH   8  25
TORSDOF 6
ENDMDL
MODEL 7
REMARK VINA RESULT:      -7.1      4.833     10.450
REMARK  6 active torsions:
REMARK  status: ('A' for Active; 'I' for Inactive)
REMARK    1  A    between atoms: C_2  and  N_4 
REMARK    2  A    between atoms: N_4  and  C_10 
REMARK    3  A    between atoms: C_9  and  O_18 
REMARK    4  A    between atoms: C_11  and  O_26 
REMARK    5  A    between atoms: O_18  and  C_24 
REMARK    6  A    between atoms: C_24  and  C_28 
ROOT
HETATM    1  C   UNK N   1      27.009  17.858   4.304  0.00  0.00     0.038 A 
HETATM    2  C   UNK N   1      28.311  18.356   4.269  0.00  0.00     0.119 A 
HETATM    3  C   UNK N   1      25.955  18.745   4.558  0.00  0.00     0.050 A 
HETATM    4  C   UNK N   1      26.754  16.498   4.127  0.00  0.00     0.057 A 
HETATM    5  N   UNK N   1      28.525  19.687   4.468  0.00  0.00    -0.338 N 
ATOM      6  HN  UNK N   1      29.476  20.054   4.439  1.00  0.00     0.168 HD
HETATM    7  C   UNK N   1      24.647  18.267   4.624  0.00  0.00     0.070 A 
HETATM    8  C   UNK N   1      24.374  16.904   4.442  0.00  0.00     0.104 A 
HETATM    9  C   UNK N   1      25.444  16.001   4.199  0.00  0.00     0.102 A 
HETATM   10  N   UNK N   1      26.212  20.064   4.753  0.00  0.00    -0.351 N 
ATOM     11  HN  UNK N   1      25.442  20.709   4.935  1.00  0.00     0.166 HD
HETATM   12  C   UNK N   1      27.487  20.536   4.707  0.00  0.00     0.182 A 
ENDROOT
BRANCH   2  13
HETATM   13  N   UNK N   1      29.394  17.475   4.020  0.00  0.00    -0.339 N 
HETATM   14  H   UNK N   1      29.333  16.899   3.225  0.00  0.00     0.167 HD
BRANCH  13  15
HETATM   15  C   UNK N   1      30.559  17.354   4.822  0.00  0.00     0.072 A 
HETATM   16  C   UNK N   1      31.863  17.459   4.285  0.00  0.00     0.144 A 
HETATM   17  C   UNK N   1      32.971  17.397   5.133  0.00  0.00     0.063 A 
HETATM   18  F   UNK N   1      32.074  17.669   2.963  0.00  0.00    -0.204 F 
HETATM   19  C   UNK N   1      32.798  17.236   6.508  0.00  0.00     0.014 A 
HETATM   20  C   UNK N   1      31.514  17.145   7.045  0.00  0.00     0.021 A 
HETATM   21 Br   UNK N   1      34.317  17.165   7.653  0.00  0.00    -0.051 Br
HETATM   22  C   UNK N   1      30.399  17.211   6.205  0.00  0.00     0.034 A 
ENDBRANCH  13  15
ENDBRANCH   2  13
BRANCH   9  23
HETATM   23  O   UNK N   1      25.210  14.672   4.062  0.00  0.00    -0.353 OA
HETATM   24  C   UNK N   1      25.073  14.046   2.844  0.00  0.00     0.210 C 
ENDBRANCH   9  23
BRANCH   8  25
HETATM   25  O   UNK N   1      23.077  16.512   4.517  0.00  0.00    -0.348 OA
BRANCH  25  26
HETATM   26  C   UNK N   1      22.133  16.685   3.529  0.00  0.00     0.180 C 
BRANCH  26  27
HETATM   27  C   UNK N   1      20.872  17.338   4.105  0.00  0.00     0.013 C 
HETATM   28  C   UNK N   1      19.747  17.383   3.071  0.00  0.00     0.037 C 
HETATM   29  C   UNK N   1      20.143  18.300   1.916  0.00  0.00     0.272 C 
HETATM   30  N   UNK N   1      20.407  19.653   2.407  0.00  0.00     0.084 N 
HETATM   31  C   UNK N   1      21.516  19.639   3.363  0.00  0.00     0.272 C 
HETATM   32  C   UNK N   1      20.856  20.424   1.263  0.00  0.00     0.309 C 
HETATM   33  C   UNK N   1      21.181  18.758   4.569  0.00  0.00     0.037 C 
ENDBRANCH  26  27
ENDBRANCH  25  26
ENDBRANCH   8  25
TORSDOF 6
ENDMDL
MODEL 8
REMARK VINA RESULT:      -7.1      2.223      3.696
REMARK  6 active torsions:
REMARK  status: ('A' for Active; 'I' for Inactive)
REMARK    1  A    between atoms: C_2  and  N_4 
REMARK    2  A    between atoms: N_4  and  C_10 
REMARK    3  A    between atoms: C_9  and  O_18 
REMARK    4  A    between atoms: C_11  and  O_26 
REMARK    5  A    between atoms: O_18  and  C_24 
REMARK    6  A    between atoms: C_24  and  C_28 
ROOT
HETATM    1  C   UNK N   1      27.677  17.326   5.323  0.00  0.00     0.038 A 
HETATM    2  C   UNK N   1      26.429  17.325   4.700  0.00  0.00     0.119 A 
HETATM    3  C   UNK N   1      28.723  16.599   4.739  0.00  0.00     0.050 A 
HETATM    4  C   UNK N   1      27.881  18.004   6.525  0.00  0.00     0.057 A 
HETATM    5  N   UNK N   1      26.261  16.633   3.539  0.00  0.00    -0.338 N 
ATOM      6  HN  UNK N   1      25.350  16.634   3.080  1.00  0.00     0.168 HD
HETATM    7  C   UNK N   1      29.971  16.563   5.356  0.00  0.00     0.070 A 
HETATM    8  C   UNK N   1      30.194  17.244   6.561  0.00  0.00     0.104 A 
HETATM    9  C   UNK N   1      29.130  17.970   7.162  0.00  0.00     0.102 A 
HETATM   10  N   UNK N   1      28.511  15.921   3.581  0.00  0.00    -0.351 N 
ATOM     11  HN  UNK N   1      29.275  15.395   3.156  1.00  0.00     0.166 HD
HETATM   12  C   UNK N   1      27.290  15.938   2.982  0.00  0.00     0.182 A 
ENDROOT
BRANCH   2  13
HETATM   13  N   UNK N   1      25.355  18.049   5.278  0.00  0.00    -0.339 N 
HETATM   14  H   UNK N   1      25.310  18.081   6.261  0.00  0.00     0.167 HD
BRANCH  13  15
HETATM   15  C   UNK N   1      24.340  18.732   4.559  0.00  0.00     0.072 A 
HETATM   16  C   UNK N   1      24.618  19.832   3.715  0.00  0.00     0.144 A 
HETATM   17  C   UNK N   1      23.587  20.423   2.981  0.00  0.00     0.063 A 
HETATM   18  F   UNK N   1      25.877  20.306   3.556  0.00  0.00    -0.204 F 
HETATM   19  C   UNK N   1      22.285  19.931   3.074  0.00  0.00     0.014 A 
HETATM   20  C   UNK N   1      22.006  18.838   3.895  0.00  0.00     0.021 A 
HETATM   21 Br   UNK N   1      20.892  20.740   2.059  0.00  0.00    -0.051 Br
HETATM   22  C   UNK N   1      23.033  18.237   4.629  0.00  0.00     0.034 A 
ENDBRANCH  13  15
ENDBRANCH   2  13
BRANCH   9  23
HETATM   23  O   UNK N   1      29.308  18.602   8.349  0.00  0.00    -0.353 OA
HETATM   24  C   UNK N   1      28.808  18.134   9.543  0.00  0.00     0.210 C 
ENDBRANCH   9  23
BRANCH   8  25
HETATM   25  O   UNK N   1      31.436  17.167   7.102  0.00  0.00    -0.348 OA
BRANCH  25  26
HETATM   26  C   UNK N   1      31.961  16.063   7.736  0.00  0.00     0.180 C 
BRANCH  26  27
HETATM   27  C   UNK N   1      33.357  15.747   7.188  0.00  0.00     0.013 C 
HETATM   28  C   UNK N   1      34.000  14.582   7.940  0.00  0.00     0.037 C 
HETATM   29  C   UNK N   1      34.256  14.982   9.392  0.00  0.00     0.272 C 
HETATM   30  N   UNK N   1      35.140  16.147   9.450  0.00  0.00     0.084 N 
HETATM   31  C   UNK N   1      34.519  17.290   8.776  0.00  0.00     0.272 C 
HETATM   32  C   UNK N   1      35.255  16.504  10.852  0.00  0.00     0.309 C 
HETATM   33  C   UNK N   1      34.257  16.974   7.302  0.00  0.00     0.037 C 
ENDBRANCH  26  27
ENDBRANCH  25  26
ENDBRANCH   8  25
TORSDOF 6
ENDMDL
MODEL 9
REMARK VINA RESULT:      -7.0      3.088      4.196
REMARK  6 active torsions:
REMARK  status: ('A' for Active; 'I' for Inactive)
REMARK    1  A    between atoms: C_2  and  N_4 
REMARK    2  A    between atoms: N_4  and  C_10 
REMARK    3  A    between atoms: C_9  and  O_18 
REMARK    4  A    between atoms: C_11  and  O_26 
REMARK    5  A    between atoms: O_18  and  C_24 
REMARK    6  A    between atoms: C_24  and  C_28 
ROOT
HETATM    1  C   UNK N   1      30.989  17.118   5.356  0.00  0.00     0.038 A 
HETATM    2  C   UNK N   1      30.234  16.879   4.208  0.00  0.00     0.119 A 
HETATM    3  C   UNK N   1      32.372  17.301   5.228  0.00  0.00     0.050 A 
HETATM    4  C   UNK N   1      30.394  17.140   6.618  0.00  0.00     0.057 A 
HETATM    5  N   UNK N   1      30.853  16.843   2.995  0.00  0.00    -0.338 N 
ATOM      6  HN  UNK N   1      30.302  16.672   2.154  1.00  0.00     0.168 HD
HETATM    7  C   UNK N   1      33.152  17.516   6.363  0.00  0.00     0.070 A 
HETATM    8  C   UNK N   1      32.568  17.547   7.636  0.00  0.00     0.104 A 
HETATM    9  C   UNK N   1      31.167  17.346   7.770  0.00  0.00     0.102 A 
HETATM   10  N   UNK N   1      32.949  17.256   3.999  0.00  0.00    -0.351 N 
ATOM     11  HN  UNK N   1      33.956  17.393   3.907  1.00  0.00     0.166 HD
HETATM   12  C   UNK N   1      32.197  17.030   2.888  0.00  0.00     0.182 A 
ENDROOT
BRANCH   2  13
HETATM   13  N   UNK N   1      28.833  16.684   4.317  0.00  0.00    -0.339 N 
HETATM   14  H   UNK N   1      28.327  17.338   4.849  0.00  0.00     0.167 HD
BRANCH  13  15
HETATM   15  C   UNK N   1      28.101  15.624   3.720  0.00  0.00     0.072 A 
HETATM   16  C   UNK N   1      28.200  14.287   4.170  0.00  0.00     0.144 A 
HETATM   17  C   UNK N   1      27.405  13.298   3.587  0.00  0.00     0.063 A 
HETATM   18  F   UNK N   1      29.016  13.940   5.194  0.00  0.00    -0.204 F 
HETATM   19  C   UNK N   1      26.512  13.622   2.566  0.00  0.00     0.014 A 
HETATM   20  C   UNK N   1      26.401  14.942   2.127  0.00  0.00     0.021 A 
HETATM   21 Br   UNK N   1      25.427  12.264   1.789  0.00  0.00    -0.051 Br
HETATM   22  C   UNK N   1      27.188  15.939   2.707  0.00  0.00     0.034 A 
ENDBRANCH  13  15
ENDBRANCH   2  13
BRANCH   9  23
HETATM   23  O   UNK N   1      30.584  17.329   8.994  0.00  0.00    -0.353 OA
HETATM   24  C   UNK N   1      29.711  18.298   9.435  0.00  0.00     0.210 C 
ENDBRANCH   9  23
BRANCH   8  25
HETATM   25  O   UNK N   1      33.388  17.763   8.695  0.00  0.00    -0.348 OA
BRANCH  25  26
HETATM   26  C   UNK N   1      34.511  17.025   8.997  0.00  0.00     0.180 C 
BRANCH  26  27
HETATM   27  C   UNK N   1      34.118  15.714   9.688  0.00  0.00     0.013 C 
HETATM   28  C   UNK N   1      34.853  15.545  11.018  0.00  0.00     0.037 C 
HETATM   29  C   UNK N   1      36.351  15.394  10.765  0.00  0.00     0.272 C 
HETATM   30  N   UNK N   1      36.609  14.231   9.915  0.00  0.00     0.084 N 
HETATM   31  C   UNK N   1      35.953  14.397   8.615  0.00  0.00     0.272 C 
HETATM   32  C   UNK N   1      38.037  14.218   9.660  0.00  0.00     0.309 C 
HETATM   33  C   UNK N   1      34.438  14.527   8.785  0.00  0.00     0.037 C 
ENDBRANCH  26  27
ENDBRANCH  25  26
ENDBRANCH   8  25
TORSDOF 6
ENDMDL
