MODEL 1
REMARK VINA RESULT:      -8.1      0.000      0.000
REMARK  2 active torsions:
REMARK  status: ('A' for Active; 'I' for Inactive)
REMARK    1  A    between atoms: C_2  and  O_13 
REMARK    2  A    between atoms: C_16  and  C_21 
ROOT
HETATM    1  C   UNK N   1      26.712  20.037   5.649  0.00  0.00     0.033 C 
HETATM    2  C   UNK N   1      26.790  19.841   4.134  0.00  0.00     0.122 C 
HETATM    3  C   UNK N   1      26.917  18.360   3.787  0.00  0.00     0.066 C 
HETATM    4  C   UNK N   1      28.101  17.790   4.505  0.00  0.00    -0.072 C 
HETATM    5  C   UNK N   1      28.177  17.984   6.019  0.00  0.00    -0.017 C 
HETATM    6  C   UNK N   1      27.968  19.478   6.329  0.00  0.00     0.016 C 
HETATM    7  C   UNK N   1      29.043  17.118   3.804  0.00  0.00    -0.023 C 
HETATM    8  C   UNK N   1      30.239  16.452   4.458  0.00  0.00     0.033 C 
HETATM    9  C   UNK N   1      29.950  16.177   5.936  0.00  0.00    -0.001 C 
HETATM   10  C   UNK N   1      29.555  17.540   6.562  0.00  0.00     0.003 C 
HETATM   11  C   UNK N   1      31.131  17.202   8.576  0.00  0.00     0.015 C 
HETATM   12  C   UNK N   1      29.689  17.548   8.100  0.00  0.00     0.007 C 
HETATM   13  C   UNK N   1      27.056  17.174   6.670  0.00  0.00     0.020 C 
HETATM   14  C   UNK N   1      32.706  17.521   6.605  0.00  0.00     0.021 C 
HETATM   15  C   UNK N   1      33.031  15.517   7.985  0.00  0.00    -0.042 C 
HETATM   16  C   UNK N   1      32.004  16.503   7.502  0.00  0.00    -0.012 C 
HETATM   17  C   UNK N   1      31.099  15.532   6.738  0.00  0.00     0.006 C 
HETATM   18  C   UNK N   1      32.027  14.493   6.121  0.00  0.00     0.033 C 
HETATM   19  C   UNK N   1      33.060  14.426   7.208  0.00  0.00    -0.018 C 
ENDROOT
BRANCH  15  20
HETATM   20  C   UNK N   1      33.900  15.688   9.177  0.00  0.00    -0.014 A 
HETATM   21  C   UNK N   1      34.623  16.872   9.374  0.00  0.00     0.099 A 
HETATM   22  N   UNK N   1      35.367  17.047  10.500  0.00  0.00    -0.374 N 
HETATM   23  C   UNK N   1      35.432  16.089  11.464  0.00  0.00     0.087 A 
ATOM     24  HN  UNK N   1      35.886  17.916  10.624  1.00  0.00     0.164 HD
HETATM   25  C   UNK N   1      34.733  14.891  11.309  0.00  0.00     0.018 A 
HETATM   26  C   UNK N   1      33.962  14.694  10.163  0.00  0.00     0.014 A 
ENDBRANCH  15  20
BRANCH   2  27
HETATM   27  O   UNK N   1      25.639  20.359   3.540  0.00  0.00    -0.395 OA
HETATM   28  H   UNK N   1      25.466  20.209   2.598  0.00  0.00     0.210 HD
ENDBRANCH   2  27
TORSDOF 2
ENDMDL
MODEL 2
REMARK VINA RESULT:      -7.9     14.581     16.164
REMARK  2 active torsions:
REMARK  status: ('A' for Active; 'I' for Inactive)
REMARK    1  A    between atoms: C_2  and  O_13 
REMARK    2  A    between atoms: C_16  and  C_21 
ROOT
HETATM    1  C   UNK N   1      27.987  28.122  -3.376  0.00  0.00     0.033 C 
HETATM    2  C   UNK N   1      26.916  28.977  -4.056  0.00  0.00     0.122 C 
HETATM    3  C   UNK N   1      25.636  28.170  -4.265  0.00  0.00     0.066 C 
HETATM    4  C   UNK N   1      25.961  26.929  -5.037  0.00  0.00    -0.072 C 
HETATM    5  C   UNK N   1      27.070  26.025  -4.498  0.00  0.00    -0.017 C 
HETATM    6  C   UNK N   1      28.315  26.891  -4.230  0.00  0.00     0.016 C 
HETATM    7  C   UNK N   1      25.263  26.643  -6.160  0.00  0.00    -0.023 C 
HETATM    8  C   UNK N   1      25.481  25.376  -6.966  0.00  0.00     0.033 C 
HETATM    9  C   UNK N   1      26.129  24.297  -6.094  0.00  0.00    -0.001 C 
HETATM   10  C   UNK N   1      27.428  24.923  -5.523  0.00  0.00     0.003 C 
HETATM   11  C   UNK N   1      28.833  22.849  -6.133  0.00  0.00     0.015 C 
HETATM   12  C   UNK N   1      28.429  23.861  -5.021  0.00  0.00     0.007 C 
HETATM   13  C   UNK N   1      26.596  25.405  -3.184  0.00  0.00     0.020 C 
HETATM   14  C   UNK N   1      28.234  23.874  -8.383  0.00  0.00     0.021 C 
HETATM   15  C   UNK N   1      27.697  21.502  -8.055  0.00  0.00    -0.042 C 
HETATM   16  C   UNK N   1      27.866  22.815  -7.344  0.00  0.00    -0.012 C 
HETATM   17  C   UNK N   1      26.442  22.961  -6.797  0.00  0.00     0.006 C 
HETATM   18  C   UNK N   1      25.522  22.377  -7.861  0.00  0.00     0.033 C 
HETATM   19  C   UNK N   1      26.413  21.276  -8.361  0.00  0.00    -0.018 C 
ENDROOT
BRANCH  15  20
HETATM   20  C   UNK N   1      28.787  20.543  -8.370  0.00  0.00    -0.014 A 
HETATM   21  C   UNK N   1      29.849  20.913  -9.205  0.00  0.00     0.099 A 
HETATM   22  N   UNK N   1      30.876  20.053  -9.439  0.00  0.00    -0.374 N 
HETATM   23  C   UNK N   1      30.908  18.815  -8.874  0.00  0.00     0.087 A 
ATOM     24  HN  UNK N   1      31.640  20.342 -10.050  1.00  0.00     0.164 HD
HETATM   25  C   UNK N   1      29.869  18.400  -8.039  0.00  0.00     0.018 A 
HETATM   26  C   UNK N   1      28.808  19.270  -7.786  0.00  0.00     0.014 A 
ENDBRANCH  15  20
BRANCH   2  27
HETATM   27  O   UNK N   1      26.638  30.089  -3.263  0.00  0.00    -0.395 OA
HETATM   28  H   UNK N   1      27.351  30.540  -2.786  0.00  0.00     0.210 HD
ENDBRANCH   2  27
TORSDOF 2
ENDMDL
MODEL 3
REMARK VINA RESULT:      -7.6      3.906      8.018
REMARK  2 active torsions:
REMARK  status: ('A' for Active; 'I' for Inactive)
REMARK    1  A    between atoms: C_2  and  O_13 
REMARK    2  A    between atoms: C_16  and  C_21 
ROOT
HETATM    1  C   UNK N   1      34.906  14.505  11.451  0.00  0.00     0.033 C 
HETATM    2  C   UNK N   1      35.977  13.671  10.744  0.00  0.00     0.122 C 
HETATM    3  C   UNK N   1      36.634  14.474   9.625  0.00  0.00     0.066 C 
HETATM    4  C   UNK N   1      35.573  14.967   8.689  0.00  0.00    -0.072 C 
HETATM    5  C   UNK N   1      34.406  15.753   9.286  0.00  0.00    -0.017 C 
HETATM    6  C   UNK N   1      33.823  14.943  10.458  0.00  0.00     0.016 C 
HETATM    7  C   UNK N   1      35.688  14.718   7.364  0.00  0.00    -0.023 C 
HETATM    8  C   UNK N   1      34.696  15.235   6.339  0.00  0.00     0.033 C 
HETATM    9  C   UNK N   1      33.943  16.447   6.894  0.00  0.00    -0.001 C 
HETATM   10  C   UNK N   1      33.301  15.986   8.229  0.00  0.00     0.003 C 
HETATM   11  C   UNK N   1      31.013  17.003   7.615  0.00  0.00     0.015 C 
HETATM   12  C   UNK N   1      32.144  16.902   8.680  0.00  0.00     0.007 C 
HETATM   13  C   UNK N   1      34.937  17.087   9.813  0.00  0.00     0.020 C 
HETATM   14  C   UNK N   1      31.276  15.054   6.002  0.00  0.00     0.021 C 
HETATM   15  C   UNK N   1      30.781  17.252   5.029  0.00  0.00    -0.042 C 
HETATM   16  C   UNK N   1      31.439  16.561   6.191  0.00  0.00    -0.012 C 
HETATM   17  C   UNK N   1      32.871  17.056   5.967  0.00  0.00     0.006 C 
HETATM   18  C   UNK N   1      33.060  17.127   4.458  0.00  0.00     0.033 C 
HETATM   19  C   UNK N   1      31.669  17.538   4.067  0.00  0.00    -0.018 C 
ENDROOT
BRANCH  15  20
HETATM   20  C   UNK N   1      29.343  17.609   4.938  0.00  0.00    -0.014 A 
HETATM   21  C   UNK N   1      28.357  16.613   4.897  0.00  0.00     0.099 A 
HETATM   22  N   UNK N   1      27.039  16.947   4.877  0.00  0.00    -0.374 N 
HETATM   23  C   UNK N   1      26.635  18.247   4.898  0.00  0.00     0.087 A 
ATOM     24  HN  UNK N   1      26.338  16.207   4.847  1.00  0.00     0.164 HD
HETATM   25  C   UNK N   1      27.581  19.273   4.933  0.00  0.00     0.018 A 
HETATM   26  C   UNK N   1      28.938  18.950   4.956  0.00  0.00     0.014 A 
ENDBRANCH  15  20
BRANCH   2  27
HETATM   27  O   UNK N   1      36.947  13.283  11.667  0.00  0.00    -0.395 OA
HETATM   28  H   UNK N   1      37.782  12.894  11.364  0.00  0.00     0.210 HD
ENDBRANCH   2  27
TORSDOF 2
ENDMDL
MODEL 4
REMARK VINA RESULT:      -7.6      8.112      9.409
REMARK  2 active torsions:
REMARK  status: ('A' for Active; 'I' for Inactive)
REMARK    1  A    between atoms: C_2  and  O_13 
REMARK    2  A    between atoms: C_16  and  C_21 
ROOT
HETATM    1  C   UNK N   1      20.473  18.870   3.890  0.00  0.00     0.033 C 
HETATM    2  C   UNK N   1      20.967  18.506   2.488  0.00  0.00     0.122 C 
HETATM    3  C   UNK N   1      20.521  17.095   2.110  0.00  0.00     0.066 C 
HETATM    4  C   UNK N   1      20.993  16.135   3.157  0.00  0.00    -0.072 C 
HETATM    5  C   UNK N   1      20.627  16.430   4.612  0.00  0.00    -0.017 C 
HETATM    6  C   UNK N   1      21.024  17.884   4.928  0.00  0.00     0.016 C 
HETATM    7  C   UNK N   1      21.705  15.046   2.787  0.00  0.00    -0.023 C 
HETATM    8  C   UNK N   1      22.167  13.989   3.772  0.00  0.00     0.033 C 
HETATM    9  C   UNK N   1      21.300  14.025   5.034  0.00  0.00    -0.001 C 
HETATM   10  C   UNK N   1      21.377  15.478   5.572  0.00  0.00     0.003 C 
HETATM   11  C   UNK N   1      21.835  14.684   7.982  0.00  0.00     0.015 C 
HETATM   12  C   UNK N   1      20.965  15.584   7.056  0.00  0.00     0.007 C 
HETATM   13  C   UNK N   1      19.114  16.276   4.772  0.00  0.00     0.020 C 
HETATM   14  C   UNK N   1      23.951  14.064   6.715  0.00  0.00     0.021 C 
HETATM   15  C   UNK N   1      22.842  12.279   7.983  0.00  0.00    -0.042 C 
HETATM   16  C   UNK N   1      22.605  13.563   7.239  0.00  0.00    -0.012 C 
HETATM   17  C   UNK N   1      21.682  13.023   6.142  0.00  0.00     0.006 C 
HETATM   18  C   UNK N   1      22.187  11.622   5.821  0.00  0.00     0.033 C 
HETATM   19  C   UNK N   1      22.637  11.215   7.195  0.00  0.00    -0.018 C 
ENDROOT
BRANCH  15  20
HETATM   20  C   UNK N   1      23.227  12.167   9.413  0.00  0.00    -0.014 A 
HETATM   21  C   UNK N   1      24.563  12.318   9.810  0.00  0.00     0.099 A 
HETATM   22  N   UNK N   1      24.900  12.278  11.127  0.00  0.00    -0.374 N 
HETATM   23  C   UNK N   1      23.962  12.092  12.095  0.00  0.00     0.087 A 
ATOM     24  HN  UNK N   1      25.878  12.390  11.395  1.00  0.00     0.164 HD
HETATM   25  C   UNK N   1      22.620  11.931  11.747  0.00  0.00     0.018 A 
HETATM   26  C   UNK N   1      22.254  11.972  10.402  0.00  0.00     0.014 A 
ENDBRANCH  15  20
BRANCH   2  27
HETATM   27  O   UNK N   1      20.455  19.417   1.565  0.00  0.00    -0.395 OA
HETATM   28  H   UNK N   1      21.026  19.783   0.872  0.00  0.00     0.210 HD
ENDBRANCH   2  27
TORSDOF 2
ENDMDL
MODEL 5
REMARK VINA RESULT:      -7.5     11.925     15.131
REMARK  2 active torsions:
REMARK  status: ('A' for Active; 'I' for Inactive)
REMARK    1  A    between atoms: C_2  and  O_13 
REMARK    2  A    between atoms: C_16  and  C_21 
ROOT
HETATM    1  C   UNK N   1      34.287  20.720  -6.747  0.00  0.00     0.033 C 
HETATM    2  C   UNK N   1      35.143  20.597  -5.484  0.00  0.00     0.122 C 
HETATM    3  C   UNK N   1      34.323  20.023  -4.332  0.00  0.00     0.066 C 
HETATM    4  C   UNK N   1      33.107  20.872  -4.126  0.00  0.00    -0.072 C 
HETATM    5  C   UNK N   1      32.206  21.132  -5.333  0.00  0.00    -0.017 C 
HETATM    6  C   UNK N   1      33.084  21.636  -6.494  0.00  0.00     0.016 C 
HETATM    7  C   UNK N   1      32.839  21.361  -2.893  0.00  0.00    -0.023 C 
HETATM    8  C   UNK N   1      31.597  22.174  -2.581  0.00  0.00     0.033 C 
HETATM    9  C   UNK N   1      30.506  21.896  -3.618  0.00  0.00    -0.001 C 
HETATM   10  C   UNK N   1      31.137  22.198  -5.003  0.00  0.00     0.003 C 
HETATM   11  C   UNK N   1      29.101  23.590  -5.756  0.00  0.00     0.015 C 
HETATM   12  C   UNK N   1      30.077  22.427  -6.101  0.00  0.00     0.007 C 
HETATM   13  C   UNK N   1      31.546  19.814  -5.739  0.00  0.00     0.020 C 
HETATM   14  C   UNK N   1      30.173  25.001  -3.932  0.00  0.00     0.021 C 
HETATM   15  C   UNK N   1      27.786  24.488  -3.690  0.00  0.00    -0.042 C 
HETATM   16  C   UNK N   1      29.083  23.981  -4.256  0.00  0.00    -0.012 C 
HETATM   17  C   UNK N   1      29.193  22.686  -3.444  0.00  0.00     0.006 C 
HETATM   18  C   UNK N   1      28.623  23.004  -2.068  0.00  0.00     0.033 C 
HETATM   19  C   UNK N   1      27.548  23.970  -2.478  0.00  0.00    -0.018 C 
ENDROOT
BRANCH  15  20
HETATM   20  C   UNK N   1      26.852  25.420  -4.371  0.00  0.00    -0.014 A 
HETATM   21  C   UNK N   1      25.789  24.934  -5.145  0.00  0.00     0.099 A 
HETATM   22  N   UNK N   1      24.900  25.791  -5.714  0.00  0.00    -0.374 N 
HETATM   23  C   UNK N   1      25.010  27.138  -5.552  0.00  0.00     0.087 A 
ATOM     24  HN  UNK N   1      24.134  25.417  -6.273  1.00  0.00     0.164 HD
HETATM   25  C   UNK N   1      26.055  27.669  -4.795  0.00  0.00     0.018 A 
HETATM   26  C   UNK N   1      26.975  26.805  -4.201  0.00  0.00     0.014 A 
ENDBRANCH  15  20
BRANCH   2  27
HETATM   27  O   UNK N   1      36.230  19.763  -5.740  0.00  0.00    -0.395 OA
HETATM   28  H   UNK N   1      36.906  19.618  -5.061  0.00  0.00     0.210 HD
ENDBRANCH   2  27
TORSDOF 2
ENDMDL
MODEL 6
REMARK VINA RESULT:      -7.5      4.587      7.021
REMARK  2 active torsions:
REMARK  status: ('A' for Active; 'I' for Inactive)
REMARK    1  A    between atoms: C_2  and  O_13 
REMARK    2  A    between atoms: C_16  and  C_21 
ROOT
HETATM    1  C   UNK N   1      20.423  19.648   3.131  0.00  0.00     0.033 C 
HETATM    2  C   UNK N   1      19.589  18.499   2.561  0.00  0.00     0.122 C 
HETATM    3  C   UNK N   1      19.671  17.272   3.466  0.00  0.00     0.066 C 
HETATM    4  C   UNK N   1      21.110  16.903   3.659  0.00  0.00    -0.072 C 
HETATM    5  C   UNK N   1      22.064  17.989   4.156  0.00  0.00    -0.017 C 
HETATM    6  C   UNK N   1      21.893  19.232   3.263  0.00  0.00     0.016 C 
HETATM    7  C   UNK N   1      21.510  15.635   3.406  0.00  0.00    -0.023 C 
HETATM    8  C   UNK N   1      22.931  15.158   3.637  0.00  0.00     0.033 C 
HETATM    9  C   UNK N   1      23.639  16.066   4.645  0.00  0.00    -0.001 C 
HETATM   10  C   UNK N   1      23.532  17.507   4.082  0.00  0.00     0.003 C 
HETATM   11  C   UNK N   1      26.033  17.979   4.495  0.00  0.00     0.015 C 
HETATM   12  C   UNK N   1      24.569  18.467   4.703  0.00  0.00     0.007 C 
HETATM   13  C   UNK N   1      21.686  18.347   5.593  0.00  0.00     0.020 C 
HETATM   14  C   UNK N   1      26.029  16.259   2.621  0.00  0.00     0.021 C 
HETATM   15  C   UNK N   1      27.383  15.751   4.604  0.00  0.00    -0.042 C 
HETATM   16  C   UNK N   1      26.157  16.478   4.128  0.00  0.00    -0.012 C 
HETATM   17  C   UNK N   1      25.111  15.718   4.949  0.00  0.00     0.006 C 
HETATM   18  C   UNK N   1      25.598  14.276   5.019  0.00  0.00     0.033 C 
HETATM   19  C   UNK N   1      27.077  14.532   5.068  0.00  0.00    -0.018 C 
ENDROOT
BRANCH  15  20
HETATM   20  C   UNK N   1      28.766  16.293   4.598  0.00  0.00    -0.014 A 
HETATM   21  C   UNK N   1      29.428  16.559   3.392  0.00  0.00     0.099 A 
HETATM   22  N   UNK N   1      30.669  17.115   3.393  0.00  0.00    -0.374 N 
HETATM   23  C   UNK N   1      31.305  17.429   4.555  0.00  0.00     0.087 A 
ATOM     24  HN  UNK N   1      31.133  17.300   2.505  1.00  0.00     0.164 HD
HETATM   25  C   UNK N   1      30.687  17.177   5.781  0.00  0.00     0.018 A 
HETATM   26  C   UNK N   1      29.413  16.610   5.800  0.00  0.00     0.014 A 
ENDBRANCH  15  20
BRANCH   2  27
HETATM   27  O   UNK N   1      18.259  18.902   2.448  0.00  0.00    -0.395 OA
HETATM   28  H   UNK N   1      17.866  19.052   1.574  0.00  0.00     0.210 HD
ENDBRANCH   2  27
TORSDOF 2
ENDMDL
MODEL 7
REMARK VINA RESULT:      -7.4      9.706     14.919
REMARK  2 active torsions:
REMARK  status: ('A' for Active; 'I' for Inactive)
REMARK    1  A    between atoms: C_2  and  O_13 
REMARK    2  A    between atoms: C_16  and  C_21 
ROOT
HETATM    1  C   UNK N   1      33.123   9.417  22.354  0.00  0.00     0.033 C 
HETATM    2  C   UNK N   1      33.033   7.898  22.196  0.00  0.00     0.122 C 
HETATM    3  C   UNK N   1      34.365   7.326  21.716  0.00  0.00     0.066 C 
HETATM    4  C   UNK N   1      34.765   8.016  20.449  0.00  0.00    -0.072 C 
HETATM    5  C   UNK N   1      34.821   9.544  20.457  0.00  0.00    -0.017 C 
HETATM    6  C   UNK N   1      33.489  10.076  21.019  0.00  0.00     0.016 C 
HETATM    7  C   UNK N   1      35.075   7.277  19.359  0.00  0.00    -0.023 C 
HETATM    8  C   UNK N   1      35.553   7.889  18.056  0.00  0.00     0.033 C 
HETATM    9  C   UNK N   1      36.135   9.283  18.307  0.00  0.00    -0.001 C 
HETATM   10  C   UNK N   1      35.026  10.094  19.026  0.00  0.00     0.003 C 
HETATM   11  C   UNK N   1      35.336  12.123  17.465  0.00  0.00     0.015 C 
HETATM   12  C   UNK N   1      35.251  11.618  18.936  0.00  0.00     0.007 C 
HETATM   13  C   UNK N   1      35.964   9.983  21.372  0.00  0.00     0.020 C 
HETATM   14  C   UNK N   1      34.334  10.333  15.961  0.00  0.00     0.021 C 
HETATM   15  C   UNK N   1      36.417  11.390  15.208  0.00  0.00    -0.042 C 
HETATM   16  C   UNK N   1      35.623  11.008  16.426  0.00  0.00    -0.012 C 
HETATM   17  C   UNK N   1      36.629  10.042  17.058  0.00  0.00     0.006 C 
HETATM   18  C   UNK N   1      37.308   9.325  15.899  0.00  0.00     0.033 C 
HETATM   19  C   UNK N   1      37.324  10.451  14.905  0.00  0.00    -0.018 C 
ENDROOT
BRANCH  15  20
HETATM   20  C   UNK N   1      36.260  12.647  14.433  0.00  0.00    -0.014 A 
HETATM   21  C   UNK N   1      36.899  13.826  14.841  0.00  0.00     0.099 A 
HETATM   22  N   UNK N   1      36.803  14.957  14.093  0.00  0.00    -0.374 N 
HETATM   23  C   UNK N   1      36.093  14.983  12.932  0.00  0.00     0.087 A 
ATOM     24  HN  UNK N   1      37.275  15.805  14.408  1.00  0.00     0.164 HD
HETATM   25  C   UNK N   1      35.435  13.835  12.489  0.00  0.00     0.018 A 
HETATM   26  C   UNK N   1      35.524  12.664  13.241  0.00  0.00     0.014 A 
ENDBRANCH  15  20
BRANCH   2  27
HETATM   27  O   UNK N   1      32.697   7.323  23.422  0.00  0.00    -0.395 OA
HETATM   28  H   UNK N   1      33.113   6.494  23.703  0.00  0.00     0.210 HD
ENDBRANCH   2  27
TORSDOF 2
ENDMDL
MODEL 8
REMARK VINA RESULT:      -7.3     14.734     16.648
REMARK  2 active torsions:
REMARK  status: ('A' for Active; 'I' for Inactive)
REMARK    1  A    between atoms: C_2  and  O_13 
REMARK    2  A    between atoms: C_16  and  C_21 
ROOT
HETATM    1  C   UNK N   1      30.419  21.038  -7.091  0.00  0.00     0.033 C 
HETATM    2  C   UNK N   1      29.263  20.051  -7.263  0.00  0.00     0.122 C 
HETATM    3  C   UNK N   1      28.142  20.673  -8.093  0.00  0.00     0.066 C 
HETATM    4  C   UNK N   1      27.715  21.958  -7.453  0.00  0.00    -0.072 C 
HETATM    5  C   UNK N   1      28.794  23.001  -7.160  0.00  0.00    -0.017 C 
HETATM    6  C   UNK N   1      29.937  22.314  -6.390  0.00  0.00     0.016 C 
HETATM    7  C   UNK N   1      26.407  22.158  -7.173  0.00  0.00    -0.023 C 
HETATM    8  C   UNK N   1      25.878  23.454  -6.587  0.00  0.00     0.033 C 
HETATM    9  C   UNK N   1      26.851  24.601  -6.870  0.00  0.00    -0.001 C 
HETATM   10  C   UNK N   1      28.225  24.155  -6.303  0.00  0.00     0.003 C 
HETATM   11  C   UNK N   1      28.596  26.414  -5.115  0.00  0.00     0.015 C 
HETATM   12  C   UNK N   1      29.187  25.341  -6.077  0.00  0.00     0.007 C 
HETATM   13  C   UNK N   1      29.331  23.531  -8.490  0.00  0.00     0.020 C 
HETATM   14  C   UNK N   1      26.682  25.345  -3.826  0.00  0.00     0.021 C 
HETATM   15  C   UNK N   1      26.321  27.614  -4.689  0.00  0.00    -0.042 C 
HETATM   16  C   UNK N   1      27.059  26.328  -4.934  0.00  0.00    -0.012 C 
HETATM   17  C   UNK N   1      26.456  25.977  -6.297  0.00  0.00     0.006 C 
HETATM   18  C   UNK N   1      25.006  26.441  -6.247  0.00  0.00     0.033 C 
HETATM   19  C   UNK N   1      25.181  27.662  -5.390  0.00  0.00    -0.018 C 
ENDROOT
BRANCH  15  20
HETATM   20  C   UNK N   1      26.780  28.720  -3.810  0.00  0.00    -0.014 A 
HETATM   21  C   UNK N   1      27.258  28.459  -2.519  0.00  0.00     0.099 A 
HETATM   22  N   UNK N   1      27.736  29.468  -1.742  0.00  0.00    -0.374 N 
HETATM   23  C   UNK N   1      27.767  30.754  -2.189  0.00  0.00     0.087 A 
ATOM     24  HN  UNK N   1      28.079  29.257  -0.806  1.00  0.00     0.164 HD
HETATM   25  C   UNK N   1      27.296  31.062  -3.466  0.00  0.00     0.018 A 
HETATM   26  C   UNK N   1      26.805  30.041  -4.278  0.00  0.00     0.014 A 
ENDBRANCH  15  20
BRANCH   2  27
HETATM   27  O   UNK N   1      29.726  18.900  -7.900  0.00  0.00    -0.395 OA
HETATM   28  H   UNK N   1      29.102  18.221  -8.196  0.00  0.00     0.210 HD
ENDBRANCH   2  27
TORSDOF 2
ENDMDL
MODEL 9
REMARK VINA RESULT:      -7.3      8.232     10.531
REMARK  2 active torsions:
REMARK  status: ('A' for Active; 'I' for Inactive)
REMARK    1  A    between atoms: C_2  and  O_13 
REMARK    2  A    between atoms: C_16  and  C_21 
ROOT
HETATM    1  C   UNK N   1      39.000  13.626   8.640  0.00  0.00     0.033 C 
HETATM    2  C   UNK N   1      38.904  12.339   7.819  0.00  0.00     0.122 C 
HETATM    3  C   UNK N   1      37.460  11.845   7.758  0.00  0.00     0.066 C 
HETATM    4  C   UNK N   1      36.940  11.681   9.153  0.00  0.00    -0.072 C 
HETATM    5  C   UNK N   1      37.048  12.878  10.098  0.00  0.00    -0.017 C 
HETATM    6  C   UNK N   1      38.500  13.391  10.070  0.00  0.00     0.016 C 
HETATM    7  C   UNK N   1      36.387  10.503   9.521  0.00  0.00    -0.023 C 
HETATM    8  C   UNK N   1      35.777  10.272  10.891  0.00  0.00     0.033 C 
HETATM    9  C   UNK N   1      35.391  11.608  11.533  0.00  0.00    -0.001 C 
HETATM   10  C   UNK N   1      36.679  12.472  11.544  0.00  0.00     0.003 C 
HETATM   11  C   UNK N   1      36.342  13.149  14.009  0.00  0.00     0.015 C 
HETATM   12  C   UNK N   1      36.604  13.637  12.554  0.00  0.00     0.007 C 
HETATM   13  C   UNK N   1      36.116  13.980   9.594  0.00  0.00     0.020 C 
HETATM   14  C   UNK N   1      36.901  10.670  14.119  0.00  0.00     0.021 C 
HETATM   15  C   UNK N   1      34.848  11.406  15.246  0.00  0.00    -0.042 C 
HETATM   16  C   UNK N   1      35.779  11.707  14.105  0.00  0.00    -0.012 C 
HETATM   17  C   UNK N   1      34.789  11.525  12.950  0.00  0.00     0.006 C 
HETATM   18  C   UNK N   1      33.864  10.389  13.366  0.00  0.00     0.033 C 
HETATM   19  C   UNK N   1      33.811  10.659  14.843  0.00  0.00    -0.018 C 
ENDROOT
BRANCH  15  20
HETATM   20  C   UNK N   1      35.012  11.879  16.644  0.00  0.00    -0.014 A 
HETATM   21  C   UNK N   1      35.355  10.986  17.668  0.00  0.00     0.099 A 
HETATM   22  N   UNK N   1      35.565  11.435  18.934  0.00  0.00    -0.374 N 
HETATM   23  C   UNK N   1      35.454  12.755  19.247  0.00  0.00     0.087 A 
ATOM     24  HN  UNK N   1      35.814  10.769  19.665  1.00  0.00     0.164 HD
HETATM   25  C   UNK N   1      35.109  13.681  18.261  0.00  0.00     0.018 A 
HETATM   26  C   UNK N   1      34.891  13.240  16.956  0.00  0.00     0.014 A 
ENDBRANCH  15  20
BRANCH   2  27
HETATM   27  O   UNK N   1      39.366  12.578   6.525  0.00  0.00    -0.395 OA
HETATM   28  H   UNK N   1      39.346  13.474   6.157  0.00  0.00     0.210 HD
ENDBRANCH   2  27
TORSDOF 2
ENDMDL
