MODEL 1
REMARK VINA RESULT:      -5.9      0.000      0.000
REMARK  3 active torsions:
REMARK  status: ('A' for Active; 'I' for Inactive)
REMARK    1  A    between atoms: C_5  and  C_10 
REMARK    2  A    between atoms: C_6  and  C_7 
REMARK    3  A    between atoms: C_9  and  C_10 
ROOT
HETATM    1  N   UNK N   1      35.956  15.025  12.046  0.00  0.00    -0.267 N 
HETATM    2  N   UNK N   1      36.436  15.263  13.251  0.00  0.00    -0.297 N 
ATOM      3  HN  UNK N   1      36.786  16.159  13.593  1.00  0.00     0.187 HD
HETATM    4  C   UNK N   1      35.840  13.098  13.137  0.00  0.00     0.063 A 
HETATM    5  C   UNK N   1      36.382  14.103  13.955  0.00  0.00     0.046 A 
HETATM    6  C   UNK N   1      35.589  13.739  11.933  0.00  0.00     0.071 A 
HETATM    7  C   UNK N   1      35.047  13.251  10.746  0.00  0.00     0.032 A 
HETATM    8  C   UNK N   1      35.828  15.927  11.042  0.00  0.00     0.116 A 
HETATM    9  C   UNK N   1      34.892  14.150   9.679  0.00  0.00     0.004 A 
HETATM   10  C   UNK N   1      35.284  15.494   9.824  0.00  0.00     0.019 A 
ENDROOT
BRANCH   4  11
HETATM   11  C   UNK N   1      35.596  11.666  13.468  0.00  0.00     0.167 C 
HETATM   12  O   UNK N   1      36.544  10.905  13.599  0.00  0.00    -0.292 OA
BRANCH  11  13
HETATM   13  C   UNK N   1      34.191  11.134  13.597  0.00  0.00     0.052 C 
HETATM   14  C   UNK N   1      33.843  10.120  12.521  0.00  0.00     0.018 C 
HETATM   15  C   UNK N   1      33.969  10.523  14.968  0.00  0.00     0.018 C 
ENDBRANCH  11  13
ENDBRANCH   4  11
BRANCH   5  16
HETATM   16  C   UNK N   1      36.835  13.980  15.389  0.00  0.00     0.030 C 
HETATM   17  C   UNK N   1      35.699  13.536  16.297  0.00  0.00     0.016 C 
HETATM   18  C   UNK N   1      37.374  15.295  15.919  0.00  0.00     0.016 C 
ENDBRANCH   5  16
TORSDOF 3
ENDMDL
MODEL 2
REMARK VINA RESULT:      -5.9      7.084      9.191
REMARK  3 active torsions:
REMARK  status: ('A' for Active; 'I' for Inactive)
REMARK    1  A    between atoms: C_5  and  C_10 
REMARK    2  A    between atoms: C_6  and  C_7 
REMARK    3  A    between atoms: C_9  and  C_10 
ROOT
HETATM    1  N   UNK N   1      30.579  17.911   8.631  0.00  0.00    -0.267 N 
HETATM    2  N   UNK N   1      31.886  18.073   8.714  0.00  0.00    -0.297 N 
ATOM      3  HN  UNK N   1      32.389  18.525   9.478  1.00  0.00     0.187 HD
HETATM    4  C   UNK N   1      31.420  17.009   6.789  0.00  0.00     0.063 A 
HETATM    5  C   UNK N   1      32.441  17.531   7.600  0.00  0.00     0.046 A 
HETATM    6  C   UNK N   1      30.256  17.281   7.492  0.00  0.00     0.071 A 
HETATM    7  C   UNK N   1      28.927  16.993   7.185  0.00  0.00     0.032 A 
HETATM    8  C   UNK N   1      29.663  18.306   9.551  0.00  0.00     0.116 A 
HETATM    9  C   UNK N   1      27.944  17.380   8.109  0.00  0.00     0.004 A 
HETATM   10  C   UNK N   1      28.310  18.039   9.298  0.00  0.00     0.019 A 
ENDROOT
BRANCH   4  11
HETATM   11  C   UNK N   1      31.542  16.329   5.469  0.00  0.00     0.167 C 
HETATM   12  O   UNK N   1      31.769  15.129   5.424  0.00  0.00    -0.292 OA
BRANCH  11  13
HETATM   13  C   UNK N   1      31.436  17.114   4.186  0.00  0.00     0.052 C 
HETATM   14  C   UNK N   1      32.745  17.168   3.417  0.00  0.00     0.018 C 
HETATM   15  C   UNK N   1      30.343  16.550   3.296  0.00  0.00     0.018 C 
ENDBRANCH  11  13
ENDBRANCH   4  11
BRANCH   5  16
HETATM   16  C   UNK N   1      33.927  17.512   7.338  0.00  0.00     0.030 C 
HETATM   17  C   UNK N   1      34.518  16.132   7.577  0.00  0.00     0.016 C 
HETATM   18  C   UNK N   1      34.663  18.499   8.225  0.00  0.00     0.016 C 
ENDBRANCH   5  16
TORSDOF 3
ENDMDL
MODEL 3
REMARK VINA RESULT:      -5.8     20.113     23.185
REMARK  3 active torsions:
REMARK  status: ('A' for Active; 'I' for Inactive)
REMARK    1  A    between atoms: C_5  and  C_10 
REMARK    2  A    between atoms: C_6  and  C_7 
REMARK    3  A    between atoms: C_9  and  C_10 
ROOT
HETATM    1  N   UNK N   1      25.571  26.085  -5.400  0.00  0.00    -0.267 N 
HETATM    2  N   UNK N   1      25.568  25.022  -6.181  0.00  0.00    -0.297 N 
ATOM      3  HN  UNK N   1      25.082  24.933  -7.074  1.00  0.00     0.187 HD
HETATM    4  C   UNK N   1      26.824  24.573  -4.372  0.00  0.00     0.063 A 
HETATM    5  C   UNK N   1      26.329  24.069  -5.585  0.00  0.00     0.046 A 
HETATM    6  C   UNK N   1      26.309  25.859  -4.303  0.00  0.00     0.071 A 
HETATM    7  C   UNK N   1      26.464  26.843  -3.329  0.00  0.00     0.032 A 
HETATM    8  C   UNK N   1      24.936  27.259  -5.643  0.00  0.00     0.116 A 
HETATM    9  C   UNK N   1      25.828  28.077  -3.539  0.00  0.00     0.004 A 
HETATM   10  C   UNK N   1      25.060  28.289  -4.699  0.00  0.00     0.019 A 
ENDROOT
BRANCH   4  11
HETATM   11  C   UNK N   1      27.694  23.892  -3.372  0.00  0.00     0.167 C 
HETATM   12  O   UNK N   1      27.230  23.562  -2.290  0.00  0.00    -0.292 OA
BRANCH  11  13
HETATM   13  C   UNK N   1      29.153  23.647  -3.661  0.00  0.00     0.052 C 
HETATM   14  C   UNK N   1      29.981  24.920  -3.639  0.00  0.00     0.018 C 
HETATM   15  C   UNK N   1      29.735  22.641  -2.684  0.00  0.00     0.018 C 
ENDBRANCH  11  13
ENDBRANCH   4  11
BRANCH   5  16
HETATM   16  C   UNK N   1      26.575  22.706  -6.187  0.00  0.00     0.030 C 
HETATM   17  C   UNK N   1      27.835  22.693  -7.038  0.00  0.00     0.016 C 
HETATM   18  C   UNK N   1      25.415  22.262  -7.056  0.00  0.00     0.016 C 
ENDBRANCH   5  16
TORSDOF 3
ENDMDL
MODEL 4
REMARK VINA RESULT:      -5.7      6.437      9.140
REMARK  3 active torsions:
REMARK  status: ('A' for Active; 'I' for Inactive)
REMARK    1  A    between atoms: C_5  and  C_10 
REMARK    2  A    between atoms: C_6  and  C_7 
REMARK    3  A    between atoms: C_9  and  C_10 
ROOT
HETATM    1  N   UNK N   1      30.195  17.516   6.721  0.00  0.00    -0.267 N 
HETATM    2  N   UNK N   1      30.650  17.131   5.544  0.00  0.00    -0.297 N 
ATOM      3  HN  UNK N   1      30.089  16.952   4.711  1.00  0.00     0.187 HD
HETATM    4  C   UNK N   1      32.394  17.347   6.948  0.00  0.00     0.063 A 
HETATM    5  C   UNK N   1      32.000  17.016   5.641  0.00  0.00     0.046 A 
HETATM    6  C   UNK N   1      31.205  17.655   7.593  0.00  0.00     0.071 A 
HETATM    7  C   UNK N   1      30.969  18.059   8.905  0.00  0.00     0.032 A 
HETATM    8  C   UNK N   1      28.898  17.755   7.039  0.00  0.00     0.116 A 
HETATM    9  C   UNK N   1      29.641  18.321   9.279  0.00  0.00     0.004 A 
HETATM   10  C   UNK N   1      28.599  18.170   8.345  0.00  0.00     0.019 A 
ENDROOT
BRANCH   4  11
HETATM   11  C   UNK N   1      33.767  17.357   7.526  0.00  0.00     0.167 C 
HETATM   12  O   UNK N   1      34.563  18.218   7.182  0.00  0.00    -0.292 OA
BRANCH  11  13
HETATM   13  C   UNK N   1      34.201  16.288   8.497  0.00  0.00     0.052 C 
HETATM   14  C   UNK N   1      35.071  15.223   7.851  0.00  0.00     0.018 C 
HETATM   15  C   UNK N   1      34.932  16.898   9.680  0.00  0.00     0.018 C 
ENDBRANCH  11  13
ENDBRANCH   4  11
BRANCH   5  16
HETATM   16  C   UNK N   1      32.883  16.605   4.488  0.00  0.00     0.030 C 
HETATM   17  C   UNK N   1      32.267  16.986   3.151  0.00  0.00     0.016 C 
HETATM   18  C   UNK N   1      33.132  15.109   4.481  0.00  0.00     0.016 C 
ENDBRANCH   5  16
TORSDOF 3
ENDMDL
MODEL 5
REMARK VINA RESULT:      -5.7      8.937     11.227
REMARK  3 active torsions:
REMARK  status: ('A' for Active; 'I' for Inactive)
REMARK    1  A    between atoms: C_5  and  C_10 
REMARK    2  A    between atoms: C_6  and  C_7 
REMARK    3  A    between atoms: C_9  and  C_10 
ROOT
HETATM    1  N   UNK N   1      27.441  19.447   6.323  0.00  0.00    -0.267 N 
HETATM    2  N   UNK N   1      27.873  19.090   7.517  0.00  0.00    -0.297 N 
ATOM      3  HN  UNK N   1      27.549  19.462   8.410  1.00  0.00     0.187 HD
HETATM    4  C   UNK N   1      28.990  17.902   5.969  0.00  0.00     0.063 A 
HETATM    5  C   UNK N   1      28.827  18.140   7.344  0.00  0.00     0.046 A 
HETATM    6  C   UNK N   1      28.085  18.762   5.366  0.00  0.00     0.071 A 
HETATM    7  C   UNK N   1      27.793  18.966   4.019  0.00  0.00     0.032 A 
HETATM    8  C   UNK N   1      26.478  20.367   6.061  0.00  0.00     0.116 A 
HETATM    9  C   UNK N   1      26.801  19.906   3.700  0.00  0.00     0.004 A 
HETATM   10  C   UNK N   1      26.139  20.611   4.723  0.00  0.00     0.019 A 
ENDROOT
BRANCH   4  11
HETATM   11  C   UNK N   1      29.924  16.955   5.298  0.00  0.00     0.167 C 
HETATM   12  O   UNK N   1      29.694  15.754   5.326  0.00  0.00    -0.292 OA
BRANCH  11  13
HETATM   13  C   UNK N   1      31.176  17.456   4.624  0.00  0.00     0.052 C 
HETATM   14  C   UNK N   1      32.412  17.320   5.497  0.00  0.00     0.018 C 
HETATM   15  C   UNK N   1      31.402  16.743   3.303  0.00  0.00     0.018 C 
ENDBRANCH  11  13
ENDBRANCH   4  11
BRANCH   5  16
HETATM   16  C   UNK N   1      29.553  17.474   8.487  0.00  0.00     0.030 C 
HETATM   17  C   UNK N   1      28.712  17.468   9.754  0.00  0.00     0.016 C 
HETATM   18  C   UNK N   1      30.865  18.170   8.797  0.00  0.00     0.016 C 
ENDBRANCH   5  16
TORSDOF 3
ENDMDL
MODEL 6
REMARK VINA RESULT:      -5.7      2.237      4.561
REMARK  3 active torsions:
REMARK  status: ('A' for Active; 'I' for Inactive)
REMARK    1  A    between atoms: C_5  and  C_10 
REMARK    2  A    between atoms: C_6  and  C_7 
REMARK    3  A    between atoms: C_9  and  C_10 
ROOT
HETATM    1  N   UNK N   1      36.709  14.210  15.548  0.00  0.00    -0.267 N 
HETATM    2  N   UNK N   1      37.099  13.872  14.334  0.00  0.00    -0.297 N 
ATOM      3  HN  UNK N   1      37.744  14.395  13.741  1.00  0.00     0.187 HD
HETATM    4  C   UNK N   1      35.679  12.302  15.091  0.00  0.00     0.063 A 
HETATM    5  C   UNK N   1      36.488  12.702  14.015  0.00  0.00     0.046 A 
HETATM    6  C   UNK N   1      35.855  13.299  16.038  0.00  0.00     0.071 A 
HETATM    7  C   UNK N   1      35.310  13.440  17.312  0.00  0.00     0.032 A 
HETATM    8  C   UNK N   1      37.100  15.311  16.237  0.00  0.00     0.116 A 
HETATM    9  C   UNK N   1      35.689  14.563  18.064  0.00  0.00     0.004 A 
HETATM   10  C   UNK N   1      36.587  15.504  17.528  0.00  0.00     0.019 A 
ENDROOT
BRANCH   4  11
HETATM   11  C   UNK N   1      34.814  11.093  15.199  0.00  0.00     0.167 C 
HETATM   12  O   UNK N   1      33.704  11.095  14.688  0.00  0.00    -0.292 OA
BRANCH  11  13
HETATM   13  C   UNK N   1      35.274   9.884  15.974  0.00  0.00     0.052 C 
HETATM   14  C   UNK N   1      36.778   9.859  16.190  0.00  0.00     0.018 C 
HETATM   15  C   UNK N   1      34.563   9.796  17.311  0.00  0.00     0.018 C 
ENDBRANCH  11  13
ENDBRANCH   4  11
BRANCH   5  16
HETATM   16  C   UNK N   1      36.696  11.988  12.701  0.00  0.00     0.030 C 
HETATM   17  C   UNK N   1      37.706  10.859  12.834  0.00  0.00     0.016 C 
HETATM   18  C   UNK N   1      37.187  12.935  11.623  0.00  0.00     0.016 C 
ENDBRANCH   5  16
TORSDOF 3
ENDMDL
MODEL 7
REMARK VINA RESULT:      -5.6      8.882     10.855
REMARK  3 active torsions:
REMARK  status: ('A' for Active; 'I' for Inactive)
REMARK    1  A    between atoms: C_5  and  C_10 
REMARK    2  A    between atoms: C_6  and  C_7 
REMARK    3  A    between atoms: C_9  and  C_10 
ROOT
HETATM    1  N   UNK N   1      31.360  17.094   6.348  0.00  0.00    -0.267 N 
HETATM    2  N   UNK N   1      30.910  17.349   7.561  0.00  0.00    -0.297 N 
ATOM      3  HN  UNK N   1      31.415  17.195   8.435  1.00  0.00     0.187 HD
HETATM    4  C   UNK N   1      29.316  17.907   6.078  0.00  0.00     0.063 A 
HETATM    5  C   UNK N   1      29.655  17.851   7.440  0.00  0.00     0.046 A 
HETATM    6  C   UNK N   1      30.437  17.411   5.428  0.00  0.00     0.071 A 
HETATM    7  C   UNK N   1      30.688  17.233   4.070  0.00  0.00     0.032 A 
HETATM    8  C   UNK N   1      32.581  16.591   6.036  0.00  0.00     0.116 A 
HETATM    9  C   UNK N   1      31.940  16.718   3.698  0.00  0.00     0.004 A 
HETATM   10  C   UNK N   1      32.892  16.394   4.683  0.00  0.00     0.019 A 
ENDROOT
BRANCH   4  11
HETATM   11  C   UNK N   1      28.045  18.377   5.458  0.00  0.00     0.167 C 
HETATM   12  O   UNK N   1      27.095  17.613   5.371  0.00  0.00    -0.292 OA
BRANCH  11  13
HETATM   13  C   UNK N   1      27.933  19.772   4.894  0.00  0.00     0.052 C 
HETATM   14  C   UNK N   1      26.944  19.865   3.745  0.00  0.00     0.018 C 
HETATM   15  C   UNK N   1      27.553  20.763   5.979  0.00  0.00     0.018 C 
ENDBRANCH  11  13
ENDBRANCH   4  11
BRANCH   5  16
HETATM   16  C   UNK N   1      28.812  18.276   8.618  0.00  0.00     0.030 C 
HETATM   17  C   UNK N   1      29.673  18.630   9.820  0.00  0.00     0.016 C 
HETATM   18  C   UNK N   1      27.846  17.184   9.036  0.00  0.00     0.016 C 
ENDBRANCH   5  16
TORSDOF 3
ENDMDL
MODEL 8
REMARK VINA RESULT:      -5.6     20.677     23.702
REMARK  3 active torsions:
REMARK  status: ('A' for Active; 'I' for Inactive)
REMARK    1  A    between atoms: C_5  and  C_10 
REMARK    2  A    between atoms: C_6  and  C_7 
REMARK    3  A    between atoms: C_9  and  C_10 
ROOT
HETATM    1  N   UNK N   1      25.958  25.120  -7.113  0.00  0.00    -0.267 N 
HETATM    2  N   UNK N   1      26.092  26.355  -6.669  0.00  0.00    -0.297 N 
ATOM      3  HN  UNK N   1      25.867  27.207  -7.185  1.00  0.00     0.187 HD
HETATM    4  C   UNK N   1      26.759  24.941  -5.054  0.00  0.00     0.063 A 
HETATM    5  C   UNK N   1      26.582  26.290  -5.405  0.00  0.00     0.046 A 
HETATM    6  C   UNK N   1      26.350  24.240  -6.178  0.00  0.00     0.071 A 
HETATM    7  C   UNK N   1      26.295  22.869  -6.417  0.00  0.00     0.032 A 
HETATM    8  C   UNK N   1      25.489  24.752  -8.331  0.00  0.00     0.116 A 
HETATM    9  C   UNK N   1      25.812  22.441  -7.664  0.00  0.00     0.004 A 
HETATM   10  C   UNK N   1      25.407  23.384  -8.627  0.00  0.00     0.019 A 
ENDROOT
BRANCH   4  11
HETATM   11  C   UNK N   1      27.279  24.378  -3.776  0.00  0.00     0.167 C 
HETATM   12  O   UNK N   1      26.554  24.336  -2.793  0.00  0.00    -0.292 OA
BRANCH  11  13
HETATM   13  C   UNK N   1      28.707  23.903  -3.668  0.00  0.00     0.052 C 
HETATM   14  C   UNK N   1      29.715  25.033  -3.786  0.00  0.00     0.018 C 
HETATM   15  C   UNK N   1      28.929  23.151  -2.368  0.00  0.00     0.018 C 
ENDBRANCH  11  13
ENDBRANCH   4  11
BRANCH   5  16
HETATM   16  C   UNK N   1      26.858  27.507  -4.557  0.00  0.00     0.030 C 
HETATM   17  C   UNK N   1      25.689  27.825  -3.639  0.00  0.00     0.016 C 
HETATM   18  C   UNK N   1      27.131  28.731  -5.411  0.00  0.00     0.016 C 
ENDBRANCH   5  16
TORSDOF 3
ENDMDL
MODEL 9
REMARK VINA RESULT:      -5.3     20.297     22.717
REMARK  3 active torsions:
REMARK  status: ('A' for Active; 'I' for Inactive)
REMARK    1  A    between atoms: C_5  and  C_10 
REMARK    2  A    between atoms: C_6  and  C_7 
REMARK    3  A    between atoms: C_9  and  C_10 
ROOT
HETATM    1  N   UNK N   1      28.506  22.545  -6.402  0.00  0.00    -0.267 N 
HETATM    2  N   UNK N   1      29.542  22.829  -5.637  0.00  0.00    -0.297 N 
ATOM      3  HN  UNK N   1      30.493  22.478  -5.757  1.00  0.00     0.187 HD
HETATM    4  C   UNK N   1      27.745  23.917  -4.837  0.00  0.00     0.063 A 
HETATM    5  C   UNK N   1      29.117  23.671  -4.661  0.00  0.00     0.046 A 
HETATM    6  C   UNK N   1      27.407  23.174  -5.958  0.00  0.00     0.071 A 
HETATM    7  C   UNK N   1      26.185  23.029  -6.611  0.00  0.00     0.032 A 
HETATM    8  C   UNK N   1      28.514  21.743  -7.496  0.00  0.00     0.116 A 
HETATM    9  C   UNK N   1      26.146  22.211  -7.751  0.00  0.00     0.004 A 
HETATM   10  C   UNK N   1      27.313  21.564  -8.198  0.00  0.00     0.019 A 
ENDROOT
BRANCH   4  11
HETATM   11  C   UNK N   1      26.843  24.768  -4.010  0.00  0.00     0.167 C 
HETATM   12  O   UNK N   1      26.307  24.296  -3.017  0.00  0.00    -0.292 OA
BRANCH  11  13
HETATM   13  C   UNK N   1      26.547  26.191  -4.409  0.00  0.00     0.052 C 
HETATM   14  C   UNK N   1      25.381  26.302  -5.377  0.00  0.00     0.018 C 
HETATM   15  C   UNK N   1      26.282  27.051  -3.187  0.00  0.00     0.018 C 
ENDBRANCH  11  13
ENDBRANCH   4  11
BRANCH   5  16
HETATM   16  C   UNK N   1      30.024  24.231  -3.593  0.00  0.00     0.030 C 
HETATM   17  C   UNK N   1      30.488  25.638  -3.936  0.00  0.00     0.016 C 
HETATM   18  C   UNK N   1      31.254  23.365  -3.396  0.00  0.00     0.016 C 
ENDBRANCH   5  16
TORSDOF 3
ENDMDL
