MODEL 1
REMARK VINA RESULT:      -7.7      0.000      0.000
REMARK  6 active torsions:
REMARK  status: ('A' for Active; 'I' for Inactive)
REMARK    1  A    between atoms: C_3  and  O_22 
REMARK    2  A    between atoms: C_8  and  C_9 
REMARK    3  A    between atoms: S_10  and  C_9 
REMARK    4  A    between atoms: S_10  and  C_12 
REMARK    5  A    between atoms: O_22  and  C_23 
REMARK    6  A    between atoms: C_23  and  C_24 
ROOT
HETATM    1  C   UNK N   1      30.304  17.120   5.496  0.00  0.00     0.053 C 
HETATM    2  C   UNK N   1      30.053  17.585   6.896  0.00  0.00    -0.005 A 
HETATM    3  C   UNK N   1      28.818  18.157   7.233  0.00  0.00     0.078 A 
HETATM    4  C   UNK N   1      28.602  18.603   8.545  0.00  0.00     0.054 A 
HETATM    5  C   UNK N   1      29.616  18.473   9.493  0.00  0.00     0.091 A 
HETATM    6  N   UNK N   1      30.815  17.939   9.141  0.00  0.00    -0.368 N 
ATOM      7  HN  UNK N   1      31.551  17.868   9.843  1.00  0.00     0.165 HD
HETATM    8  C   UNK N   1      31.059  17.497   7.877  0.00  0.00     0.029 A 
ENDROOT
BRANCH   8   9
HETATM    9  C   UNK N   1      32.410  16.953   7.553  0.00  0.00     0.175 C 
BRANCH   9  10
HETATM   10  S   UNK N   1      33.686  18.123   8.087  0.00  0.00     0.090 S 
HETATM   11  O   UNK N   1      34.519  17.856   6.823  0.00  0.00    -0.249 OA
BRANCH  10  12
HETATM   12  C   UNK N   1      34.540  16.888   9.074  0.00  0.00     0.176 A 
HETATM   13  N   UNK N   1      34.773  17.007  10.406  0.00  0.00    -0.333 N 
HETATM   14  C   UNK N   1      35.379  15.856  10.731  0.00  0.00     0.061 A 
HETATM   15  H   UNK N   1      34.549  17.762  10.997  0.00  0.00     0.168 HD
HETATM   16  C   UNK N   1      35.827  15.447  11.981  0.00  0.00     0.032 A 
HETATM   17  C   UNK N   1      35.501  15.076   9.623  0.00  0.00     0.061 A 
HETATM   18  C   UNK N   1      36.424  14.174  12.069  0.00  0.00     0.002 A 
HETATM   19  C   UNK N   1      36.552  13.360  10.918  0.00  0.00     0.002 A 
HETATM   20  C   UNK N   1      36.085  13.813   9.668  0.00  0.00     0.032 A 
HETATM   21  N   UNK N   1      34.977  15.707   8.563  0.00  0.00    -0.333 N 
ATOM     22  HN  UNK N   1      34.920  15.378   7.600  1.00  0.00     0.168 HD
ENDBRANCH  10  12
ENDBRANCH   9  10
ENDBRANCH   8   9
BRANCH   3  23
HETATM   23  O   UNK N   1      27.862  18.290   6.284  0.00  0.00    -0.342 OA
BRANCH  23  24
HETATM   24  C   UNK N   1      27.006  19.369   6.243  0.00  0.00     0.293 C 
BRANCH  24  25
HETATM   25  C   UNK N   1      27.562  20.471   5.360  0.00  0.00     0.408 C 
HETATM   26  F   UNK N   1      26.550  20.949   4.549  0.00  0.00    -0.169 F 
HETATM   27  F   UNK N   1      28.573  19.955   4.571  0.00  0.00    -0.169 F 
HETATM   28  F   UNK N   1      28.059  21.514   6.123  0.00  0.00    -0.169 F 
ENDBRANCH  24  25
ENDBRANCH  23  24
ENDBRANCH   3  23
TORSDOF 6
ENDMDL
MODEL 2
REMARK VINA RESULT:      -7.2      3.326      4.521
REMARK  6 active torsions:
REMARK  status: ('A' for Active; 'I' for Inactive)
REMARK    1  A    between atoms: C_3  and  O_22 
REMARK    2  A    between atoms: C_8  and  C_9 
REMARK    3  A    between atoms: S_10  and  C_9 
REMARK    4  A    between atoms: S_10  and  C_12 
REMARK    5  A    between atoms: O_22  and  C_23 
REMARK    6  A    between atoms: C_23  and  C_24 
ROOT
HETATM    1  C   UNK N   1      31.928  14.889   9.515  0.00  0.00     0.053 C 
HETATM    2  C   UNK N   1      32.664  16.090   9.009  0.00  0.00    -0.005 A 
HETATM    3  C   UNK N   1      31.990  17.053   8.244  0.00  0.00     0.078 A 
HETATM    4  C   UNK N   1      32.695  18.166   7.763  0.00  0.00     0.054 A 
HETATM    5  C   UNK N   1      34.053  18.298   8.050  0.00  0.00     0.091 A 
HETATM    6  N   UNK N   1      34.694  17.341   8.772  0.00  0.00    -0.368 N 
ATOM      7  HN  UNK N   1      35.691  17.445   8.958  1.00  0.00     0.165 HD
HETATM    8  C   UNK N   1      34.041  16.249   9.254  0.00  0.00     0.029 A 
ENDROOT
BRANCH   8   9
HETATM    9  C   UNK N   1      34.816  15.221  10.009  0.00  0.00     0.175 C 
BRANCH   9  10
HETATM   10  S   UNK N   1      35.709  16.010  11.373  0.00  0.00     0.090 S 
HETATM   11  O   UNK N   1      37.062  15.757  10.689  0.00  0.00    -0.249 OA
BRANCH  10  12
HETATM   12  C   UNK N   1      35.763  14.495  12.339  0.00  0.00     0.176 A 
HETATM   13  N   UNK N   1      36.731  14.205  13.246  0.00  0.00    -0.333 N 
HETATM   14  C   UNK N   1      36.352  13.023  13.754  0.00  0.00     0.061 A 
HETATM   15  H   UNK N   1      37.526  14.737  13.477  0.00  0.00     0.168 HD
HETATM   16  C   UNK N   1      36.984  12.272  14.737  0.00  0.00     0.032 A 
HETATM   17  C   UNK N   1      35.191  12.626  13.167  0.00  0.00     0.061 A 
HETATM   18  C   UNK N   1      36.375  11.058  15.115  0.00  0.00     0.002 A 
HETATM   19  C   UNK N   1      35.167  10.642  14.506  0.00  0.00     0.002 A 
HETATM   20  C   UNK N   1      34.559  11.434  13.512  0.00  0.00     0.032 A 
HETATM   21  N   UNK N   1      34.799  13.540  12.270  0.00  0.00    -0.333 N 
ATOM     22  HN  UNK N   1      33.972  13.522  11.674  1.00  0.00     0.168 HD
ENDBRANCH  10  12
ENDBRANCH   9  10
ENDBRANCH   8   9
BRANCH   3  23
HETATM   23  O   UNK N   1      30.676  16.885   7.963  0.00  0.00    -0.342 OA
BRANCH  23  24
HETATM   24  C   UNK N   1      29.760  17.907   8.073  0.00  0.00     0.293 C 
BRANCH  24  25
HETATM   25  C   UNK N   1      29.202  17.989   9.483  0.00  0.00     0.408 C 
HETATM   26  F   UNK N   1      27.855  18.287   9.414  0.00  0.00    -0.169 F 
HETATM   27  F   UNK N   1      29.856  18.992  10.172  0.00  0.00    -0.169 F 
HETATM   28  F   UNK N   1      29.366  16.787  10.150  0.00  0.00    -0.169 F 
ENDBRANCH  24  25
ENDBRANCH  23  24
ENDBRANCH   3  23
TORSDOF 6
ENDMDL
MODEL 3
REMARK VINA RESULT:      -7.1      9.439     11.641
REMARK  6 active torsions:
REMARK  status: ('A' for Active; 'I' for Inactive)
REMARK    1  A    between atoms: C_3  and  O_22 
REMARK    2  A    between atoms: C_8  and  C_9 
REMARK    3  A    between atoms: S_10  and  C_9 
REMARK    4  A    between atoms: S_10  and  C_12 
REMARK    5  A    between atoms: O_22  and  C_23 
REMARK    6  A    between atoms: C_23  and  C_24 
ROOT
HETATM    1  C   UNK N   1      22.646  13.394   7.128  0.00  0.00     0.053 C 
HETATM    2  C   UNK N   1      21.683  14.356   7.750  0.00  0.00    -0.005 A 
HETATM    3  C   UNK N   1      20.896  13.953   8.839  0.00  0.00     0.078 A 
HETATM    4  C   UNK N   1      19.986  14.860   9.402  0.00  0.00     0.054 A 
HETATM    5  C   UNK N   1      19.877  16.145   8.873  0.00  0.00     0.091 A 
HETATM    6  N   UNK N   1      20.631  16.508   7.803  0.00  0.00    -0.368 N 
ATOM      7  HN  UNK N   1      20.525  17.447   7.418  1.00  0.00     0.165 HD
HETATM    8  C   UNK N   1      21.523  15.654   7.231  0.00  0.00     0.029 A 
ENDROOT
BRANCH   8   9
HETATM    9  C   UNK N   1      22.293  16.110   6.036  0.00  0.00     0.175 C 
BRANCH   9  10
HETATM   10  S   UNK N   1      21.419  17.477   5.230  0.00  0.00     0.090 S 
HETATM   11  O   UNK N   1      21.278  16.674   3.927  0.00  0.00    -0.249 OA
BRANCH  10  12
HETATM   12  C   UNK N   1      22.945  18.281   4.727  0.00  0.00     0.176 A 
HETATM   13  N   UNK N   1      23.043  19.139   3.680  0.00  0.00    -0.333 N 
HETATM   14  C   UNK N   1      24.327  19.529   3.703  0.00  0.00     0.061 A 
HETATM   15  H   UNK N   1      22.338  19.411   3.049  0.00  0.00     0.168 HD
HETATM   16  C   UNK N   1      24.966  20.420   2.850  0.00  0.00     0.032 A 
HETATM   17  C   UNK N   1      24.969  18.921   4.736  0.00  0.00     0.061 A 
HETATM   18  C   UNK N   1      26.330  20.681   3.091  0.00  0.00     0.002 A 
HETATM   19  C   UNK N   1      27.001  20.050   4.166  0.00  0.00     0.002 A 
HETATM   20  C   UNK N   1      26.315  19.152   5.007  0.00  0.00     0.032 A 
HETATM   21  N   UNK N   1      24.117  18.128   5.399  0.00  0.00    -0.333 N 
ATOM     22  HN  UNK N   1      24.303  17.546   6.215  1.00  0.00     0.168 HD
ENDBRANCH  10  12
ENDBRANCH   9  10
ENDBRANCH   8   9
BRANCH   3  23
HETATM   23  O   UNK N   1      21.009  12.691   9.315  0.00  0.00    -0.342 OA
BRANCH  23  24
HETATM   24  C   UNK N   1      21.350  12.422  10.622  0.00  0.00     0.293 C 
BRANCH  24  25
HETATM   25  C   UNK N   1      22.789  11.949  10.724  0.00  0.00     0.408 C 
HETATM   26  F   UNK N   1      23.629  13.019  10.488  0.00  0.00    -0.169 F 
HETATM   27  F   UNK N   1      23.014  10.973   9.773  0.00  0.00    -0.169 F 
HETATM   28  F   UNK N   1      23.053  11.436  11.983  0.00  0.00    -0.169 F 
ENDBRANCH  24  25
ENDBRANCH  23  24
ENDBRANCH   3  23
TORSDOF 6
ENDMDL
MODEL 4
REMARK VINA RESULT:      -6.9      9.188     12.235
REMARK  6 active torsions:
REMARK  status: ('A' for Active; 'I' for Inactive)
REMARK    1  A    between atoms: C_3  and  O_22 
REMARK    2  A    between atoms: C_8  and  C_9 
REMARK    3  A    between atoms: S_10  and  C_9 
REMARK    4  A    between atoms: S_10  and  C_12 
REMARK    5  A    between atoms: O_22  and  C_23 
REMARK    6  A    between atoms: C_23  and  C_24 
ROOT
HETATM    1  C   UNK N   1      35.065  10.066  16.372  0.00  0.00     0.053 C 
HETATM    2  C   UNK N   1      35.133  11.294  17.225  0.00  0.00    -0.005 A 
HETATM    3  C   UNK N   1      35.239  11.174  18.618  0.00  0.00     0.078 A 
HETATM    4  C   UNK N   1      35.286  12.334  19.406  0.00  0.00     0.054 A 
HETATM    5  C   UNK N   1      35.226  13.585  18.795  0.00  0.00     0.091 A 
HETATM    6  N   UNK N   1      35.099  13.680  17.446  0.00  0.00    -0.368 N 
ATOM      7  HN  UNK N   1      35.038  14.604  17.017  1.00  0.00     0.165 HD
HETATM    8  C   UNK N   1      35.050  12.577  16.651  0.00  0.00     0.029 A 
ENDROOT
BRANCH   8   9
HETATM    9  C   UNK N   1      34.875  12.756  15.180  0.00  0.00     0.175 C 
BRANCH   9  10
HETATM   10  S   UNK N   1      36.494  12.932  14.388  0.00  0.00     0.090 S 
HETATM   11  O   UNK N   1      36.833  14.155  15.254  0.00  0.00    -0.249 OA
BRANCH  10  12
HETATM   12  C   UNK N   1      35.832  13.907  13.032  0.00  0.00     0.176 A 
HETATM   13  N   UNK N   1      36.298  15.132  12.678  0.00  0.00    -0.333 N 
HETATM   14  C   UNK N   1      35.560  15.459  11.606  0.00  0.00     0.061 A 
HETATM   15  H   UNK N   1      37.010  15.659  13.107  0.00  0.00     0.168 HD
HETATM   16  C   UNK N   1      35.633  16.614  10.837  0.00  0.00     0.032 A 
HETATM   17  C   UNK N   1      34.684  14.455  11.332  0.00  0.00     0.061 A 
HETATM   18  C   UNK N   1      34.752  16.718   9.741  0.00  0.00     0.002 A 
HETATM   19  C   UNK N   1      33.839  15.675   9.454  0.00  0.00     0.002 A 
HETATM   20  C   UNK N   1      33.798  14.520  10.260  0.00  0.00     0.032 A 
HETATM   21  N   UNK N   1      34.837  13.463  12.219  0.00  0.00    -0.333 N 
ATOM     22  HN  UNK N   1      34.327  12.582  12.272  1.00  0.00     0.168 HD
ENDBRANCH  10  12
ENDBRANCH   9  10
ENDBRANCH   8   9
BRANCH   3  23
HETATM   23  O   UNK N   1      35.272   9.945  19.183  0.00  0.00    -0.342 OA
BRANCH  23  24
HETATM   24  C   UNK N   1      34.716   9.682  20.416  0.00  0.00     0.293 C 
BRANCH  24  25
HETATM   25  C   UNK N   1      33.379   8.978  20.271  0.00  0.00     0.408 C 
HETATM   26  F   UNK N   1      33.476   7.716  20.824  0.00  0.00    -0.169 F 
HETATM   27  F   UNK N   1      33.067   8.866  18.930  0.00  0.00    -0.169 F 
HETATM   28  F   UNK N   1      32.378   9.680  20.921  0.00  0.00    -0.169 F 
ENDBRANCH  24  25
ENDBRANCH  23  24
ENDBRANCH   3  23
TORSDOF 6
ENDMDL
MODEL 5
REMARK VINA RESULT:      -6.9     14.029     17.198
REMARK  6 active torsions:
REMARK  status: ('A' for Active; 'I' for Inactive)
REMARK    1  A    between atoms: C_3  and  O_22 
REMARK    2  A    between atoms: C_8  and  C_9 
REMARK    3  A    between atoms: S_10  and  C_9 
REMARK    4  A    between atoms: S_10  and  C_12 
REMARK    5  A    between atoms: O_22  and  C_23 
REMARK    6  A    between atoms: C_23  and  C_24 
ROOT
HETATM    1  C   UNK N   1      29.494  23.488  -6.499  0.00  0.00     0.053 C 
HETATM    2  C   UNK N   1      29.336  22.064  -6.930  0.00  0.00    -0.005 A 
HETATM    3  C   UNK N   1      30.326  21.122  -6.613  0.00  0.00     0.078 A 
HETATM    4  C   UNK N   1      30.172  19.794  -7.037  0.00  0.00     0.054 A 
HETATM    5  C   UNK N   1      29.041  19.430  -7.766  0.00  0.00     0.091 A 
HETATM    6  N   UNK N   1      28.105  20.362  -8.084  0.00  0.00    -0.368 N 
ATOM      7  HN  UNK N   1      27.292  20.081  -8.633  1.00  0.00     0.165 HD
HETATM    8  C   UNK N   1      28.222  21.659  -7.690  0.00  0.00     0.029 A 
ENDROOT
BRANCH   8   9
HETATM    9  C   UNK N   1      27.172  22.636  -8.104  0.00  0.00     0.175 C 
BRANCH   9  10
HETATM   10  S   UNK N   1      25.636  22.303  -7.203  0.00  0.00     0.090 S 
HETATM   11  O   UNK N   1      24.792  22.924  -8.327  0.00  0.00    -0.249 OA
BRANCH  10  12
HETATM   12  C   UNK N   1      25.748  23.828  -6.260  0.00  0.00     0.176 A 
HETATM   13  N   UNK N   1      25.254  25.021  -6.681  0.00  0.00    -0.333 N 
HETATM   14  C   UNK N   1      25.510  25.853  -5.660  0.00  0.00     0.061 A 
HETATM   15  H   UNK N   1      24.812  25.227  -7.536  0.00  0.00     0.168 HD
HETATM   16  C   UNK N   1      25.201  27.204  -5.560  0.00  0.00     0.032 A 
HETATM   17  C   UNK N   1      26.134  25.172  -4.662  0.00  0.00     0.061 A 
HETATM   18  C   UNK N   1      25.563  27.863  -4.368  0.00  0.00     0.002 A 
HETATM   19  C   UNK N   1      26.213  27.157  -3.328  0.00  0.00     0.002 A 
HETATM   20  C   UNK N   1      26.509  25.787  -3.470  0.00  0.00     0.032 A 
HETATM   21  N   UNK N   1      26.295  23.890  -5.017  0.00  0.00    -0.333 N 
ATOM     22  HN  UNK N   1      26.727  23.138  -4.481  1.00  0.00     0.168 HD
ENDBRANCH  10  12
ENDBRANCH   9  10
ENDBRANCH   8   9
BRANCH   3  23
HETATM   23  O   UNK N   1      31.423  21.513  -5.924  0.00  0.00    -0.342 OA
BRANCH  23  24
HETATM   24  C   UNK N   1      31.844  20.872  -4.779  0.00  0.00     0.293 C 
BRANCH  24  25
HETATM   25  C   UNK N   1      31.368  21.606  -3.538  0.00  0.00     0.408 C 
HETATM   26  F   UNK N   1      30.084  21.192  -3.238  0.00  0.00    -0.169 F 
HETATM   27  F   UNK N   1      31.362  22.964  -3.788  0.00  0.00    -0.169 F 
HETATM   28  F   UNK N   1      32.192  21.337  -2.458  0.00  0.00    -0.169 F 
ENDBRANCH  24  25
ENDBRANCH  23  24
ENDBRANCH   3  23
TORSDOF 6
ENDMDL
MODEL 6
REMARK VINA RESULT:      -6.8      4.655      9.842
REMARK  6 active torsions:
REMARK  status: ('A' for Active; 'I' for Inactive)
REMARK    1  A    between atoms: C_3  and  O_22 
REMARK    2  A    between atoms: C_8  and  C_9 
REMARK    3  A    between atoms: S_10  and  C_9 
REMARK    4  A    between atoms: S_10  and  C_12 
REMARK    5  A    between atoms: O_22  and  C_23 
REMARK    6  A    between atoms: C_23  and  C_24 
ROOT
HETATM    1  C   UNK N   1      30.050  17.211   5.355  0.00  0.00     0.053 C 
HETATM    2  C   UNK N   1      29.569  17.632   6.709  0.00  0.00    -0.005 A 
HETATM    3  C   UNK N   1      30.454  17.633   7.797  0.00  0.00     0.078 A 
HETATM    4  C   UNK N   1      29.987  18.015   9.063  0.00  0.00     0.054 A 
HETATM    5  C   UNK N   1      28.652  18.385   9.222  0.00  0.00     0.091 A 
HETATM    6  N   UNK N   1      27.805  18.354   8.161  0.00  0.00    -0.368 N 
ATOM      7  HN  UNK N   1      26.828  18.612   8.299  1.00  0.00     0.165 HD
HETATM    8  C   UNK N   1      28.224  17.989   6.918  0.00  0.00     0.029 A 
ENDROOT
BRANCH   8   9
HETATM    9  C   UNK N   1      27.230  17.945   5.806  0.00  0.00     0.175 C 
BRANCH   9  10
HETATM   10  S   UNK N   1      27.231  19.526   4.922  0.00  0.00     0.090 S 
HETATM   11  O   UNK N   1      26.974  20.302   6.223  0.00  0.00    -0.249 OA
BRANCH  10  12
HETATM   12  C   UNK N   1      25.489  19.397   4.497  0.00  0.00     0.176 A 
HETATM   13  N   UNK N   1      24.606  18.593   5.141  0.00  0.00    -0.333 N 
HETATM   14  C   UNK N   1      23.436  18.850   4.537  0.00  0.00     0.061 A 
HETATM   15  H   UNK N   1      24.782  17.967   5.880  0.00  0.00     0.168 HD
HETATM   16  C   UNK N   1      22.191  18.303   4.816  0.00  0.00     0.032 A 
HETATM   17  C   UNK N   1      23.622  19.782   3.563  0.00  0.00     0.061 A 
HETATM   18  C   UNK N   1      21.100  18.750   4.043  0.00  0.00     0.002 A 
HETATM   19  C   UNK N   1      21.289  19.719   3.030  0.00  0.00     0.002 A 
HETATM   20  C   UNK N   1      22.570  20.249   2.779  0.00  0.00     0.032 A 
HETATM   21  N   UNK N   1      24.911  20.144   3.519  0.00  0.00    -0.333 N 
ATOM     22  HN  UNK N   1      25.353  20.820   2.897  1.00  0.00     0.168 HD
ENDBRANCH  10  12
ENDBRANCH   9  10
ENDBRANCH   8   9
BRANCH   3  23
HETATM   23  O   UNK N   1      31.739  17.246   7.614  0.00  0.00    -0.342 OA
BRANCH  23  24
HETATM   24  C   UNK N   1      32.720  17.473   8.554  0.00  0.00     0.293 C 
BRANCH  24  25
HETATM   25  C   UNK N   1      34.022  17.888   7.893  0.00  0.00     0.408 C 
HETATM   26  F   UNK N   1      33.859  17.850   6.521  0.00  0.00    -0.169 F 
HETATM   27  F   UNK N   1      35.019  17.004   8.258  0.00  0.00    -0.169 F 
HETATM   28  F   UNK N   1      34.381  19.171   8.269  0.00  0.00    -0.169 F 
ENDBRANCH  24  25
ENDBRANCH  23  24
ENDBRANCH   3  23
TORSDOF 6
ENDMDL
MODEL 7
REMARK VINA RESULT:      -6.8     11.399     13.593
REMARK  6 active torsions:
REMARK  status: ('A' for Active; 'I' for Inactive)
REMARK    1  A    between atoms: C_3  and  O_22 
REMARK    2  A    between atoms: C_8  and  C_9 
REMARK    3  A    between atoms: S_10  and  C_9 
REMARK    4  A    between atoms: S_10  and  C_12 
REMARK    5  A    between atoms: O_22  and  C_23 
REMARK    6  A    between atoms: C_23  and  C_24 
ROOT
HETATM    1  C   UNK N   1      21.548  12.256   7.025  0.00  0.00     0.053 C 
HETATM    2  C   UNK N   1      20.993  13.518   7.608  0.00  0.00    -0.005 A 
HETATM    3  C   UNK N   1      20.678  13.578   8.974  0.00  0.00     0.078 A 
HETATM    4  C   UNK N   1      20.144  14.762   9.504  0.00  0.00     0.054 A 
HETATM    5  C   UNK N   1      19.935  15.859   8.669  0.00  0.00     0.091 A 
HETATM    6  N   UNK N   1      20.223  15.772   7.344  0.00  0.00    -0.368 N 
ATOM      7  HN  UNK N   1      20.047  16.578   6.744  1.00  0.00     0.165 HD
HETATM    8  C   UNK N   1      20.742  14.639   6.796  0.00  0.00     0.029 A 
ENDROOT
BRANCH   8   9
HETATM    9  C   UNK N   1      21.003  14.604   5.327  0.00  0.00     0.175 C 
BRANCH   9  10
HETATM   10  S   UNK N   1      19.478  14.982   4.425  0.00  0.00     0.090 S 
HETATM   11  O   UNK N   1      19.972  14.218   3.186  0.00  0.00    -0.249 OA
BRANCH  10  12
HETATM   12  C   UNK N   1      20.096  16.571   3.857  0.00  0.00     0.176 A 
HETATM   13  N   UNK N   1      19.328  17.513   3.251  0.00  0.00    -0.333 N 
HETATM   14  C   UNK N   1      20.173  18.535   3.049  0.00  0.00     0.061 A 
HETATM   15  H   UNK N   1      18.374  17.459   3.015  0.00  0.00     0.168 HD
HETATM   16  C   UNK N   1      19.902  19.768   2.469  0.00  0.00     0.032 A 
HETATM   17  C   UNK N   1      21.405  18.209   3.524  0.00  0.00     0.061 A 
HETATM   18  C   UNK N   1      20.964  20.690   2.384  0.00  0.00     0.002 A 
HETATM   19  C   UNK N   1      22.247  20.354   2.876  0.00  0.00     0.002 A 
HETATM   20  C   UNK N   1      22.480  19.091   3.458  0.00  0.00     0.032 A 
HETATM   21  N   UNK N   1      21.381  16.973   4.040  0.00  0.00    -0.333 N 
ATOM     22  HN  UNK N   1      22.148  16.454   4.468  1.00  0.00     0.168 HD
ENDBRANCH  10  12
ENDBRANCH   9  10
ENDBRANCH   8   9
BRANCH   3  23
HETATM   23  O   UNK N   1      20.872  12.489   9.754  0.00  0.00    -0.342 OA
BRANCH  23  24
HETATM   24  C   UNK N   1      21.507  12.558  10.974  0.00  0.00     0.293 C 
BRANCH  24  25
HETATM   25  C   UNK N   1      22.937  12.057  10.873  0.00  0.00     0.408 C 
HETATM   26  F   UNK N   1      23.718  13.047  10.310  0.00  0.00    -0.169 F 
HETATM   27  F   UNK N   1      22.970  10.936  10.067  0.00  0.00    -0.169 F 
HETATM   28  F   UNK N   1      23.440  11.742  12.124  0.00  0.00    -0.169 F 
ENDBRANCH  24  25
ENDBRANCH  23  24
ENDBRANCH   3  23
TORSDOF 6
ENDMDL
MODEL 8
REMARK VINA RESULT:      -6.7      6.605     10.076
REMARK  6 active torsions:
REMARK  status: ('A' for Active; 'I' for Inactive)
REMARK    1  A    between atoms: C_3  and  O_22 
REMARK    2  A    between atoms: C_8  and  C_9 
REMARK    3  A    between atoms: S_10  and  C_9 
REMARK    4  A    between atoms: S_10  and  C_12 
REMARK    5  A    between atoms: O_22  and  C_23 
REMARK    6  A    between atoms: C_23  and  C_24 
ROOT
HETATM    1  C   UNK N   1      34.924  11.743  12.171  0.00  0.00     0.053 C 
HETATM    2  C   UNK N   1      35.654  12.684  13.077  0.00  0.00    -0.005 A 
HETATM    3  C   UNK N   1      36.295  12.195  14.224  0.00  0.00     0.078 A 
HETATM    4  C   UNK N   1      36.962  13.090  15.073  0.00  0.00     0.054 A 
HETATM    5  C   UNK N   1      36.976  14.450  14.766  0.00  0.00     0.091 A 
HETATM    6  N   UNK N   1      36.328  14.908  13.664  0.00  0.00    -0.368 N 
ATOM      7  HN  UNK N   1      36.334  15.908  13.464  1.00  0.00     0.165 HD
HETATM    8  C   UNK N   1      35.671  14.067  12.818  0.00  0.00     0.029 A 
ENDROOT
BRANCH   8   9
HETATM    9  C   UNK N   1      34.951  14.644  11.644  0.00  0.00     0.175 C 
BRANCH   9  10
HETATM   10  S   UNK N   1      36.126  14.964  10.303  0.00  0.00     0.090 S 
HETATM   11  O   UNK N   1      36.464  16.351  10.873  0.00  0.00    -0.249 OA
BRANCH  10  12
HETATM   12  C   UNK N   1      34.847  15.579   9.202  0.00  0.00     0.176 A 
HETATM   13  N   UNK N   1      33.606  15.951   9.609  0.00  0.00    -0.333 N 
HETATM   14  C   UNK N   1      33.015  16.384   8.485  0.00  0.00     0.061 A 
HETATM   15  H   UNK N   1      33.228  15.911  10.517  0.00  0.00     0.168 HD
HETATM   16  C   UNK N   1      31.731  16.892   8.335  0.00  0.00     0.032 A 
HETATM   17  C   UNK N   1      33.882  16.275   7.443  0.00  0.00     0.061 A 
HETATM   18  C   UNK N   1      31.344  17.299   7.042  0.00  0.00     0.002 A 
HETATM   19  C   UNK N   1      32.243  17.187   5.956  0.00  0.00     0.002 A 
HETATM   20  C   UNK N   1      33.537  16.665   6.152  0.00  0.00     0.032 A 
HETATM   21  N   UNK N   1      35.047  15.770   7.871  0.00  0.00    -0.333 N 
ATOM     22  HN  UNK N   1      35.886  15.573   7.326  1.00  0.00     0.168 HD
ENDBRANCH  10  12
ENDBRANCH   9  10
ENDBRANCH   8   9
BRANCH   3  23
HETATM   23  O   UNK N   1      36.244  10.872  14.507  0.00  0.00    -0.342 OA
BRANCH  23  24
HETATM   24  C   UNK N   1      36.181  10.394  15.797  0.00  0.00     0.293 C 
BRANCH  24  25
HETATM   25  C   UNK N   1      34.763  10.462  16.335  0.00  0.00     0.408 C 
HETATM   26  F   UNK N   1      34.588  11.670  16.982  0.00  0.00    -0.169 F 
HETATM   27  F   UNK N   1      34.569   9.431  17.234  0.00  0.00    -0.169 F 
HETATM   28  F   UNK N   1      33.839  10.362  15.309  0.00  0.00    -0.169 F 
ENDBRANCH  24  25
ENDBRANCH  23  24
ENDBRANCH   3  23
TORSDOF 6
ENDMDL
MODEL 9
REMARK VINA RESULT:      -6.7      3.191      4.785
REMARK  6 active torsions:
REMARK  status: ('A' for Active; 'I' for Inactive)
REMARK    1  A    between atoms: C_3  and  O_22 
REMARK    2  A    between atoms: C_8  and  C_9 
REMARK    3  A    between atoms: S_10  and  C_9 
REMARK    4  A    between atoms: S_10  and  C_12 
REMARK    5  A    between atoms: O_22  and  C_23 
REMARK    6  A    between atoms: C_23  and  C_24 
ROOT
HETATM    1  C   UNK N   1      32.663  14.419   8.016  0.00  0.00     0.053 C 
HETATM    2  C   UNK N   1      33.321  15.757   8.138  0.00  0.00    -0.005 A 
HETATM    3  C   UNK N   1      33.224  16.684   7.090  0.00  0.00     0.078 A 
HETATM    4  C   UNK N   1      33.859  17.928   7.211  0.00  0.00     0.054 A 
HETATM    5  C   UNK N   1      34.577  18.226   8.369  0.00  0.00     0.091 A 
HETATM    6  N   UNK N   1      34.680  17.306   9.363  0.00  0.00    -0.368 N 
ATOM      7  HN  UNK N   1      35.224  17.533  10.196  1.00  0.00     0.165 HD
HETATM    8  C   UNK N   1      34.077  16.088   9.279  0.00  0.00     0.029 A 
ENDROOT
BRANCH   8   9
HETATM    9  C   UNK N   1      34.262  15.114  10.394  0.00  0.00     0.175 C 
BRANCH   9  10
HETATM   10  S   UNK N   1      35.637  15.642  11.447  0.00  0.00     0.090 S 
HETATM   11  O   UNK N   1      36.659  14.940  10.539  0.00  0.00    -0.249 OA
BRANCH  10  12
HETATM   12  C   UNK N   1      35.455  14.238  12.554  0.00  0.00     0.176 A 
HETATM   13  N   UNK N   1      34.635  13.182  12.314  0.00  0.00    -0.333 N 
HETATM   14  C   UNK N   1      34.851  12.365  13.355  0.00  0.00     0.061 A 
HETATM   15  H   UNK N   1      34.025  13.048  11.554  0.00  0.00     0.168 HD
HETATM   16  C   UNK N   1      34.274  11.126  13.605  0.00  0.00     0.032 A 
HETATM   17  C   UNK N   1      35.774  12.920  14.187  0.00  0.00     0.061 A 
HETATM   18  C   UNK N   1      34.680  10.447  14.771  0.00  0.00     0.002 A 
HETATM   19  C   UNK N   1      35.639  11.021  15.638  0.00  0.00     0.002 A 
HETATM   20  C   UNK N   1      36.200  12.281  15.348  0.00  0.00     0.032 A 
HETATM   21  N   UNK N   1      36.171  14.103  13.701  0.00  0.00    -0.333 N 
ATOM     22  HN  UNK N   1      36.850  14.751  14.099  1.00  0.00     0.168 HD
ENDBRANCH  10  12
ENDBRANCH   9  10
ENDBRANCH   8   9
BRANCH   3  23
HETATM   23  O   UNK N   1      32.539  16.356   5.969  0.00  0.00    -0.342 OA
BRANCH  23  24
HETATM   24  C   UNK N   1      31.601  17.193   5.405  0.00  0.00     0.293 C 
BRANCH  24  25
HETATM   25  C   UNK N   1      30.249  17.025   6.074  0.00  0.00     0.408 C 
HETATM   26  F   UNK N   1      29.264  17.458   5.207  0.00  0.00    -0.169 F 
HETATM   27  F   UNK N   1      30.213  17.790   7.224  0.00  0.00    -0.169 F 
HETATM   28  F   UNK N   1      30.016  15.698   6.394  0.00  0.00    -0.169 F 
ENDBRANCH  24  25
ENDBRANCH  23  24
ENDBRANCH   3  23
TORSDOF 6
ENDMDL
