MODEL 1
REMARK VINA RESULT:      -6.6      0.000      0.000
REMARK  7 active torsions:
REMARK  status: ('A' for Active; 'I' for Inactive)
REMARK    1  A    between atoms: O_2  and  C_8 
REMARK    2  A    between atoms: C_6  and  N_3 
REMARK    3  A    between atoms: N_3  and  C_13 
REMARK    4  A    between atoms: N_3  and  C_15 
REMARK    5  A    between atoms: C_13  and  C_17 
REMARK    6  A    between atoms: C_15  and  C_19 
REMARK    7  A    between atoms: C_16  and  C_17 
ROOT
HETATM    1  C   UNK N   1      29.598  22.898  -3.729  0.00  0.00    -0.019 A 
HETATM    2  C   UNK N   1      29.640  22.262  -4.991  0.00  0.00    -0.047 A 
HETATM    3  C   UNK N   1      28.011  23.989  -5.889  0.00  0.00     0.227 C 
HETATM    4  C   UNK N   1      28.677  22.618  -6.087  0.00  0.00     0.075 C 
HETATM    5  C   UNK N   1      30.523  22.527  -2.737  0.00  0.00     0.072 A 
HETATM    6  C   UNK N   1      28.580  23.969  -3.430  0.00  0.00     0.044 C 
HETATM    7  C   UNK N   1      27.458  24.049  -4.465  0.00  0.00     0.041 C 
HETATM    8  C   UNK N   1      30.590  21.265  -5.235  0.00  0.00     0.008 A 
HETATM    9  C   UNK N   1      31.471  21.533  -2.998  0.00  0.00     0.037 A 
HETATM   10  C   UNK N   1      31.503  20.903  -4.243  0.00  0.00     0.003 A 
ENDROOT
BRANCH   3  11
HETATM   11  N   UNK N   1      26.929  24.189  -6.867  0.00  0.00     0.093 N 
BRANCH  11  12
HETATM   12  C   UNK N   1      27.285  25.302  -7.743  0.00  0.00     0.278 C 
BRANCH  12  13
HETATM   13  C   UNK N   1      26.155  26.317  -7.744  0.00  0.00     0.076 C 
BRANCH  13  14
HETATM   14  C   UNK N   1      26.125  27.085  -6.471  0.00  0.00    -0.016 A 
HETATM   15  S   UNK N   1      27.230  28.212  -5.989  0.00  0.00    -0.106 SA
HETATM   16  C   UNK N   1      26.543  28.689  -4.555  0.00  0.00     0.050 A 
HETATM   17  C   UNK N   1      25.368  27.932  -4.420  0.00  0.00     0.008 A 
HETATM   18  C   UNK N   1      25.130  27.035  -5.499  0.00  0.00     0.015 A 
ENDBRANCH  13  14
ENDBRANCH  12  13
ENDBRANCH  11  12
BRANCH  11  19
HETATM   19  C   UNK N   1      26.794  23.004  -7.713  0.00  0.00     0.272 C 
BRANCH  19  20
HETATM   20  C   UNK N   1      25.329  22.746  -8.034  0.00  0.00     0.026 C 
HETATM   21  C   UNK N   1      24.888  21.416  -7.454  0.00  0.00     0.007 C 
ENDBRANCH  19  20
ENDBRANCH  11  19
ENDBRANCH   3  11
BRANCH   5  22
HETATM   22  O   UNK N   1      30.503  23.116  -1.529  0.00  0.00    -0.360 OA
HETATM   23  H   UNK N   1      30.175  23.989  -1.436  0.00  0.00     0.217 HD
ENDBRANCH   5  22
TORSDOF 7
ENDMDL
MODEL 2
REMARK VINA RESULT:      -6.1     21.530     24.970
REMARK  7 active torsions:
REMARK  status: ('A' for Active; 'I' for Inactive)
REMARK    1  A    between atoms: O_2  and  C_8 
REMARK    2  A    between atoms: C_6  and  N_3 
REMARK    3  A    between atoms: N_3  and  C_13 
REMARK    4  A    between atoms: N_3  and  C_15 
REMARK    5  A    between atoms: C_13  and  C_17 
REMARK    6  A    between atoms: C_15  and  C_19 
REMARK    7  A    between atoms: C_16  and  C_17 
ROOT
HETATM    1  C   UNK N   1      35.466  12.061  18.255  0.00  0.00    -0.019 A 
HETATM    2  C   UNK N   1      36.026  10.960  17.566  0.00  0.00    -0.047 A 
HETATM    3  C   UNK N   1      35.957  12.304  15.413  0.00  0.00     0.227 C 
HETATM    4  C   UNK N   1      36.093  10.919  16.066  0.00  0.00     0.075 C 
HETATM    5  C   UNK N   1      35.427  12.049  19.661  0.00  0.00     0.072 A 
HETATM    6  C   UNK N   1      34.911  13.247  17.507  0.00  0.00     0.044 C 
HETATM    7  C   UNK N   1      34.731  12.994  16.011  0.00  0.00     0.041 C 
HETATM    8  C   UNK N   1      36.523   9.870  18.287  0.00  0.00     0.008 A 
HETATM    9  C   UNK N   1      35.934  10.954  20.367  0.00  0.00     0.037 A 
HETATM   10  C   UNK N   1      36.480   9.867  19.681  0.00  0.00     0.003 A 
ENDROOT
BRANCH   3  11
HETATM   11  N   UNK N   1      35.814  12.180  13.954  0.00  0.00     0.093 N 
BRANCH  11  12
HETATM   12  C   UNK N   1      36.715  13.132  13.309  0.00  0.00     0.278 C 
BRANCH  12  13
HETATM   13  C   UNK N   1      36.017  14.476  13.189  0.00  0.00     0.076 C 
BRANCH  13  14
HETATM   14  C   UNK N   1      35.531  14.704  11.802  0.00  0.00    -0.016 A 
HETATM   15  S   UNK N   1      35.624  16.120  10.959  0.00  0.00    -0.106 SA
HETATM   16  C   UNK N   1      34.976  15.631   9.511  0.00  0.00     0.050 A 
HETATM   17  C   UNK N   1      34.659  14.273   9.669  0.00  0.00     0.008 A 
HETATM   18  C   UNK N   1      34.975  13.750  10.955  0.00  0.00     0.015 A 
ENDBRANCH  13  14
ENDBRANCH  12  13
ENDBRANCH  11  12
BRANCH  11  19
HETATM   19  C   UNK N   1      36.223  10.844  13.522  0.00  0.00     0.272 C 
BRANCH  19  20
HETATM   20  C   UNK N   1      35.234  10.289  12.508  0.00  0.00     0.026 C 
HETATM   21  C   UNK N   1      33.821  10.369  13.052  0.00  0.00     0.007 C 
ENDBRANCH  19  20
ENDBRANCH  11  19
ENDBRANCH   3  11
BRANCH   5  22
HETATM   22  O   UNK N   1      34.899  13.082  20.338  0.00  0.00    -0.360 OA
HETATM   23  H   UNK N   1      33.972  13.136  20.468  0.00  0.00     0.217 HD
ENDBRANCH   5  22
TORSDOF 7
ENDMDL
MODEL 3
REMARK VINA RESULT:      -6.1     13.030     15.828
REMARK  7 active torsions:
REMARK  status: ('A' for Active; 'I' for Inactive)
REMARK    1  A    between atoms: O_2  and  C_8 
REMARK    2  A    between atoms: C_6  and  N_3 
REMARK    3  A    between atoms: N_3  and  C_13 
REMARK    4  A    between atoms: N_3  and  C_15 
REMARK    5  A    between atoms: C_13  and  C_17 
REMARK    6  A    between atoms: C_15  and  C_19 
REMARK    7  A    between atoms: C_16  and  C_17 
ROOT
HETATM    1  C   UNK N   1      34.368  16.643   9.013  0.00  0.00    -0.019 A 
HETATM    2  C   UNK N   1      33.584  15.476   8.866  0.00  0.00    -0.047 A 
HETATM    3  C   UNK N   1      33.142  16.107   6.447  0.00  0.00     0.227 C 
HETATM    4  C   UNK N   1      32.729  15.247   7.652  0.00  0.00     0.075 C 
HETATM    5  C   UNK N   1      35.151  16.808  10.170  0.00  0.00     0.072 A 
HETATM    6  C   UNK N   1      34.381  17.712   7.949  0.00  0.00     0.044 C 
HETATM    7  C   UNK N   1      33.266  17.557   6.916  0.00  0.00     0.041 C 
HETATM    8  C   UNK N   1      33.585  14.506   9.874  0.00  0.00     0.008 A 
HETATM    9  C   UNK N   1      35.147  15.827  11.166  0.00  0.00     0.037 A 
HETATM   10  C   UNK N   1      34.365  14.680  11.018  0.00  0.00     0.003 A 
ENDROOT
BRANCH   3  11
HETATM   11  N   UNK N   1      32.148  16.002   5.367  0.00  0.00     0.093 N 
BRANCH  11  12
HETATM   12  C   UNK N   1      30.833  15.763   5.957  0.00  0.00     0.278 C 
BRANCH  12  13
HETATM   13  C   UNK N   1      29.952  16.977   5.718  0.00  0.00     0.076 C 
BRANCH  13  14
HETATM   14  C   UNK N   1      29.438  17.524   7.002  0.00  0.00    -0.016 A 
HETATM   15  S   UNK N   1      28.185  18.585   7.176  0.00  0.00    -0.106 SA
HETATM   16  C   UNK N   1      28.130  18.689   8.832  0.00  0.00     0.050 A 
HETATM   17  C   UNK N   1      29.148  17.848   9.306  0.00  0.00     0.008 A 
HETATM   18  C   UNK N   1      29.880  17.188   8.279  0.00  0.00     0.015 A 
ENDBRANCH  13  14
ENDBRANCH  12  13
ENDBRANCH  11  12
BRANCH  11  19
HETATM   19  C   UNK N   1      32.067  17.266   4.637  0.00  0.00     0.272 C 
BRANCH  19  20
HETATM   20  C   UNK N   1      32.742  17.139   3.279  0.00  0.00     0.026 C 
HETATM   21  C   UNK N   1      32.993  15.680   2.951  0.00  0.00     0.007 C 
ENDBRANCH  19  20
ENDBRANCH  11  19
ENDBRANCH   3  11
BRANCH   5  22
HETATM   22  O   UNK N   1      35.904  17.909  10.334  0.00  0.00    -0.360 OA
HETATM   23  H   UNK N   1      36.185  18.164  11.191  0.00  0.00     0.217 HD
ENDBRANCH   5  22
TORSDOF 7
ENDMDL
MODEL 4
REMARK VINA RESULT:      -6.0      1.810      2.626
REMARK  7 active torsions:
REMARK  status: ('A' for Active; 'I' for Inactive)
REMARK    1  A    between atoms: O_2  and  C_8 
REMARK    2  A    between atoms: C_6  and  N_3 
REMARK    3  A    between atoms: N_3  and  C_13 
REMARK    4  A    between atoms: N_3  and  C_15 
REMARK    5  A    between atoms: C_13  and  C_17 
REMARK    6  A    between atoms: C_15  and  C_19 
REMARK    7  A    between atoms: C_16  and  C_17 
ROOT
HETATM    1  C   UNK N   1      30.780  21.974  -3.495  0.00  0.00    -0.019 A 
HETATM    2  C   UNK N   1      30.188  21.941  -4.779  0.00  0.00    -0.047 A 
HETATM    3  C   UNK N   1      28.695  23.883  -4.114  0.00  0.00     0.227 C 
HETATM    4  C   UNK N   1      28.951  22.731  -5.098  0.00  0.00     0.075 C 
HETATM    5  C   UNK N   1      31.938  21.215  -3.249  0.00  0.00     0.072 A 
HETATM    6  C   UNK N   1      30.192  22.811  -2.388  0.00  0.00     0.044 C 
HETATM    7  C   UNK N   1      28.786  23.324  -2.693  0.00  0.00     0.041 C 
HETATM    8  C   UNK N   1      30.751  21.147  -5.783  0.00  0.00     0.008 A 
HETATM    9  C   UNK N   1      32.493  20.431  -4.265  0.00  0.00     0.037 A 
HETATM   10  C   UNK N   1      31.900  20.397  -5.529  0.00  0.00     0.003 A 
ENDROOT
BRANCH   3  11
HETATM   11  N   UNK N   1      27.370  24.481  -4.345  0.00  0.00     0.093 N 
BRANCH  11  12
HETATM   12  C   UNK N   1      27.274  25.723  -3.582  0.00  0.00     0.278 C 
BRANCH  12  13
HETATM   13  C   UNK N   1      28.338  26.691  -4.069  0.00  0.00     0.076 C 
BRANCH  13  14
HETATM   14  C   UNK N   1      27.819  28.084  -4.099  0.00  0.00    -0.016 A 
HETATM   15  S   UNK N   1      28.589  29.396  -4.738  0.00  0.00    -0.106 SA
HETATM   16  C   UNK N   1      27.428  30.556  -4.490  0.00  0.00     0.050 A 
HETATM   17  C   UNK N   1      26.355  29.901  -3.868  0.00  0.00     0.008 A 
HETATM   18  C   UNK N   1      26.571  28.510  -3.652  0.00  0.00     0.015 A 
ENDBRANCH  13  14
ENDBRANCH  12  13
ENDBRANCH  11  12
BRANCH  11  19
HETATM   19  C   UNK N   1      27.218  24.831  -5.756  0.00  0.00     0.272 C 
BRANCH  19  20
HETATM   20  C   UNK N   1      25.747  24.995  -6.107  0.00  0.00     0.026 C 
HETATM   21  C   UNK N   1      25.501  26.362  -6.715  0.00  0.00     0.007 C 
ENDBRANCH  19  20
ENDBRANCH  11  19
ENDBRANCH   3  11
BRANCH   5  22
HETATM   22  O   UNK N   1      32.519  21.228  -2.037  0.00  0.00    -0.360 OA
HETATM   23  H   UNK N   1      32.710  22.043  -1.615  0.00  0.00     0.217 HD
ENDBRANCH   5  22
TORSDOF 7
ENDMDL
MODEL 5
REMARK VINA RESULT:      -5.9     10.676     13.285
REMARK  7 active torsions:
REMARK  status: ('A' for Active; 'I' for Inactive)
REMARK    1  A    between atoms: O_2  and  C_8 
REMARK    2  A    between atoms: C_6  and  N_3 
REMARK    3  A    between atoms: N_3  and  C_13 
REMARK    4  A    between atoms: N_3  and  C_15 
REMARK    5  A    between atoms: C_13  and  C_17 
REMARK    6  A    between atoms: C_15  and  C_19 
REMARK    7  A    between atoms: C_16  and  C_17 
ROOT
HETATM    1  C   UNK N   1      22.447  19.961   3.043  0.00  0.00    -0.019 A 
HETATM    2  C   UNK N   1      22.573  18.729   3.724  0.00  0.00    -0.047 A 
HETATM    3  C   UNK N   1      24.903  19.406   4.469  0.00  0.00     0.227 C 
HETATM    4  C   UNK N   1      23.888  18.268   4.285  0.00  0.00     0.075 C 
HETATM    5  C   UNK N   1      21.192  20.346   2.537  0.00  0.00     0.072 A 
HETATM    6  C   UNK N   1      23.635  20.870   2.851  0.00  0.00     0.044 C 
HETATM    7  C   UNK N   1      24.972  20.200   3.164  0.00  0.00     0.041 C 
HETATM    8  C   UNK N   1      21.455  17.903   3.878  0.00  0.00     0.008 A 
HETATM    9  C   UNK N   1      20.083  19.512   2.704  0.00  0.00     0.037 A 
HETATM   10  C   UNK N   1      20.215  18.293   3.372  0.00  0.00     0.003 A 
ENDROOT
BRANCH   3  11
HETATM   11  N   UNK N   1      26.230  18.871   4.813  0.00  0.00     0.093 N 
BRANCH  11  12
HETATM   12  C   UNK N   1      26.507  17.714   3.966  0.00  0.00     0.278 C 
BRANCH  12  13
HETATM   13  C   UNK N   1      26.962  16.556   4.837  0.00  0.00     0.076 C 
BRANCH  13  14
HETATM   14  C   UNK N   1      28.379  16.728   5.257  0.00  0.00    -0.016 A 
HETATM   15  S   UNK N   1      29.679  16.889   4.253  0.00  0.00    -0.106 SA
HETATM   16  C   UNK N   1      30.881  17.107   5.378  0.00  0.00     0.050 A 
HETATM   17  C   UNK N   1      30.250  17.056   6.631  0.00  0.00     0.008 A 
HETATM   18  C   UNK N   1      28.843  16.849   6.564  0.00  0.00     0.015 A 
ENDBRANCH  13  14
ENDBRANCH  12  13
ENDBRANCH  11  12
BRANCH  11  19
HETATM   19  C   UNK N   1      27.261  19.868   4.528  0.00  0.00     0.272 C 
BRANCH  19  20
HETATM   20  C   UNK N   1      27.838  20.421   5.823  0.00  0.00     0.026 C 
HETATM   21  C   UNK N   1      27.064  21.649   6.262  0.00  0.00     0.007 C 
ENDBRANCH  19  20
ENDBRANCH  11  19
ENDBRANCH   3  11
BRANCH   5  22
HETATM   22  O   UNK N   1      21.047  21.512   1.885  0.00  0.00    -0.360 OA
HETATM   23  H   UNK N   1      20.251  22.001   1.965  0.00  0.00     0.217 HD
ENDBRANCH   5  22
TORSDOF 7
ENDMDL
MODEL 6
REMARK VINA RESULT:      -5.8     20.668     24.295
REMARK  7 active torsions:
REMARK  status: ('A' for Active; 'I' for Inactive)
REMARK    1  A    between atoms: O_2  and  C_8 
REMARK    2  A    between atoms: C_6  and  N_3 
REMARK    3  A    between atoms: N_3  and  C_13 
REMARK    4  A    between atoms: N_3  and  C_15 
REMARK    5  A    between atoms: C_13  and  C_17 
REMARK    6  A    between atoms: C_15  and  C_19 
REMARK    7  A    between atoms: C_16  and  C_17 
ROOT
HETATM    1  C   UNK N   1      35.797  13.540  16.800  0.00  0.00    -0.019 A 
HETATM    2  C   UNK N   1      36.549  13.854  15.645  0.00  0.00    -0.047 A 
HETATM    3  C   UNK N   1      35.452  11.912  14.432  0.00  0.00     0.227 C 
HETATM    4  C   UNK N   1      36.605  12.928  14.464  0.00  0.00     0.075 C 
HETATM    5  C   UNK N   1      35.779  14.442  17.879  0.00  0.00     0.072 A 
HETATM    6  C   UNK N   1      35.013  12.255  16.894  0.00  0.00     0.044 C 
HETATM    7  C   UNK N   1      35.368  11.244  15.805  0.00  0.00     0.041 C 
HETATM    8  C   UNK N   1      37.274  15.049  15.592  0.00  0.00     0.008 A 
HETATM    9  C   UNK N   1      36.504  15.635  17.808  0.00  0.00     0.037 A 
HETATM   10  C   UNK N   1      37.250  15.937  16.668  0.00  0.00     0.003 A 
ENDROOT
BRANCH   3  11
HETATM   11  N   UNK N   1      35.674  10.903  13.385  0.00  0.00     0.093 N 
BRANCH  11  12
HETATM   12  C   UNK N   1      34.915  11.282  12.196  0.00  0.00     0.278 C 
BRANCH  12  13
HETATM   13  C   UNK N   1      35.870  11.817  11.143  0.00  0.00     0.076 C 
BRANCH  13  14
HETATM   14  C   UNK N   1      35.778  13.298  11.042  0.00  0.00    -0.016 A 
HETATM   15  S   UNK N   1      36.884  14.296  10.331  0.00  0.00    -0.106 SA
HETATM   16  C   UNK N   1      36.114  15.754  10.521  0.00  0.00     0.050 A 
HETATM   17  C   UNK N   1      34.908  15.471  11.181  0.00  0.00     0.008 A 
HETATM   18  C   UNK N   1      34.716  14.090  11.469  0.00  0.00     0.015 A 
ENDBRANCH  13  14
ENDBRANCH  12  13
ENDBRANCH  11  12
BRANCH  11  19
HETATM   19  C   UNK N   1      37.086  10.881  13.003  0.00  0.00     0.272 C 
BRANCH  19  20
HETATM   20  C   UNK N   1      37.741   9.590  13.470  0.00  0.00     0.026 C 
HETATM   21  C   UNK N   1      38.703   9.870  14.609  0.00  0.00     0.007 C 
ENDBRANCH  19  20
ENDBRANCH  11  19
ENDBRANCH   3  11
BRANCH   5  22
HETATM   22  O   UNK N   1      35.073  14.166  18.989  0.00  0.00    -0.360 OA
HETATM   23  H   UNK N   1      34.497  14.809  19.353  0.00  0.00     0.217 HD
ENDBRANCH   5  22
TORSDOF 7
ENDMDL
MODEL 7
REMARK VINA RESULT:      -5.8     15.748     17.038
REMARK  7 active torsions:
REMARK  status: ('A' for Active; 'I' for Inactive)
REMARK    1  A    between atoms: O_2  and  C_8 
REMARK    2  A    between atoms: C_6  and  N_3 
REMARK    3  A    between atoms: N_3  and  C_13 
REMARK    4  A    between atoms: N_3  and  C_15 
REMARK    5  A    between atoms: C_13  and  C_17 
REMARK    6  A    between atoms: C_15  and  C_19 
REMARK    7  A    between atoms: C_16  and  C_17 
ROOT
HETATM    1  C   UNK N   1      23.550  12.808   9.824  0.00  0.00    -0.019 A 
HETATM    2  C   UNK N   1      22.171  13.026   9.600  0.00  0.00    -0.047 A 
HETATM    3  C   UNK N   1      22.678  13.593   7.178  0.00  0.00     0.227 C 
HETATM    4  C   UNK N   1      21.667  13.657   8.334  0.00  0.00     0.075 C 
HETATM    5  C   UNK N   1      23.969  12.213  11.028  0.00  0.00     0.072 A 
HETATM    6  C   UNK N   1      24.578  13.200   8.792  0.00  0.00     0.044 C 
HETATM    7  C   UNK N   1      24.023  14.105   7.693  0.00  0.00     0.041 C 
HETATM    8  C   UNK N   1      21.242  12.661  10.580  0.00  0.00     0.008 A 
HETATM    9  C   UNK N   1      23.027  11.848  11.995  0.00  0.00     0.037 A 
HETATM   10  C   UNK N   1      21.668  12.073  11.771  0.00  0.00     0.003 A 
ENDROOT
BRANCH   3  11
HETATM   11  N   UNK N   1      22.222  14.407   6.040  0.00  0.00     0.093 N 
BRANCH  11  12
HETATM   12  C   UNK N   1      22.754  15.760   6.185  0.00  0.00     0.278 C 
BRANCH  12  13
HETATM   13  C   UNK N   1      21.608  16.720   6.454  0.00  0.00     0.076 C 
BRANCH  13  14
HETATM   14  C   UNK N   1      21.093  17.305   5.187  0.00  0.00    -0.016 A 
HETATM   15  S   UNK N   1      19.870  16.696   4.260  0.00  0.00    -0.106 SA
HETATM   16  C   UNK N   1      19.795  17.867   3.085  0.00  0.00     0.050 A 
HETATM   17  C   UNK N   1      20.781  18.809   3.416  0.00  0.00     0.008 A 
HETATM   18  C   UNK N   1      21.507  18.497   4.600  0.00  0.00     0.015 A 
ENDBRANCH  13  14
ENDBRANCH  12  13
ENDBRANCH  11  12
BRANCH  11  19
HETATM   19  C   UNK N   1      22.758  13.866   4.792  0.00  0.00     0.272 C 
BRANCH  19  20
HETATM   20  C   UNK N   1      23.578  14.922   4.066  0.00  0.00     0.026 C 
HETATM   21  C   UNK N   1      23.093  15.075   2.637  0.00  0.00     0.007 C 
ENDBRANCH  19  20
ENDBRANCH  11  19
ENDBRANCH   3  11
BRANCH   5  22
HETATM   22  O   UNK N   1      25.274  11.996  11.265  0.00  0.00    -0.360 OA
HETATM   23  H   UNK N   1      25.556  11.698  12.107  0.00  0.00     0.217 HD
ENDBRANCH   5  22
TORSDOF 7
ENDMDL
MODEL 8
REMARK VINA RESULT:      -5.8     11.876     13.789
REMARK  7 active torsions:
REMARK  status: ('A' for Active; 'I' for Inactive)
REMARK    1  A    between atoms: O_2  and  C_8 
REMARK    2  A    between atoms: C_6  and  N_3 
REMARK    3  A    between atoms: N_3  and  C_13 
REMARK    4  A    between atoms: N_3  and  C_15 
REMARK    5  A    between atoms: C_13  and  C_17 
REMARK    6  A    between atoms: C_15  and  C_19 
REMARK    7  A    between atoms: C_16  and  C_17 
ROOT
HETATM    1  C   UNK N   1      31.312  17.335   6.960  0.00  0.00    -0.019 A 
HETATM    2  C   UNK N   1      31.422  17.332   5.551  0.00  0.00    -0.047 A 
HETATM    3  C   UNK N   1      28.956  17.908   5.380  0.00  0.00     0.227 C 
HETATM    4  C   UNK N   1      30.211  17.386   4.664  0.00  0.00     0.075 C 
HETATM    5  C   UNK N   1      32.478  17.283   7.744  0.00  0.00     0.072 A 
HETATM    6  C   UNK N   1      29.965  17.395   7.635  0.00  0.00     0.044 C 
HETATM    7  C   UNK N   1      28.796  17.132   6.688  0.00  0.00     0.041 C 
HETATM    8  C   UNK N   1      32.685  17.266   4.953  0.00  0.00     0.008 A 
HETATM    9  C   UNK N   1      33.734  17.224   7.132  0.00  0.00     0.037 A 
HETATM   10  C   UNK N   1      33.836  17.214   5.740  0.00  0.00     0.003 A 
ENDROOT
BRANCH   3  11
HETATM   11  N   UNK N   1      27.764  17.737   4.534  0.00  0.00     0.093 N 
BRANCH  11  12
HETATM   12  C   UNK N   1      26.923  16.690   5.109  0.00  0.00     0.278 C 
BRANCH  12  13
HETATM   13  C   UNK N   1      26.637  15.641   4.049  0.00  0.00     0.076 C 
BRANCH  13  14
HETATM   14  C   UNK N   1      27.842  14.811   3.780  0.00  0.00    -0.016 A 
HETATM   15  S   UNK N   1      28.645  14.696   2.343  0.00  0.00    -0.106 SA
HETATM   16  C   UNK N   1      29.883  13.685   2.790  0.00  0.00     0.050 A 
HETATM   17  C   UNK N   1      29.679  13.402   4.149  0.00  0.00     0.008 A 
HETATM   18  C   UNK N   1      28.535  14.039   4.708  0.00  0.00     0.015 A 
ENDBRANCH  13  14
ENDBRANCH  12  13
ENDBRANCH  11  12
BRANCH  11  19
HETATM   19  C   UNK N   1      26.973  18.967   4.529  0.00  0.00     0.272 C 
BRANCH  19  20
HETATM   20  C   UNK N   1      27.848  20.161   4.880  0.00  0.00     0.026 C 
HETATM   21  C   UNK N   1      27.117  21.087   5.833  0.00  0.00     0.007 C 
ENDBRANCH  19  20
ENDBRANCH  11  19
ENDBRANCH   3  11
BRANCH   5  22
HETATM   22  O   UNK N   1      32.400  17.284   9.086  0.00  0.00    -0.360 OA
HETATM   23  H   UNK N   1      32.074  18.037   9.539  0.00  0.00     0.217 HD
ENDBRANCH   5  22
TORSDOF 7
ENDMDL
MODEL 9
REMARK VINA RESULT:      -5.8     11.673     14.442
REMARK  7 active torsions:
REMARK  status: ('A' for Active; 'I' for Inactive)
REMARK    1  A    between atoms: O_2  and  C_8 
REMARK    2  A    between atoms: C_6  and  N_3 
REMARK    3  A    between atoms: N_3  and  C_13 
REMARK    4  A    between atoms: N_3  and  C_15 
REMARK    5  A    between atoms: C_13  and  C_17 
REMARK    6  A    between atoms: C_15  and  C_19 
REMARK    7  A    between atoms: C_16  and  C_17 
ROOT
HETATM    1  C   UNK N   1      27.720  19.416   6.794  0.00  0.00    -0.019 A 
HETATM    2  C   UNK N   1      28.233  18.954   5.561  0.00  0.00    -0.047 A 
HETATM    3  C   UNK N   1      29.362  17.033   6.777  0.00  0.00     0.227 C 
HETATM    4  C   UNK N   1      29.275  17.874   5.494  0.00  0.00     0.075 C 
HETATM    5  C   UNK N   1      26.746  20.430   6.801  0.00  0.00     0.072 A 
HETATM    6  C   UNK N   1      28.199  18.839   8.102  0.00  0.00     0.044 C 
HETATM    7  C   UNK N   1      29.461  17.988   7.967  0.00  0.00     0.041 C 
HETATM    8  C   UNK N   1      27.777  19.516   4.364  0.00  0.00     0.008 A 
HETATM    9  C   UNK N   1      26.295  20.977   5.596  0.00  0.00     0.037 A 
HETATM   10  C   UNK N   1      26.810  20.522   4.381  0.00  0.00     0.003 A 
ENDROOT
BRANCH   3  11
HETATM   11  N   UNK N   1      30.532  16.141   6.738  0.00  0.00     0.093 N 
BRANCH  11  12
HETATM   12  C   UNK N   1      30.890  15.894   5.344  0.00  0.00     0.278 C 
BRANCH  12  13
HETATM   13  C   UNK N   1      30.695  14.420   5.032  0.00  0.00     0.076 C 
BRANCH  13  14
HETATM   14  C   UNK N   1      29.907  14.238   3.785  0.00  0.00    -0.016 A 
HETATM   15  S   UNK N   1      29.472  12.796   3.110  0.00  0.00    -0.106 SA
HETATM   16  C   UNK N   1      28.577  13.342   1.823  0.00  0.00     0.050 A 
HETATM   17  C   UNK N   1      28.602  14.743   1.903  0.00  0.00     0.008 A 
HETATM   18  C   UNK N   1      29.345  15.248   3.008  0.00  0.00     0.015 A 
ENDBRANCH  13  14
ENDBRANCH  12  13
ENDBRANCH  11  12
BRANCH  11  19
HETATM   19  C   UNK N   1      31.679  16.793   7.367  0.00  0.00     0.272 C 
BRANCH  19  20
HETATM   20  C   UNK N   1      32.709  17.183   6.317  0.00  0.00     0.026 C 
HETATM   21  C   UNK N   1      34.013  17.582   6.981  0.00  0.00     0.007 C 
ENDBRANCH  19  20
ENDBRANCH  11  19
ENDBRANCH   3  11
BRANCH   5  22
HETATM   22  O   UNK N   1      26.243  20.888   7.960  0.00  0.00    -0.360 OA
HETATM   23  H   UNK N   1      26.623  21.638   8.375  0.00  0.00     0.217 HD
ENDBRANCH   5  22
TORSDOF 7
ENDMDL
