MODEL 1
REMARK VINA RESULT:      -3.8      0.000      0.000
REMARK  3 active torsions:
REMARK  status: ('A' for Active; 'I' for Inactive)
REMARK    1  A    between atoms: C_2  and  C_7 
REMARK    2  A    between atoms: C_7  and  C_8 
REMARK    3  A    between atoms: C_8  and  N_9 
ROOT
HETATM    1  C   UNK N   1      21.884  13.135  10.206  0.00  0.00     0.114 A 
HETATM    2  C   UNK N   1      22.492  12.290  11.108  0.00  0.00     0.027 A 
HETATM    3  N   UNK N   1      20.558  13.086  10.432  0.00  0.00    -0.360 N 
HETATM    4  N   UNK N   1      21.560  11.721  11.886  0.00  0.00    -0.355 N 
ATOM      5  HN  UNK N   1      21.709  11.052  12.642  1.00  0.00     0.166 HD
HETATM    6  C   UNK N   1      20.387  12.222  11.455  0.00  0.00     0.180 A 
HETATM    7  H   UNK N   1      19.856  13.579   9.949  0.00  0.00     0.166 HD
ENDROOT
BRANCH   2   8
HETATM    8  C   UNK N   1      23.954  12.003  11.254  0.00  0.00     0.077 C 
BRANCH   8   9
HETATM    9  C   UNK N   1      24.799  12.577  10.134  0.00  0.00     0.117 C 
BRANCH   9  10
HETATM   10  N   UNK N   1      25.723  13.545  10.695  0.00  0.00    -0.430 N 
HETATM   11  H   UNK N   1      26.140  14.258  10.096  0.00  0.00     0.149 HD
HETATM   12  H   UNK N   1      25.955  13.513  11.687  0.00  0.00     0.149 HD
ENDBRANCH   9  10
ENDBRANCH   8   9
ENDBRANCH   2   8
TORSDOF 3
ENDMDL
MODEL 2
REMARK VINA RESULT:      -3.7     11.206     11.972
REMARK  3 active torsions:
REMARK  status: ('A' for Active; 'I' for Inactive)
REMARK    1  A    between atoms: C_2  and  C_7 
REMARK    2  A    between atoms: C_7  and  C_8 
REMARK    3  A    between atoms: C_8  and  N_9 
ROOT
HETATM    1  C   UNK N   1      20.496  19.690   3.139  0.00  0.00     0.114 A 
HETATM    2  C   UNK N   1      20.343  18.918   2.010  0.00  0.00     0.027 A 
HETATM    3  N   UNK N   1      20.778  20.944   2.741  0.00  0.00    -0.360 N 
HETATM    4  N   UNK N   1      20.527  19.678   0.920  0.00  0.00    -0.355 N 
ATOM      5  HN  UNK N   1      20.477  19.384  -0.056  1.00  0.00     0.166 HD
HETATM    6  C   UNK N   1      20.792  20.912   1.392  0.00  0.00     0.180 A 
HETATM    7  H   UNK N   1      20.942  21.727   3.316  0.00  0.00     0.166 HD
ENDROOT
BRANCH   2   8
HETATM    8  C   UNK N   1      20.023  17.458   1.933  0.00  0.00     0.077 C 
BRANCH   8   9
HETATM    9  C   UNK N   1      19.983  16.920   0.516  0.00  0.00     0.117 C 
BRANCH   9  10
HETATM   10  N   UNK N   1      18.604  16.638   0.161  0.00  0.00    -0.430 N 
HETATM   11  H   UNK N   1      18.227  16.974  -0.725  0.00  0.00     0.149 HD
HETATM   12  H   UNK N   1      18.012  16.106   0.798  0.00  0.00     0.149 HD
ENDBRANCH   9  10
ENDBRANCH   8   9
ENDBRANCH   2   8
TORSDOF 3
ENDMDL
MODEL 3
REMARK VINA RESULT:      -3.5     10.456     11.563
REMARK  3 active torsions:
REMARK  status: ('A' for Active; 'I' for Inactive)
REMARK    1  A    between atoms: C_2  and  C_7 
REMARK    2  A    between atoms: C_7  and  C_8 
REMARK    3  A    between atoms: C_8  and  N_9 
ROOT
HETATM    1  C   UNK N   1      19.949  17.123   2.816  0.00  0.00     0.114 A 
HETATM    2  C   UNK N   1      20.083  18.199   1.967  0.00  0.00     0.027 A 
HETATM    3  N   UNK N   1      19.812  16.020   2.057  0.00  0.00    -0.360 N 
HETATM    4  N   UNK N   1      20.031  17.775   0.696  0.00  0.00    -0.355 N 
ATOM      5  HN  UNK N   1      20.103  18.342  -0.150  1.00  0.00     0.166 HD
HETATM    6  C   UNK N   1      19.865  16.441   0.775  0.00  0.00     0.180 A 
HETATM    7  H   UNK N   1      19.696  15.094   2.372  0.00  0.00     0.166 HD
ENDROOT
BRANCH   2   8
HETATM    8  C   UNK N   1      20.262  19.639   2.333  0.00  0.00     0.077 C 
BRANCH   8   9
HETATM    9  C   UNK N   1      21.135  20.408   1.360  0.00  0.00     0.117 C 
BRANCH   9  10
HETATM   10  N   UNK N   1      20.284  21.213   0.504  0.00  0.00    -0.430 N 
HETATM   11  H   UNK N   1      20.031  22.160   0.783  0.00  0.00     0.149 HD
HETATM   12  H   UNK N   1      19.940  20.831  -0.376  0.00  0.00     0.149 HD
ENDBRANCH   9  10
ENDBRANCH   8   9
ENDBRANCH   2   8
TORSDOF 3
ENDMDL
MODEL 4
REMARK VINA RESULT:      -3.5      1.530      3.355
REMARK  3 active torsions:
REMARK  status: ('A' for Active; 'I' for Inactive)
REMARK    1  A    between atoms: C_2  and  C_7 
REMARK    2  A    between atoms: C_7  and  C_8 
REMARK    3  A    between atoms: C_8  and  N_9 
ROOT
HETATM    1  C   UNK N   1      23.781  12.687  10.277  0.00  0.00     0.114 A 
HETATM    2  C   UNK N   1      22.425  12.482  10.395  0.00  0.00     0.027 A 
HETATM    3  N   UNK N   1      24.358  12.269  11.419  0.00  0.00    -0.360 N 
HETATM    4  N   UNK N   1      22.156  11.942  11.593  0.00  0.00    -0.355 N 
ATOM      5  HN  UNK N   1      21.243  11.680  11.963  1.00  0.00     0.166 HD
HETATM    6  C   UNK N   1      23.352  11.821  12.201  0.00  0.00     0.180 A 
HETATM    7  H   UNK N   1      25.317  12.285  11.640  0.00  0.00     0.166 HD
ENDROOT
BRANCH   2   8
HETATM    8  C   UNK N   1      21.360  12.787   9.388  0.00  0.00     0.077 C 
BRANCH   8   9
HETATM    9  C   UNK N   1      20.437  13.915   9.805  0.00  0.00     0.117 C 
BRANCH   9  10
HETATM   10  N   UNK N   1      20.919  15.153   9.221  0.00  0.00    -0.430 N 
HETATM   11  H   UNK N   1      20.732  15.360   8.240  0.00  0.00     0.149 HD
HETATM   12  H   UNK N   1      21.444  15.816   9.791  0.00  0.00     0.149 HD
ENDBRANCH   9  10
ENDBRANCH   8   9
ENDBRANCH   2   8
TORSDOF 3
ENDMDL
MODEL 5
REMARK VINA RESULT:      -3.5     13.449     14.461
REMARK  3 active torsions:
REMARK  status: ('A' for Active; 'I' for Inactive)
REMARK    1  A    between atoms: C_2  and  C_7 
REMARK    2  A    between atoms: C_7  and  C_8 
REMARK    3  A    between atoms: C_8  and  N_9 
ROOT
HETATM    1  C   UNK N   1      36.845  14.231  15.402  0.00  0.00     0.114 A 
HETATM    2  C   UNK N   1      35.776  13.407  15.673  0.00  0.00     0.027 A 
HETATM    3  N   UNK N   1      36.866  14.448  14.073  0.00  0.00    -0.360 N 
HETATM    4  N   UNK N   1      35.137  13.112  14.531  0.00  0.00    -0.355 N 
ATOM      5  HN  UNK N   1      34.311  12.523  14.418  1.00  0.00     0.166 HD
HETATM    6  C   UNK N   1      35.821  13.758  13.568  0.00  0.00     0.180 A 
HETATM    7  H   UNK N   1      37.512  14.996  13.572  0.00  0.00     0.166 HD
ENDROOT
BRANCH   2   8
HETATM    8  C   UNK N   1      35.336  12.884  17.004  0.00  0.00     0.077 C 
BRANCH   8   9
HETATM    9  C   UNK N   1      35.239  13.954  18.074  0.00  0.00     0.117 C 
BRANCH   9  10
HETATM   10  N   UNK N   1      35.226  13.313  19.376  0.00  0.00    -0.430 N 
HETATM   11  H   UNK N   1      34.339  13.114  19.837  0.00  0.00     0.149 HD
HETATM   12  H   UNK N   1      36.104  13.062  19.829  0.00  0.00     0.149 HD
ENDBRANCH   9  10
ENDBRANCH   8   9
ENDBRANCH   2   8
TORSDOF 3
ENDMDL
MODEL 6
REMARK VINA RESULT:      -3.4     11.673     12.900
REMARK  3 active torsions:
REMARK  status: ('A' for Active; 'I' for Inactive)
REMARK    1  A    between atoms: C_2  and  C_7 
REMARK    2  A    between atoms: C_7  and  C_8 
REMARK    3  A    between atoms: C_8  and  N_9 
ROOT
HETATM    1  C   UNK N   1      34.736  15.643   9.146  0.00  0.00     0.114 A 
HETATM    2  C   UNK N   1      34.687  17.006   9.330  0.00  0.00     0.027 A 
HETATM    3  N   UNK N   1      35.189  15.093  10.288  0.00  0.00    -0.360 N 
HETATM    4  N   UNK N   1      35.104  17.306  10.569  0.00  0.00    -0.355 N 
ATOM      5  HN  UNK N   1      35.177  18.232  10.991  1.00  0.00     0.166 HD
HETATM    6  C   UNK N   1      35.405  16.122  11.135  0.00  0.00     0.180 A 
HETATM    7  H   UNK N   1      35.334  14.136  10.469  0.00  0.00     0.166 HD
ENDROOT
BRANCH   2   8
HETATM    8  C   UNK N   1      34.249  18.049   8.350  0.00  0.00     0.077 C 
BRANCH   8   9
HETATM    9  C   UNK N   1      32.892  17.770   7.733  0.00  0.00     0.117 C 
BRANCH   9  10
HETATM   10  N   UNK N   1      31.886  17.817   8.777  0.00  0.00    -0.430 N 
HETATM   11  H   UNK N   1      30.899  17.727   8.537  0.00  0.00     0.149 HD
HETATM   12  H   UNK N   1      32.166  17.940   9.749  0.00  0.00     0.149 HD
ENDBRANCH   9  10
ENDBRANCH   8   9
ENDBRANCH   2   8
TORSDOF 3
ENDMDL
MODEL 7
REMARK VINA RESULT:      -3.4     12.192     13.587
REMARK  3 active torsions:
REMARK  status: ('A' for Active; 'I' for Inactive)
REMARK    1  A    between atoms: C_2  and  C_7 
REMARK    2  A    between atoms: C_7  and  C_8 
REMARK    3  A    between atoms: C_8  and  N_9 
ROOT
HETATM    1  C   UNK N   1      34.474  14.770  11.277  0.00  0.00     0.114 A 
HETATM    2  C   UNK N   1      35.784  14.789  11.701  0.00  0.00     0.027 A 
HETATM    3  N   UNK N   1      34.251  15.905  10.590  0.00  0.00    -0.360 N 
HETATM    4  N   UNK N   1      36.373  15.919  11.286  0.00  0.00    -0.355 N 
ATOM      5  HN  UNK N   1      37.337  16.211  11.447  1.00  0.00     0.166 HD
HETATM    6  C   UNK N   1      35.418  16.586  10.609  0.00  0.00     0.180 A 
HETATM    7  H   UNK N   1      33.410  16.184  10.161  0.00  0.00     0.166 HD
ENDROOT
BRANCH   2   8
HETATM    8  C   UNK N   1      36.504  13.748  12.501  0.00  0.00     0.077 C 
BRANCH   8   9
HETATM    9  C   UNK N   1      36.189  13.798  13.984  0.00  0.00     0.117 C 
BRANCH   9  10
HETATM   10  N   UNK N   1      37.024  14.810  14.605  0.00  0.00    -0.430 N 
HETATM   11  H   UNK N   1      37.618  14.564  15.397  0.00  0.00     0.149 HD
HETATM   12  H   UNK N   1      37.018  15.765  14.250  0.00  0.00     0.149 HD
ENDBRANCH   9  10
ENDBRANCH   8   9
ENDBRANCH   2   8
TORSDOF 3
ENDMDL
MODEL 8
REMARK VINA RESULT:      -3.3      8.328     10.266
REMARK  3 active torsions:
REMARK  status: ('A' for Active; 'I' for Inactive)
REMARK    1  A    between atoms: C_2  and  C_7 
REMARK    2  A    between atoms: C_7  and  C_8 
REMARK    3  A    between atoms: C_8  and  N_9 
ROOT
HETATM    1  C   UNK N   1      30.535  16.913   7.501  0.00  0.00     0.114 A 
HETATM    2  C   UNK N   1      30.785  17.689   8.611  0.00  0.00     0.027 A 
HETATM    3  N   UNK N   1      31.708  16.392   7.096  0.00  0.00    -0.360 N 
HETATM    4  N   UNK N   1      32.094  17.654   8.896  0.00  0.00    -0.355 N 
ATOM      5  HN  UNK N   1      32.575  18.130   9.660  1.00  0.00     0.166 HD
HETATM    6  C   UNK N   1      32.638  16.856   7.957  0.00  0.00     0.180 A 
HETATM    7  H   UNK N   1      31.858  15.795   6.328  0.00  0.00     0.166 HD
ENDROOT
BRANCH   2   8
HETATM    8  C   UNK N   1      29.801  18.474   9.421  0.00  0.00     0.077 C 
BRANCH   8   9
HETATM    9  C   UNK N   1      28.390  17.920   9.366  0.00  0.00     0.117 C 
BRANCH   9  10
HETATM   10  N   UNK N   1      27.533  18.889   8.708  0.00  0.00    -0.430 N 
HETATM   11  H   UNK N   1      27.193  18.710   7.763  0.00  0.00     0.149 HD
HETATM   12  H   UNK N   1      27.271  19.748   9.190  0.00  0.00     0.149 HD
ENDBRANCH   9  10
ENDBRANCH   8   9
ENDBRANCH   2   8
TORSDOF 3
ENDMDL
MODEL 9
REMARK VINA RESULT:      -3.3     23.247     23.906
REMARK  3 active torsions:
REMARK  status: ('A' for Active; 'I' for Inactive)
REMARK    1  A    between atoms: C_2  and  C_7 
REMARK    2  A    between atoms: C_7  and  C_8 
REMARK    3  A    between atoms: C_8  and  N_9 
ROOT
HETATM    1  C   UNK N   1      41.841  21.452   1.475  0.00  0.00     0.114 A 
HETATM    2  C   UNK N   1      42.556  21.973   2.530  0.00  0.00     0.027 A 
HETATM    3  N   UNK N   1      41.146  22.460   0.916  0.00  0.00    -0.360 N 
HETATM    4  N   UNK N   1      42.312  23.288   2.631  0.00  0.00    -0.355 N 
ATOM      5  HN  UNK N   1      42.698  23.939   3.315  1.00  0.00     0.166 HD
HETATM    6  C   UNK N   1      41.448  23.563   1.634  0.00  0.00     0.180 A 
HETATM    7  H   UNK N   1      40.541  22.406   0.142  0.00  0.00     0.166 HD
ENDROOT
BRANCH   2   8
HETATM    8  C   UNK N   1      43.478  21.248   3.460  0.00  0.00     0.077 C 
BRANCH   8   9
HETATM    9  C   UNK N   1      44.148  22.152   4.476  0.00  0.00     0.117 C 
BRANCH   9  10
HETATM   10  N   UNK N   1      45.564  22.233   4.167  0.00  0.00    -0.430 N 
HETATM   11  H   UNK N   1      45.913  21.870   3.280  0.00  0.00     0.149 HD
HETATM   12  H   UNK N   1      46.209  22.653   4.836  0.00  0.00     0.149 HD
ENDBRANCH   9  10
ENDBRANCH   8   9
ENDBRANCH   2   8
TORSDOF 3
ENDMDL
