MODEL 1
REMARK VINA RESULT:      -7.1      0.000      0.000
REMARK  9 active torsions:
REMARK  status: ('A' for Active; 'I' for Inactive)
REMARK    1  A    between atoms: O_32  and  C_5 
REMARK    2  A    between atoms: C_17  and  C_12 
REMARK    3  A    between atoms: S_33  and  C_12 
REMARK    4  A    between atoms: O_26  and  C_13 
REMARK    5  A    between atoms: C_17  and  C_14 
REMARK    6  A    between atoms: N_23  and  C_16 
REMARK    7  A    between atoms: C_17  and  N_25 
REMARK    8  A    between atoms: O_31  and  C_18 
REMARK    9  A    between atoms: O_32  and  C_19 
ROOT
HETATM    1  C   UNK N   1      20.269  15.026   9.243  0.00  0.00     0.003 A 
HETATM    2  C   UNK N   1      20.450  16.305   8.698  0.00  0.00     0.018 A 
HETATM    3  C   UNK N   1      20.710  13.885   8.541  0.00  0.00     0.030 A 
HETATM    4  C   UNK N   1      21.096  16.402   7.471  0.00  0.00     0.050 A 
HETATM    5  C   UNK N   1      21.361  14.007   7.290  0.00  0.00     0.050 A 
HETATM    6  C   UNK N   1      21.557  15.300   6.787  0.00  0.00     0.075 A 
HETATM    7  C   UNK N   1      21.392  17.558   6.647  0.00  0.00     0.262 A 
HETATM    8  C   UNK N   1      22.172  15.817   5.552  0.00  0.00     0.264 A 
HETATM    9  N   UNK N   1      22.048  17.176   5.516  0.00  0.00    -0.270 N 
HETATM   10  O   UNK N   1      21.078  18.711   6.908  0.00  0.00    -0.267 OA
HETATM   11  O   UNK N   1      22.699  15.143   4.680  0.00  0.00    -0.267 OA
ENDROOT
BRANCH   9  12
HETATM   12  C   UNK N   1      22.459  18.120   4.461  0.00  0.00     0.143 C 
BRANCH  12  13
HETATM   13  C   UNK N   1      21.568  18.097   3.197  0.00  0.00     0.170 C 
BRANCH  13  14
HETATM   14  S   UNK N   1      20.556  19.554   2.738  0.00  0.00     0.143 S 
HETATM   15  C   UNK N   1      20.808  20.554   1.246  0.00  0.00     0.161 C 
HETATM   16  O   UNK N   1      20.408  20.522   3.920  0.00  0.00    -0.228 OA
HETATM   17  O   UNK N   1      19.107  19.050   2.658  0.00  0.00    -0.228 OA
ENDBRANCH  13  14
ENDBRANCH  12  13
BRANCH  12  18
HETATM   18  C   UNK N   1      23.969  18.108   4.232  0.00  0.00    -0.031 A 
HETATM   19  C   UNK N   1      24.537  17.206   3.321  0.00  0.00     0.012 A 
HETATM   20  C   UNK N   1      25.913  17.016   3.265  0.00  0.00     0.040 A 
HETATM   21  C   UNK N   1      26.765  17.720   4.114  0.00  0.00     0.101 A 
HETATM   22  C   UNK N   1      26.220  18.695   4.989  0.00  0.00     0.102 A 
HETATM   23  C   UNK N   1      24.820  18.875   5.044  0.00  0.00     0.049 A 
BRANCH  21  24
HETATM   24  O   UNK N   1      28.091  17.427   4.051  0.00  0.00    -0.353 OA
HETATM   25  C   UNK N   1      28.658  16.474   3.233  0.00  0.00     0.210 C 
ENDBRANCH  21  24
BRANCH  22  26
HETATM   26  O   UNK N   1      27.048  19.432   5.766  0.00  0.00    -0.349 OA
BRANCH  26  27
HETATM   27  C   UNK N   1      27.495  20.689   5.444  0.00  0.00     0.171 C 
HETATM   28  C   UNK N   1      26.869  21.676   6.410  0.00  0.00     0.034 C 
ENDBRANCH  26  27
ENDBRANCH  22  26
ENDBRANCH  12  18
ENDBRANCH   9  12
BRANCH   5  29
HETATM   29  N   UNK N   1      21.782  12.874   6.531  0.00  0.00    -0.340 N 
HETATM   30  C   UNK N   1      22.920  12.267   6.646  0.00  0.00     0.111 C 
HETATM   31  C   UNK N   1      23.205  11.089   5.784  0.00  0.00     0.097 C 
ATOM     32  HN  UNK N   1      21.128  12.509   5.838  1.00  0.00     0.167 HD
BRANCH  30  33
HETATM   33  O   UNK N   1      23.845  12.655   7.547  0.00  0.00    -0.350 OA
HETATM   34  H   UNK N   1      24.720  12.849   7.275  0.00  0.00     0.219 HD
ENDBRANCH  30  33
ENDBRANCH   5  29
TORSDOF 9
ENDMDL
MODEL 2
REMARK VINA RESULT:      -7.0      3.704      6.761
REMARK  9 active torsions:
REMARK  status: ('A' for Active; 'I' for Inactive)
REMARK    1  A    between atoms: O_32  and  C_5 
REMARK    2  A    between atoms: C_17  and  C_12 
REMARK    3  A    between atoms: S_33  and  C_12 
REMARK    4  A    between atoms: O_26  and  C_13 
REMARK    5  A    between atoms: C_17  and  C_14 
REMARK    6  A    between atoms: N_23  and  C_16 
REMARK    7  A    between atoms: C_17  and  N_25 
REMARK    8  A    between atoms: O_31  and  C_18 
REMARK    9  A    between atoms: O_32  and  C_19 
ROOT
HETATM    1  C   UNK N   1      21.390  19.749   2.123  0.00  0.00     0.003 A 
HETATM    2  C   UNK N   1      21.622  19.611   3.499  0.00  0.00     0.018 A 
HETATM    3  C   UNK N   1      20.625  18.787   1.431  0.00  0.00     0.030 A 
HETATM    4  C   UNK N   1      21.053  18.520   4.146  0.00  0.00     0.050 A 
HETATM    5  C   UNK N   1      20.058  17.682   2.110  0.00  0.00     0.050 A 
HETATM    6  C   UNK N   1      20.281  17.589   3.490  0.00  0.00     0.075 A 
HETATM    7  C   UNK N   1      21.142  18.090   5.529  0.00  0.00     0.262 A 
HETATM    8  C   UNK N   1      19.872  16.608   4.513  0.00  0.00     0.264 A 
HETATM    9  N   UNK N   1      20.413  16.955   5.717  0.00  0.00    -0.270 N 
HETATM   10  O   UNK N   1      21.795  18.645   6.401  0.00  0.00    -0.267 OA
HETATM   11  O   UNK N   1      19.173  15.626   4.320  0.00  0.00    -0.267 OA
ENDROOT
BRANCH   9  12
HETATM   12  C   UNK N   1      20.329  16.252   7.011  0.00  0.00     0.143 C 
BRANCH  12  13
HETATM   13  C   UNK N   1      19.929  17.151   8.203  0.00  0.00     0.170 C 
BRANCH  13  14
HETATM   14  S   UNK N   1      18.332  16.906   9.066  0.00  0.00     0.143 S 
HETATM   15  C   UNK N   1      17.630  18.056  10.281  0.00  0.00     0.161 C 
HETATM   16  O   UNK N   1      18.232  15.494   9.659  0.00  0.00    -0.228 OA
HETATM   17  O   UNK N   1      17.273  16.777   7.960  0.00  0.00    -0.228 OA
ENDBRANCH  13  14
ENDBRANCH  12  13
BRANCH  12  18
HETATM   18  C   UNK N   1      21.508  15.307   7.231  0.00  0.00    -0.031 A 
HETATM   19  C   UNK N   1      22.570  15.278   6.316  0.00  0.00     0.012 A 
HETATM   20  C   UNK N   1      23.532  14.277   6.367  0.00  0.00     0.040 A 
HETATM   21  C   UNK N   1      23.468  13.274   7.332  0.00  0.00     0.101 A 
HETATM   22  C   UNK N   1      22.449  13.327   8.318  0.00  0.00     0.102 A 
HETATM   23  C   UNK N   1      21.471  14.345   8.253  0.00  0.00     0.049 A 
BRANCH  21  24
HETATM   24  O   UNK N   1      24.403  12.289   7.273  0.00  0.00    -0.353 OA
HETATM   25  C   UNK N   1      24.192  11.019   6.785  0.00  0.00     0.210 C 
ENDBRANCH  21  24
BRANCH  22  26
HETATM   26  O   UNK N   1      22.422  12.397   9.301  0.00  0.00    -0.349 OA
BRANCH  26  27
HETATM   27  C   UNK N   1      22.470  12.687  10.641  0.00  0.00     0.171 C 
HETATM   28  C   UNK N   1      21.137  12.308  11.257  0.00  0.00     0.034 C 
ENDBRANCH  26  27
ENDBRANCH  22  26
ENDBRANCH  12  18
ENDBRANCH   9  12
BRANCH   5  29
HETATM   29  N   UNK N   1      19.315  16.666   1.437  0.00  0.00    -0.340 N 
HETATM   30  C   UNK N   1      19.818  15.654   0.805  0.00  0.00     0.111 C 
HETATM   31  C   UNK N   1      18.905  14.673   0.161  0.00  0.00     0.097 C 
ATOM     32  HN  UNK N   1      18.298  16.744   1.455  1.00  0.00     0.167 HD
BRANCH  30  33
HETATM   33  O   UNK N   1      21.149  15.446   0.741  0.00  0.00    -0.350 OA
HETATM   34  H   UNK N   1      21.747  16.112   1.017  0.00  0.00     0.219 HD
ENDBRANCH  30  33
ENDBRANCH   5  29
TORSDOF 9
ENDMDL
MODEL 3
REMARK VINA RESULT:      -6.9      1.540      3.202
REMARK  9 active torsions:
REMARK  status: ('A' for Active; 'I' for Inactive)
REMARK    1  A    between atoms: O_32  and  C_5 
REMARK    2  A    between atoms: C_17  and  C_12 
REMARK    3  A    between atoms: S_33  and  C_12 
REMARK    4  A    between atoms: O_26  and  C_13 
REMARK    5  A    between atoms: C_17  and  C_14 
REMARK    6  A    between atoms: N_23  and  C_16 
REMARK    7  A    between atoms: C_17  and  N_25 
REMARK    8  A    between atoms: O_31  and  C_18 
REMARK    9  A    between atoms: O_32  and  C_19 
ROOT
HETATM    1  C   UNK N   1      21.149  13.710   7.860  0.00  0.00     0.003 A 
HETATM    2  C   UNK N   1      21.868  14.115   6.727  0.00  0.00     0.018 A 
HETATM    3  C   UNK N   1      20.480  14.663   8.656  0.00  0.00     0.030 A 
HETATM    4  C   UNK N   1      21.871  15.468   6.411  0.00  0.00     0.050 A 
HETATM    5  C   UNK N   1      20.500  16.037   8.317  0.00  0.00     0.050 A 
HETATM    6  C   UNK N   1      21.200  16.406   7.161  0.00  0.00     0.075 A 
HETATM    7  C   UNK N   1      22.542  16.188   5.345  0.00  0.00     0.262 A 
HETATM    8  C   UNK N   1      21.447  17.703   6.505  0.00  0.00     0.264 A 
HETATM    9  N   UNK N   1      22.256  17.518   5.421  0.00  0.00    -0.270 N 
HETATM   10  O   UNK N   1      23.282  15.687   4.510  0.00  0.00    -0.267 OA
HETATM   11  O   UNK N   1      21.015  18.784   6.874  0.00  0.00    -0.267 OA
ENDROOT
BRANCH   9  12
HETATM   12  C   UNK N   1      22.814  18.520   4.494  0.00  0.00     0.143 C 
BRANCH  12  13
HETATM   13  C   UNK N   1      22.022  18.686   3.177  0.00  0.00     0.170 C 
BRANCH  13  14
HETATM   14  S   UNK N   1      21.414  20.332   2.650  0.00  0.00     0.143 S 
HETATM   15  C   UNK N   1      20.639  20.680   1.047  0.00  0.00     0.161 C 
HETATM   16  O   UNK N   1      22.470  21.418   2.896  0.00  0.00    -0.228 OA
HETATM   17  O   UNK N   1      20.383  20.756   3.709  0.00  0.00    -0.228 OA
ENDBRANCH  13  14
ENDBRANCH  12  13
BRANCH  12  18
HETATM   18  C   UNK N   1      24.332  18.409   4.370  0.00  0.00    -0.031 A 
HETATM   19  C   UNK N   1      24.904  17.764   3.264  0.00  0.00     0.012 A 
HETATM   20  C   UNK N   1      26.257  17.448   3.241  0.00  0.00     0.040 A 
HETATM   21  C   UNK N   1      27.083  17.766   4.317  0.00  0.00     0.101 A 
HETATM   22  C   UNK N   1      26.544  18.488   5.413  0.00  0.00     0.102 A 
HETATM   23  C   UNK N   1      25.165  18.798   5.431  0.00  0.00     0.049 A 
BRANCH  21  24
HETATM   24  O   UNK N   1      28.378  17.360   4.252  0.00  0.00    -0.353 OA
HETATM   25  C   UNK N   1      28.838  16.108   4.594  0.00  0.00     0.210 C 
ENDBRANCH  21  24
BRANCH  22  26
HETATM   26  O   UNK N   1      27.355  18.862   6.430  0.00  0.00    -0.349 OA
BRANCH  26  27
HETATM   27  C   UNK N   1      27.448  20.143   6.913  0.00  0.00     0.171 C 
HETATM   28  C   UNK N   1      27.567  21.088   5.732  0.00  0.00     0.034 C 
ENDBRANCH  26  27
ENDBRANCH  22  26
ENDBRANCH  12  18
ENDBRANCH   9  12
BRANCH   5  29
HETATM   29  N   UNK N   1      19.872  17.035   9.121  0.00  0.00    -0.340 N 
HETATM   30  C   UNK N   1      18.607  17.310   9.134  0.00  0.00     0.111 C 
HETATM   31  C   UNK N   1      18.105  18.376  10.041  0.00  0.00     0.097 C 
ATOM     32  HN  UNK N   1      20.472  17.579   9.741  1.00  0.00     0.167 HD
BRANCH  30  33
HETATM   33  O   UNK N   1      17.724  16.634   8.370  0.00  0.00    -0.350 OA
HETATM   34  H   UNK N   1      17.197  15.955   8.742  0.00  0.00     0.219 HD
ENDBRANCH  30  33
ENDBRANCH   5  29
TORSDOF 9
ENDMDL
MODEL 4
REMARK VINA RESULT:      -6.8      2.512      6.668
REMARK  9 active torsions:
REMARK  status: ('A' for Active; 'I' for Inactive)
REMARK    1  A    between atoms: O_32  and  C_5 
REMARK    2  A    between atoms: C_17  and  C_12 
REMARK    3  A    between atoms: S_33  and  C_12 
REMARK    4  A    between atoms: O_26  and  C_13 
REMARK    5  A    between atoms: C_17  and  C_14 
REMARK    6  A    between atoms: N_23  and  C_16 
REMARK    7  A    between atoms: C_17  and  N_25 
REMARK    8  A    between atoms: O_31  and  C_18 
REMARK    9  A    between atoms: O_32  and  C_19 
ROOT
HETATM    1  C   UNK N   1      26.529  20.418   4.203  0.00  0.00     0.003 A 
HETATM    2  C   UNK N   1      25.147  20.187   4.176  0.00  0.00     0.018 A 
HETATM    3  C   UNK N   1      27.432  19.339   4.102  0.00  0.00     0.030 A 
HETATM    4  C   UNK N   1      24.711  18.877   4.019  0.00  0.00     0.050 A 
HETATM    5  C   UNK N   1      26.965  18.011   3.948  0.00  0.00     0.050 A 
HETATM    6  C   UNK N   1      25.579  17.817   3.892  0.00  0.00     0.075 A 
HETATM    7  C   UNK N   1      23.370  18.323   3.993  0.00  0.00     0.262 A 
HETATM    8  C   UNK N   1      24.736  16.616   3.748  0.00  0.00     0.264 A 
HETATM    9  N   UNK N   1      23.420  16.974   3.814  0.00  0.00    -0.270 N 
HETATM   10  O   UNK N   1      22.338  18.964   4.137  0.00  0.00    -0.267 OA
HETATM   11  O   UNK N   1      25.141  15.473   3.608  0.00  0.00    -0.267 OA
ENDROOT
BRANCH   9  12
HETATM   12  C   UNK N   1      22.221  16.117   3.775  0.00  0.00     0.143 C 
BRANCH  12  13
HETATM   13  C   UNK N   1      21.121  16.598   2.800  0.00  0.00     0.170 C 
BRANCH  13  14
HETATM   14  S   UNK N   1      20.694  15.617   1.313  0.00  0.00     0.143 S 
HETATM   15  C   UNK N   1      19.342  14.410   1.228  0.00  0.00     0.161 C 
HETATM   16  O   UNK N   1      21.940  14.956   0.708  0.00  0.00    -0.228 OA
HETATM   17  O   UNK N   1      20.405  16.641   0.204  0.00  0.00    -0.228 OA
ENDBRANCH  13  14
ENDBRANCH  12  13
BRANCH  12  18
HETATM   18  C   UNK N   1      21.762  15.703   5.171  0.00  0.00    -0.031 A 
HETATM   19  C   UNK N   1      22.389  14.635   5.832  0.00  0.00     0.012 A 
HETATM   20  C   UNK N   1      21.847  14.094   6.990  0.00  0.00     0.040 A 
HETATM   21  C   UNK N   1      20.666  14.599   7.530  0.00  0.00     0.101 A 
HETATM   22  C   UNK N   1      20.057  15.729   6.925  0.00  0.00     0.102 A 
HETATM   23  C   UNK N   1      20.611  16.267   5.742  0.00  0.00     0.049 A 
BRANCH  21  24
HETATM   24  O   UNK N   1      20.159  13.970   8.624  0.00  0.00    -0.353 OA
HETATM   25  C   UNK N   1      20.782  13.876   9.848  0.00  0.00     0.210 C 
ENDBRANCH  21  24
BRANCH  22  26
HETATM   26  O   UNK N   1      18.948  16.269   7.484  0.00  0.00    -0.349 OA
BRANCH  26  27
HETATM   27  C   UNK N   1      18.966  17.226   8.467  0.00  0.00     0.171 C 
HETATM   28  C   UNK N   1      17.770  16.999   9.372  0.00  0.00     0.034 C 
ENDBRANCH  26  27
ENDBRANCH  22  26
ENDBRANCH  12  18
ENDBRANCH   9  12
BRANCH   5  29
HETATM   29  N   UNK N   1      27.847  16.891   3.886  0.00  0.00    -0.340 N 
HETATM   30  C   UNK N   1      28.305  16.232   4.902  0.00  0.00     0.111 C 
HETATM   31  C   UNK N   1      29.212  15.076   4.669  0.00  0.00     0.097 C 
ATOM     32  HN  UNK N   1      28.141  16.581   2.960  1.00  0.00     0.167 HD
BRANCH  30  33
HETATM   33  O   UNK N   1      27.960  16.545   6.168  0.00  0.00    -0.350 OA
HETATM   34  H   UNK N   1      27.580  15.899   6.729  0.00  0.00     0.219 HD
ENDBRANCH  30  33
ENDBRANCH   5  29
TORSDOF 9
ENDMDL
MODEL 5
REMARK VINA RESULT:      -6.7     11.349     14.435
REMARK  9 active torsions:
REMARK  status: ('A' for Active; 'I' for Inactive)
REMARK    1  A    between atoms: O_32  and  C_5 
REMARK    2  A    between atoms: C_17  and  C_12 
REMARK    3  A    between atoms: S_33  and  C_12 
REMARK    4  A    between atoms: O_26  and  C_13 
REMARK    5  A    between atoms: C_17  and  C_14 
REMARK    6  A    between atoms: N_23  and  C_16 
REMARK    7  A    between atoms: C_17  and  N_25 
REMARK    8  A    between atoms: O_31  and  C_18 
REMARK    9  A    between atoms: O_32  and  C_19 
ROOT
HETATM    1  C   UNK N   1      33.936  10.418  13.941  0.00  0.00     0.003 A 
HETATM    2  C   UNK N   1      33.957  10.433  12.539  0.00  0.00     0.018 A 
HETATM    3  C   UNK N   1      34.459  11.505  14.672  0.00  0.00     0.030 A 
HETATM    4  C   UNK N   1      34.481  11.557  11.911  0.00  0.00     0.050 A 
HETATM    5  C   UNK N   1      34.991  12.638  14.010  0.00  0.00     0.050 A 
HETATM    6  C   UNK N   1      34.969  12.637  12.610  0.00  0.00     0.075 A 
HETATM    7  C   UNK N   1      34.673  11.849  10.503  0.00  0.00     0.262 A 
HETATM    8  C   UNK N   1      35.424  13.605  11.595  0.00  0.00     0.264 A 
HETATM    9  N   UNK N   1      35.224  13.085  10.349  0.00  0.00    -0.270 N 
HETATM   10  O   UNK N   1      34.408  11.091   9.581  0.00  0.00    -0.267 OA
HETATM   11  O   UNK N   1      35.920  14.698  11.823  0.00  0.00    -0.267 OA
ENDROOT
BRANCH   9  12
HETATM   12  C   UNK N   1      35.570  13.659   9.035  0.00  0.00     0.143 C 
BRANCH  12  13
HETATM   13  C   UNK N   1      37.082  13.900   8.819  0.00  0.00     0.170 C 
BRANCH  13  14
HETATM   14  S   UNK N   1      38.316  12.664   9.372  0.00  0.00     0.143 S 
HETATM   15  C   UNK N   1      38.093  10.867   9.264  0.00  0.00     0.161 C 
HETATM   16  O   UNK N   1      38.824  12.980  10.785  0.00  0.00    -0.228 OA
HETATM   17  O   UNK N   1      39.598  12.970   8.582  0.00  0.00    -0.228 OA
ENDBRANCH  13  14
ENDBRANCH  12  13
BRANCH  12  18
HETATM   18  C   UNK N   1      34.633  14.797   8.638  0.00  0.00    -0.031 A 
HETATM   19  C   UNK N   1      34.899  16.109   9.058  0.00  0.00     0.012 A 
HETATM   20  C   UNK N   1      33.951  17.114   8.909  0.00  0.00     0.040 A 
HETATM   21  C   UNK N   1      32.709  16.846   8.336  0.00  0.00     0.101 A 
HETATM   22  C   UNK N   1      32.447  15.545   7.832  0.00  0.00     0.102 A 
HETATM   23  C   UNK N   1      33.414  14.528   7.996  0.00  0.00     0.049 A 
BRANCH  21  24
HETATM   24  O   UNK N   1      31.809  17.862   8.291  0.00  0.00    -0.353 OA
HETATM   25  C   UNK N   1      30.636  17.919   9.010  0.00  0.00     0.210 C 
ENDBRANCH  21  24
BRANCH  22  26
HETATM   26  O   UNK N   1      31.271  15.294   7.211  0.00  0.00    -0.349 OA
BRANCH  26  27
HETATM   27  C   UNK N   1      31.134  15.114   5.858  0.00  0.00     0.171 C 
HETATM   28  C   UNK N   1      30.666  16.422   5.249  0.00  0.00     0.034 C 
ENDBRANCH  26  27
ENDBRANCH  22  26
ENDBRANCH  12  18
ENDBRANCH   9  12
BRANCH   5  29
HETATM   29  N   UNK N   1      35.567  13.737  14.715  0.00  0.00    -0.340 N 
HETATM   30  C   UNK N   1      36.807  13.839  15.075  0.00  0.00     0.111 C 
HETATM   31  C   UNK N   1      37.256  15.058  15.798  0.00  0.00     0.097 C 
ATOM     32  HN  UNK N   1      34.948  14.512  14.956  1.00  0.00     0.167 HD
BRANCH  30  33
HETATM   33  O   UNK N   1      37.712  12.881  14.786  0.00  0.00    -0.350 OA
HETATM   34  H   UNK N   1      37.431  12.031  14.511  0.00  0.00     0.219 HD
ENDBRANCH  30  33
ENDBRANCH   5  29
TORSDOF 9
ENDMDL
MODEL 6
REMARK VINA RESULT:      -6.7     13.138     16.205
REMARK  9 active torsions:
REMARK  status: ('A' for Active; 'I' for Inactive)
REMARK    1  A    between atoms: O_32  and  C_5 
REMARK    2  A    between atoms: C_17  and  C_12 
REMARK    3  A    between atoms: S_33  and  C_12 
REMARK    4  A    between atoms: O_26  and  C_13 
REMARK    5  A    between atoms: C_17  and  C_14 
REMARK    6  A    between atoms: N_23  and  C_16 
REMARK    7  A    between atoms: C_17  and  N_25 
REMARK    8  A    between atoms: O_31  and  C_18 
REMARK    9  A    between atoms: O_32  and  C_19 
ROOT
HETATM    1  C   UNK N   1      26.093  29.151  -3.650  0.00  0.00     0.003 A 
HETATM    2  C   UNK N   1      26.104  27.794  -3.299  0.00  0.00     0.018 A 
HETATM    3  C   UNK N   1      26.761  29.591  -4.811  0.00  0.00     0.030 A 
HETATM    4  C   UNK N   1      26.769  26.911  -4.143  0.00  0.00     0.050 A 
HETATM    5  C   UNK N   1      27.435  28.675  -5.654  0.00  0.00     0.050 A 
HETATM    6  C   UNK N   1      27.402  27.322  -5.294  0.00  0.00     0.075 A 
HETATM    7  C   UNK N   1      26.987  25.481  -4.033  0.00  0.00     0.262 A 
HETATM    8  C   UNK N   1      27.974  26.104  -5.898  0.00  0.00     0.264 A 
HETATM    9  N   UNK N   1      27.697  25.029  -5.104  0.00  0.00    -0.270 N 
HETATM   10  O   UNK N   1      26.615  24.780  -3.104  0.00  0.00    -0.267 OA
HETATM   11  O   UNK N   1      28.613  26.056  -6.937  0.00  0.00    -0.267 OA
ENDROOT
BRANCH   9  12
HETATM   12  C   UNK N   1      28.106  23.622  -5.268  0.00  0.00     0.143 C 
BRANCH  12  13
HETATM   13  C   UNK N   1      29.604  23.354  -4.995  0.00  0.00     0.170 C 
BRANCH  13  14
HETATM   14  S   UNK N   1      30.227  23.184  -3.281  0.00  0.00     0.143 S 
HETATM   15  C   UNK N   1      31.658  22.178  -2.799  0.00  0.00     0.161 C 
HETATM   16  O   UNK N   1      29.088  22.860  -2.305  0.00  0.00    -0.228 OA
HETATM   17  O   UNK N   1      30.548  24.611  -2.808  0.00  0.00    -0.228 OA
ENDBRANCH  13  14
ENDBRANCH  12  13
BRANCH  12  18
HETATM   18  C   UNK N   1      27.518  22.994  -6.530  0.00  0.00    -0.031 A 
HETATM   19  C   UNK N   1      26.167  23.190  -6.852  0.00  0.00     0.012 A 
HETATM   20  C   UNK N   1      25.556  22.449  -7.856  0.00  0.00     0.040 A 
HETATM   21  C   UNK N   1      26.272  21.492  -8.573  0.00  0.00     0.101 A 
HETATM   22  C   UNK N   1      27.659  21.332  -8.320  0.00  0.00     0.102 A 
HETATM   23  C   UNK N   1      28.269  22.084  -7.291  0.00  0.00     0.049 A 
BRANCH  21  24
HETATM   24  O   UNK N   1      25.588  20.758  -9.490  0.00  0.00    -0.353 OA
HETATM   25  C   UNK N   1      25.693  20.891 -10.856  0.00  0.00     0.210 C 
ENDBRANCH  21  24
BRANCH  22  26
HETATM   26  O   UNK N   1      28.376  20.454  -9.060  0.00  0.00    -0.349 OA
BRANCH  26  27
HETATM   27  C   UNK N   1      29.655  20.056  -8.762  0.00  0.00     0.171 C 
HETATM   28  C   UNK N   1      29.580  18.723  -8.040  0.00  0.00     0.034 C 
ENDBRANCH  26  27
ENDBRANCH  22  26
ENDBRANCH  12  18
ENDBRANCH   9  12
BRANCH   5  29
HETATM   29  N   UNK N   1      28.159  29.088  -6.813  0.00  0.00    -0.340 N 
HETATM   30  C   UNK N   1      29.380  29.516  -6.829  0.00  0.00     0.111 C 
HETATM   31  C   UNK N   1      29.998  29.901  -8.126  0.00  0.00     0.097 C 
ATOM     32  HN  UNK N   1      27.670  29.042  -7.707  1.00  0.00     0.167 HD
BRANCH  30  33
HETATM   33  O   UNK N   1      30.121  29.594  -5.705  0.00  0.00    -0.350 OA
HETATM   34  H   UNK N   1      30.572  30.386  -5.488  0.00  0.00     0.219 HD
ENDBRANCH  30  33
ENDBRANCH   5  29
TORSDOF 9
ENDMDL
MODEL 7
REMARK VINA RESULT:      -6.7      3.250      7.024
REMARK  9 active torsions:
REMARK  status: ('A' for Active; 'I' for Inactive)
REMARK    1  A    between atoms: O_32  and  C_5 
REMARK    2  A    between atoms: C_17  and  C_12 
REMARK    3  A    between atoms: S_33  and  C_12 
REMARK    4  A    between atoms: O_26  and  C_13 
REMARK    5  A    between atoms: C_17  and  C_14 
REMARK    6  A    between atoms: N_23  and  C_16 
REMARK    7  A    between atoms: C_17  and  N_25 
REMARK    8  A    between atoms: O_31  and  C_18 
REMARK    9  A    between atoms: O_32  and  C_19 
ROOT
HETATM    1  C   UNK N   1      25.849  20.858   3.065  0.00  0.00     0.003 A 
HETATM    2  C   UNK N   1      24.485  20.533   3.068  0.00  0.00     0.018 A 
HETATM    3  C   UNK N   1      26.790  19.983   3.647  0.00  0.00     0.030 A 
HETATM    4  C   UNK N   1      24.109  19.320   3.635  0.00  0.00     0.050 A 
HETATM    5  C   UNK N   1      26.384  18.755   4.222  0.00  0.00     0.050 A 
HETATM    6  C   UNK N   1      25.018  18.444   4.181  0.00  0.00     0.075 A 
HETATM    7  C   UNK N   1      22.797  18.731   3.822  0.00  0.00     0.262 A 
HETATM    8  C   UNK N   1      24.233  17.295   4.667  0.00  0.00     0.264 A 
HETATM    9  N   UNK N   1      22.908  17.516   4.427  0.00  0.00    -0.270 N 
HETATM   10  O   UNK N   1      21.737  19.254   3.509  0.00  0.00    -0.267 OA
HETATM   11  O   UNK N   1      24.685  16.302   5.216  0.00  0.00    -0.267 OA
ENDROOT
BRANCH   9  12
HETATM   12  C   UNK N   1      21.746  16.679   4.782  0.00  0.00     0.143 C 
BRANCH  12  13
HETATM   13  C   UNK N   1      21.889  15.918   6.121  0.00  0.00     0.170 C 
BRANCH  13  14
HETATM   14  S   UNK N   1      20.650  16.127   7.454  0.00  0.00     0.143 S 
HETATM   15  C   UNK N   1      20.709  15.279   9.056  0.00  0.00     0.161 C 
HETATM   16  O   UNK N   1      19.222  15.987   6.911  0.00  0.00    -0.228 OA
HETATM   17  O   UNK N   1      20.636  17.629   7.781  0.00  0.00    -0.228 OA
ENDBRANCH  13  14
ENDBRANCH  12  13
BRANCH  12  18
HETATM   18  C   UNK N   1      21.228  15.877   3.591  0.00  0.00    -0.031 A 
HETATM   19  C   UNK N   1      19.971  15.257   3.651  0.00  0.00     0.012 A 
HETATM   20  C   UNK N   1      19.579  14.339   2.684  0.00  0.00     0.040 A 
HETATM   21  C   UNK N   1      20.425  14.011   1.626  0.00  0.00     0.101 A 
HETATM   22  C   UNK N   1      21.668  14.683   1.501  0.00  0.00     0.102 A 
HETATM   23  C   UNK N   1      22.062  15.609   2.494  0.00  0.00     0.049 A 
BRANCH  21  24
HETATM   24  O   UNK N   1      20.001  13.052   0.761  0.00  0.00    -0.353 OA
HETATM   25  C   UNK N   1      19.573  11.793   1.117  0.00  0.00     0.210 C 
ENDBRANCH  21  24
BRANCH  22  26
HETATM   26  O   UNK N   1      22.465  14.422   0.438  0.00  0.00    -0.349 OA
BRANCH  26  27
HETATM   27  C   UNK N   1      23.661  13.754   0.515  0.00  0.00     0.171 C 
HETATM   28  C   UNK N   1      23.442  12.332   0.032  0.00  0.00     0.034 C 
ENDBRANCH  26  27
ENDBRANCH  22  26
ENDBRANCH  12  18
ENDBRANCH   9  12
BRANCH   5  29
HETATM   29  N   UNK N   1      27.301  17.865   4.858  0.00  0.00    -0.340 N 
HETATM   30  C   UNK N   1      27.706  17.947   6.085  0.00  0.00     0.111 C 
HETATM   31  C   UNK N   1      28.661  16.931   6.604  0.00  0.00     0.097 C 
ATOM     32  HN  UNK N   1      27.668  17.097   4.297  1.00  0.00     0.167 HD
BRANCH  30  33
HETATM   33  O   UNK N   1      27.263  18.911   6.918  0.00  0.00    -0.350 OA
HETATM   34  H   UNK N   1      27.825  19.259   7.582  0.00  0.00     0.219 HD
ENDBRANCH  30  33
ENDBRANCH   5  29
TORSDOF 9
ENDMDL
MODEL 8
REMARK VINA RESULT:      -6.7     12.539     15.562
REMARK  9 active torsions:
REMARK  status: ('A' for Active; 'I' for Inactive)
REMARK    1  A    between atoms: O_32  and  C_5 
REMARK    2  A    between atoms: C_17  and  C_12 
REMARK    3  A    between atoms: S_33  and  C_12 
REMARK    4  A    between atoms: O_26  and  C_13 
REMARK    5  A    between atoms: C_17  and  C_14 
REMARK    6  A    between atoms: N_23  and  C_16 
REMARK    7  A    between atoms: C_17  and  N_25 
REMARK    8  A    between atoms: O_31  and  C_18 
REMARK    9  A    between atoms: O_32  and  C_19 
ROOT
HETATM    1  C   UNK N   1      29.780  22.539  -2.165  0.00  0.00     0.003 A 
HETATM    2  C   UNK N   1      28.629  23.304  -2.400  0.00  0.00     0.018 A 
HETATM    3  C   UNK N   1      30.722  22.336  -3.194  0.00  0.00     0.030 A 
HETATM    4  C   UNK N   1      28.473  23.868  -3.661  0.00  0.00     0.050 A 
HETATM    5  C   UNK N   1      30.540  22.917  -4.473  0.00  0.00     0.050 A 
HETATM    6  C   UNK N   1      29.397  23.703  -4.667  0.00  0.00     0.075 A 
HETATM    7  C   UNK N   1      27.392  24.663  -4.213  0.00  0.00     0.262 A 
HETATM    8  C   UNK N   1      28.872  24.447  -5.827  0.00  0.00     0.264 A 
HETATM    9  N   UNK N   1      27.669  25.004  -5.502  0.00  0.00    -0.270 N 
HETATM   10  O   UNK N   1      26.364  24.965  -3.623  0.00  0.00    -0.267 OA
HETATM   11  O   UNK N   1      29.412  24.542  -6.918  0.00  0.00    -0.267 OA
ENDROOT
BRANCH   9  12
HETATM   12  C   UNK N   1      26.748  25.787  -6.348  0.00  0.00     0.143 C 
BRANCH  12  13
HETATM   13  C   UNK N   1      26.286  25.062  -7.633  0.00  0.00     0.170 C 
BRANCH  13  14
HETATM   14  S   UNK N   1      25.766  23.306  -7.582  0.00  0.00     0.143 S 
HETATM   15  C   UNK N   1      26.891  21.893  -7.756  0.00  0.00     0.161 C 
HETATM   16  O   UNK N   1      24.567  23.055  -8.506  0.00  0.00    -0.228 OA
HETATM   17  O   UNK N   1      25.068  23.115  -6.227  0.00  0.00    -0.228 OA
ENDBRANCH  13  14
ENDBRANCH  12  13
BRANCH  12  18
HETATM   18  C   UNK N   1      27.202  27.236  -6.506  0.00  0.00    -0.031 A 
HETATM   19  C   UNK N   1      28.012  27.608  -7.590  0.00  0.00     0.012 A 
HETATM   20  C   UNK N   1      28.623  28.855  -7.631  0.00  0.00     0.040 A 
HETATM   21  C   UNK N   1      28.445  29.772  -6.597  0.00  0.00     0.101 A 
HETATM   22  C   UNK N   1      27.568  29.449  -5.530  0.00  0.00     0.102 A 
HETATM   23  C   UNK N   1      26.957  28.176  -5.492  0.00  0.00     0.049 A 
BRANCH  21  24
HETATM   24  O   UNK N   1      29.134  30.941  -6.674  0.00  0.00    -0.353 OA
HETATM   25  C   UNK N   1      30.463  31.062  -7.013  0.00  0.00     0.210 C 
ENDBRANCH  21  24
BRANCH  22  26
HETATM   26  O   UNK N   1      27.336  30.362  -4.558  0.00  0.00    -0.349 OA
BRANCH  26  27
HETATM   27  C   UNK N   1      26.714  30.081  -3.367  0.00  0.00     0.171 C 
HETATM   28  C   UNK N   1      27.774  30.011  -2.284  0.00  0.00     0.034 C 
ENDBRANCH  26  27
ENDBRANCH  22  26
ENDBRANCH  12  18
ENDBRANCH   9  12
BRANCH   5  29
HETATM   29  N   UNK N   1      31.449  22.699  -5.551  0.00  0.00    -0.340 N 
HETATM   30  C   UNK N   1      32.551  23.348  -5.754  0.00  0.00     0.111 C 
HETATM   31  C   UNK N   1      33.397  22.992  -6.924  0.00  0.00     0.097 C 
ATOM     32  HN  UNK N   1      31.210  21.967  -6.220  1.00  0.00     0.167 HD
BRANCH  30  33
HETATM   33  O   UNK N   1      32.969  24.319  -4.917  0.00  0.00    -0.350 OA
HETATM   34  H   UNK N   1      32.617  24.382  -4.051  0.00  0.00     0.219 HD
ENDBRANCH  30  33
ENDBRANCH   5  29
TORSDOF 9
ENDMDL
MODEL 9
REMARK VINA RESULT:      -6.7     11.234     14.956
REMARK  9 active torsions:
REMARK  status: ('A' for Active; 'I' for Inactive)
REMARK    1  A    between atoms: O_32  and  C_5 
REMARK    2  A    between atoms: C_17  and  C_12 
REMARK    3  A    between atoms: S_33  and  C_12 
REMARK    4  A    between atoms: O_26  and  C_13 
REMARK    5  A    between atoms: C_17  and  C_14 
REMARK    6  A    between atoms: N_23  and  C_16 
REMARK    7  A    between atoms: C_17  and  N_25 
REMARK    8  A    between atoms: O_31  and  C_18 
REMARK    9  A    between atoms: O_32  and  C_19 
ROOT
HETATM    1  C   UNK N   1      35.655  11.841   4.833  0.00  0.00     0.003 A 
HETATM    2  C   UNK N   1      34.680  12.405   5.668  0.00  0.00     0.018 A 
HETATM    3  C   UNK N   1      37.024  12.011   5.125  0.00  0.00     0.030 A 
HETATM    4  C   UNK N   1      35.112  13.103   6.790  0.00  0.00     0.050 A 
HETATM    5  C   UNK N   1      37.441  12.729   6.271  0.00  0.00     0.050 A 
HETATM    6  C   UNK N   1      36.443  13.253   7.103  0.00  0.00     0.075 A 
HETATM    7  C   UNK N   1      34.361  13.820   7.804  0.00  0.00     0.262 A 
HETATM    8  C   UNK N   1      36.482  14.042   8.348  0.00  0.00     0.264 A 
HETATM    9  N   UNK N   1      35.208  14.355   8.727  0.00  0.00    -0.270 N 
HETATM   10  O   UNK N   1      33.146  13.953   7.822  0.00  0.00    -0.267 OA
HETATM   11  O   UNK N   1      37.490  14.382   8.946  0.00  0.00    -0.267 OA
ENDROOT
BRANCH   9  12
HETATM   12  C   UNK N   1      34.752  15.170   9.868  0.00  0.00     0.143 C 
BRANCH  12  13
HETATM   13  C   UNK N   1      35.029  16.684   9.726  0.00  0.00     0.170 C 
BRANCH  13  14
HETATM   14  S   UNK N   1      34.268  17.653   8.370  0.00  0.00     0.143 S 
HETATM   15  C   UNK N   1      32.497  18.025   8.238  0.00  0.00     0.161 C 
HETATM   16  O   UNK N   1      34.736  17.149   6.998  0.00  0.00    -0.228 OA
HETATM   17  O   UNK N   1      34.978  19.016   8.380  0.00  0.00    -0.228 OA
ENDBRANCH  13  14
ENDBRANCH  12  13
BRANCH  12  18
HETATM   18  C   UNK N   1      35.106  14.532  11.209  0.00  0.00    -0.031 A 
HETATM   19  C   UNK N   1      35.774  15.279  12.192  0.00  0.00     0.012 A 
HETATM   20  C   UNK N   1      36.308  14.666  13.317  0.00  0.00     0.040 A 
HETATM   21  C   UNK N   1      36.193  13.290  13.503  0.00  0.00     0.101 A 
HETATM   22  C   UNK N   1      35.455  12.524  12.564  0.00  0.00     0.102 A 
HETATM   23  C   UNK N   1      34.922  13.156  11.418  0.00  0.00     0.049 A 
BRANCH  21  24
HETATM   24  O   UNK N   1      36.805  12.752  14.592  0.00  0.00    -0.353 OA
HETATM   25  C   UNK N   1      36.272  12.703  15.860  0.00  0.00     0.210 C 
ENDBRANCH  21  24
BRANCH  22  26
HETATM   26  O   UNK N   1      35.279  11.199  12.773  0.00  0.00    -0.349 OA
BRANCH  26  27
HETATM   27  C   UNK N   1      34.054  10.593  12.906  0.00  0.00     0.171 C 
HETATM   28  C   UNK N   1      33.621  10.713  14.355  0.00  0.00     0.034 C 
ENDBRANCH  26  27
ENDBRANCH  22  26
ENDBRANCH  12  18
ENDBRANCH   9  12
BRANCH   5  29
HETATM   29  N   UNK N   1      38.817  12.958   6.574  0.00  0.00    -0.340 N 
HETATM   30  C   UNK N   1      39.534  13.944   6.139  0.00  0.00     0.111 C 
HETATM   31  C   UNK N   1      40.957  14.048   6.557  0.00  0.00     0.097 C 
ATOM     32  HN  UNK N   1      39.276  12.285   7.189  1.00  0.00     0.167 HD
BRANCH  30  33
HETATM   33  O   UNK N   1      39.017  14.900   5.340  0.00  0.00    -0.350 OA
HETATM   34  H   UNK N   1      39.094  15.804   5.572  0.00  0.00     0.219 HD
ENDBRANCH  30  33
ENDBRANCH   5  29
TORSDOF 9
ENDMDL
