MODEL 1
REMARK VINA RESULT:      -7.4      0.000      0.000
REMARK  8 active torsions:
REMARK  status: ('A' for Active; 'I' for Inactive)
REMARK    1  A    between atoms: C_17  and  C_5 
REMARK    2  A    between atoms: C_9  and  C_6 
REMARK    3  A    between atoms: C_15  and  C_6 
REMARK    4  A    between atoms: C_22  and  C_9 
REMARK    5  A    between atoms: C_18  and  C_15 
REMARK    6  A    between atoms: C_16  and  O_27 
REMARK    7  A    between atoms: O_29  and  C_22 
REMARK    8  A    between atoms: C_24  and  O_30 
ROOT
HETATM    1  C   UNK N   1      20.705  14.226   8.227  0.00  0.00     0.016 C 
HETATM    2  C   UNK N   1      22.767  17.490   3.681  0.00  0.00     0.016 C 
HETATM    3  C   UNK N   1      22.192  11.761   7.281  0.00  0.00     0.006 C 
HETATM    4  C   UNK N   1      21.124  12.104   6.226  0.00  0.00     0.006 C 
HETATM    5  C   UNK N   1      19.536  17.156   3.951  0.00  0.00     0.032 C 
HETATM    6  C   UNK N   1      23.461  15.641   5.936  0.00  0.00     0.007 C 
HETATM    7  C   UNK N   1      20.717  16.544   4.733  0.00  0.00     0.012 C 
HETATM    8  C   UNK N   1      22.406  15.565   7.037  0.00  0.00     0.010 C 
HETATM    9  C   UNK N   1      20.584  16.601   1.732  0.00  0.00     0.037 C 
HETATM   10  C   UNK N   1      19.928  17.695   2.578  0.00  0.00     0.118 C 
HETATM   11  C   UNK N   1      20.838  14.243   2.666  0.00  0.00     0.019 C 
HETATM   12  C   UNK N   1      22.891  13.078   7.641  0.00  0.00    -0.002 C 
HETATM   13  C   UNK N   1      21.317  13.586   5.882  0.00  0.00     0.001 C 
HETATM   14  C   UNK N   1      22.917  15.170   4.576  0.00  0.00     0.001 C 
HETATM   15  C   UNK N   1      21.519  15.636   2.501  0.00  0.00     0.003 C 
HETATM   16  C   UNK N   1      22.344  13.730   4.703  0.00  0.00     0.024 C 
HETATM   17  C   UNK N   1      21.828  13.250   3.321  0.00  0.00     0.127 C 
HETATM   18  C   UNK N   1      21.854  14.149   7.217  0.00  0.00    -0.036 C 
HETATM   19  C   UNK N   1      21.965  16.201   3.885  0.00  0.00    -0.036 C 
ENDROOT
BRANCH  12  20
HETATM   20  C   UNK N   1      23.488  13.065   9.076  0.00  0.00    -0.013 C 
HETATM   21  C   UNK N   1      24.987  13.340   9.121  0.00  0.00     0.010 C 
BRANCH  20  22
HETATM   22  C   UNK N   1      23.122  11.807   9.877  0.00  0.00     0.015 C 
BRANCH  22  23
HETATM   23  C   UNK N   1      22.367  12.100  11.172  0.00  0.00     0.110 C 
BRANCH  23  24
HETATM   24  C   UNK N   1      23.257  11.937  12.360  0.00  0.00     0.139 C 
HETATM   25  O   UNK N   1      22.793  11.595  13.436  0.00  0.00    -0.650 OA
BRANCH  24  26
HETATM   26  O   UNK N   1      24.573  12.191  12.248  0.00  0.00    -0.776 OA
HETATM   27  H   UNK N   1      24.932  13.025  12.481  0.00  0.00     0.167 HD
ENDBRANCH  24  26
ENDBRANCH  23  24
ENDBRANCH  22  23
ENDBRANCH  20  22
ENDBRANCH  12  20
BRANCH  17  28
HETATM   28  O   UNK N   1      21.255  11.978   3.419  0.00  0.00    -0.395 OA
HETATM   29  H   UNK N   1      20.346  11.783   3.696  0.00  0.00     0.210 HD
ENDBRANCH  17  28
BRANCH  11  30
HETATM   30  C   UNK N   1      20.329  13.691   1.319  0.00  0.00     0.003 C 
HETATM   31  C   UNK N   1      18.828  13.440   1.283  0.00  0.00     0.005 C 
ENDBRANCH  11  30
BRANCH  10  32
HETATM   32  O   UNK N   1      18.796  18.165   1.914  0.00  0.00    -0.396 OA
HETATM   33  H   UNK N   1      17.882  18.316   2.202  0.00  0.00     0.210 HD
ENDBRANCH  10  32
TORSDOF 8
ENDMDL
MODEL 2
REMARK VINA RESULT:      -7.3      4.162      8.560
REMARK  8 active torsions:
REMARK  status: ('A' for Active; 'I' for Inactive)
REMARK    1  A    between atoms: C_17  and  C_5 
REMARK    2  A    between atoms: C_9  and  C_6 
REMARK    3  A    between atoms: C_15  and  C_6 
REMARK    4  A    between atoms: C_22  and  C_9 
REMARK    5  A    between atoms: C_18  and  C_15 
REMARK    6  A    between atoms: C_16  and  O_27 
REMARK    7  A    between atoms: O_29  and  C_22 
REMARK    8  A    between atoms: C_24  and  O_30 
ROOT
HETATM    1  C   UNK N   1      22.735  15.393   5.517  0.00  0.00     0.016 C 
HETATM    2  C   UNK N   1      28.433  15.823   3.811  0.00  0.00     0.016 C 
HETATM    3  C   UNK N   1      21.831  17.356   3.392  0.00  0.00     0.006 C 
HETATM    4  C   UNK N   1      22.725  18.116   4.391  0.00  0.00     0.006 C 
HETATM    5  C   UNK N   1      27.714  16.654   6.879  0.00  0.00     0.032 C 
HETATM    6  C   UNK N   1      25.604  15.345   2.945  0.00  0.00     0.007 C 
HETATM    7  C   UNK N   1      26.839  16.238   5.679  0.00  0.00     0.012 C 
HETATM    8  C   UNK N   1      24.669  14.892   4.065  0.00  0.00     0.010 C 
HETATM    9  C   UNK N   1      29.006  18.310   5.495  0.00  0.00     0.037 C 
HETATM   10  C   UNK N   1      29.103  17.144   6.480  0.00  0.00     0.118 C 
HETATM   11  C   UNK N   1      26.724  19.201   4.790  0.00  0.00     0.019 C 
HETATM   12  C   UNK N   1      22.554  16.041   3.070  0.00  0.00    -0.002 C 
HETATM   13  C   UNK N   1      24.017  17.302   4.520  0.00  0.00     0.001 C 
HETATM   14  C   UNK N   1      26.196  16.740   3.211  0.00  0.00     0.001 C 
HETATM   15  C   UNK N   1      27.872  18.204   4.446  0.00  0.00     0.003 C 
HETATM   16  C   UNK N   1      25.052  17.769   3.435  0.00  0.00     0.024 C 
HETATM   17  C   UNK N   1      25.658  19.178   3.669  0.00  0.00     0.127 C 
HETATM   18  C   UNK N   1      23.507  15.863   4.280  0.00  0.00    -0.036 C 
HETATM   19  C   UNK N   1      27.319  16.752   4.300  0.00  0.00    -0.036 C 
ENDROOT
BRANCH  12  20
HETATM   20  C   UNK N   1      21.577  14.910   2.646  0.00  0.00    -0.013 C 
HETATM   21  C   UNK N   1      22.130  13.993   1.561  0.00  0.00     0.010 C 
BRANCH  20  22
HETATM   22  C   UNK N   1      20.172  15.420   2.291  0.00  0.00     0.015 C 
BRANCH  22  23
HETATM   23  C   UNK N   1      19.775  15.167   0.839  0.00  0.00     0.110 C 
BRANCH  23  24
HETATM   24  C   UNK N   1      19.446  16.445   0.140  0.00  0.00     0.139 C 
HETATM   25  O   UNK N   1      20.335  17.203  -0.211  0.00  0.00    -0.650 OA
BRANCH  24  26
HETATM   26  O   UNK N   1      18.159  16.772  -0.080  0.00  0.00    -0.776 OA
HETATM   27  H   UNK N   1      17.671  16.390  -0.783  0.00  0.00     0.167 HD
ENDBRANCH  24  26
ENDBRANCH  23  24
ENDBRANCH  22  23
ENDBRANCH  20  22
ENDBRANCH  12  20
BRANCH  17  28
HETATM   28  O   UNK N   1      24.650  20.113   3.931  0.00  0.00    -0.395 OA
HETATM   29  H   UNK N   1      24.763  20.956   4.395  0.00  0.00     0.210 HD
ENDBRANCH  17  28
BRANCH  11  30
HETATM   30  C   UNK N   1      27.254  20.633   5.004  0.00  0.00     0.003 C 
HETATM   31  C   UNK N   1      26.872  21.238   6.347  0.00  0.00     0.005 C 
ENDBRANCH  11  30
BRANCH  10  32
HETATM   32  O   UNK N   1      29.800  17.562   7.612  0.00  0.00    -0.396 OA
HETATM   33  H   UNK N   1      30.162  17.083   8.375  0.00  0.00     0.210 HD
ENDBRANCH  10  32
TORSDOF 8
ENDMDL
MODEL 3
REMARK VINA RESULT:      -6.9     15.099     17.639
REMARK  8 active torsions:
REMARK  status: ('A' for Active; 'I' for Inactive)
REMARK    1  A    between atoms: C_17  and  C_5 
REMARK    2  A    between atoms: C_9  and  C_6 
REMARK    3  A    between atoms: C_15  and  C_6 
REMARK    4  A    between atoms: C_22  and  C_9 
REMARK    5  A    between atoms: C_18  and  C_15 
REMARK    6  A    between atoms: C_16  and  O_27 
REMARK    7  A    between atoms: O_29  and  C_22 
REMARK    8  A    between atoms: C_24  and  O_30 
ROOT
HETATM    1  C   UNK N   1      25.543  24.552  -5.721  0.00  0.00     0.016 C 
HETATM    2  C   UNK N   1      30.746  23.095  -8.245  0.00  0.00     0.016 C 
HETATM    3  C   UNK N   1      26.923  25.787  -3.322  0.00  0.00     0.006 C 
HETATM    4  C   UNK N   1      27.218  24.275  -3.312  0.00  0.00     0.006 C 
HETATM    5  C   UNK N   1      28.669  20.674  -7.571  0.00  0.00     0.032 C 
HETATM    6  C   UNK N   1      29.113  25.268  -6.984  0.00  0.00     0.007 C 
HETATM    7  C   UNK N   1      28.636  22.189  -7.280  0.00  0.00     0.012 C 
HETATM    8  C   UNK N   1      27.607  25.015  -6.998  0.00  0.00     0.010 C 
HETATM    9  C   UNK N   1      31.027  20.458  -6.722  0.00  0.00     0.037 C 
HETATM   10  C   UNK N   1      30.068  20.142  -7.871  0.00  0.00     0.118 C 
HETATM   11  C   UNK N   1      30.180  21.673  -4.647  0.00  0.00     0.019 C 
HETATM   12  C   UNK N   1      27.148  26.268  -4.762  0.00  0.00    -0.002 C 
HETATM   13  C   UNK N   1      27.750  23.931  -4.708  0.00  0.00     0.001 C 
HETATM   14  C   UNK N   1      29.875  24.195  -6.187  0.00  0.00     0.001 C 
HETATM   15  C   UNK N   1      30.833  21.841  -6.053  0.00  0.00     0.003 C 
HETATM   16  C   UNK N   1      29.311  24.105  -4.741  0.00  0.00     0.024 C 
HETATM   17  C   UNK N   1      30.107  23.045  -3.936  0.00  0.00     0.127 C 
HETATM   18  C   UNK N   1      27.013  24.964  -5.588  0.00  0.00    -0.036 C 
HETATM   19  C   UNK N   1      30.003  22.826  -6.933  0.00  0.00    -0.036 C 
ENDROOT
BRANCH  12  20
HETATM   20  C   UNK N   1      26.307  27.528  -5.109  0.00  0.00    -0.013 C 
HETATM   21  C   UNK N   1      26.994  28.476  -6.086  0.00  0.00     0.010 C 
BRANCH  20  22
HETATM   22  C   UNK N   1      25.787  28.274  -3.871  0.00  0.00     0.015 C 
BRANCH  22  23
HETATM   23  C   UNK N   1      26.545  29.564  -3.566  0.00  0.00     0.110 C 
BRANCH  23  24
HETATM   24  C   UNK N   1      27.690  29.309  -2.642  0.00  0.00     0.139 C 
HETATM   25  O   UNK N   1      27.557  29.460  -1.438  0.00  0.00    -0.650 OA
BRANCH  24  26
HETATM   26  O   UNK N   1      28.881  28.935  -3.143  0.00  0.00    -0.776 OA
HETATM   27  H   UNK N   1      29.002  28.095  -3.542  0.00  0.00     0.167 HD
ENDBRANCH  24  26
ENDBRANCH  23  24
ENDBRANCH  22  23
ENDBRANCH  20  22
ENDBRANCH  12  20
BRANCH  17  28
HETATM   28  O   UNK N   1      29.581  22.903  -2.648  0.00  0.00    -0.395 OA
HETATM   29  H   UNK N   1      29.916  22.309  -1.958  0.00  0.00     0.210 HD
ENDBRANCH  17  28
BRANCH  11  30
HETATM   30  C   UNK N   1      30.944  20.653  -3.779  0.00  0.00     0.003 C 
HETATM   31  C   UNK N   1      32.345  21.101  -3.391  0.00  0.00     0.005 C 
ENDBRANCH  11  30
BRANCH  10  32
HETATM   32  O   UNK N   1      30.019  18.761  -8.054  0.00  0.00    -0.396 OA
HETATM   33  H   UNK N   1      29.432  18.073  -7.703  0.00  0.00     0.210 HD
ENDBRANCH  10  32
TORSDOF 8
ENDMDL
MODEL 4
REMARK VINA RESULT:      -6.8      4.161      7.777
REMARK  8 active torsions:
REMARK  status: ('A' for Active; 'I' for Inactive)
REMARK    1  A    between atoms: C_17  and  C_5 
REMARK    2  A    between atoms: C_9  and  C_6 
REMARK    3  A    between atoms: C_15  and  C_6 
REMARK    4  A    between atoms: C_22  and  C_9 
REMARK    5  A    between atoms: C_18  and  C_15 
REMARK    6  A    between atoms: C_16  and  O_27 
REMARK    7  A    between atoms: O_29  and  C_22 
REMARK    8  A    between atoms: C_24  and  O_30 
ROOT
HETATM    1  C   UNK N   1      22.874  15.471   5.554  0.00  0.00     0.016 C 
HETATM    2  C   UNK N   1      28.430  15.703   3.401  0.00  0.00     0.016 C 
HETATM    3  C   UNK N   1      21.916  17.604   3.627  0.00  0.00     0.006 C 
HETATM    4  C   UNK N   1      22.929  18.254   4.588  0.00  0.00     0.006 C 
HETATM    5  C   UNK N   1      28.010  16.382   6.562  0.00  0.00     0.032 C 
HETATM    6  C   UNK N   1      25.518  15.429   2.751  0.00  0.00     0.007 C 
HETATM    7  C   UNK N   1      27.019  16.087   5.417  0.00  0.00     0.012 C 
HETATM    8  C   UNK N   1      24.652  14.958   3.917  0.00  0.00     0.010 C 
HETATM    9  C   UNK N   1      29.280  18.049   5.170  0.00  0.00     0.037 C 
HETATM   10  C   UNK N   1      29.389  16.821   6.075  0.00  0.00     0.118 C 
HETATM   11  C   UNK N   1      27.003  19.100   4.710  0.00  0.00     0.019 C 
HETATM   12  C   UNK N   1      22.533  16.276   3.171  0.00  0.00    -0.002 C 
HETATM   13  C   UNK N   1      24.179  17.366   4.561  0.00  0.00     0.001 C 
HETATM   14  C   UNK N   1      26.209  16.772   3.045  0.00  0.00     0.001 C 
HETATM   15  C   UNK N   1      28.061  18.067   4.216  0.00  0.00     0.003 C 
HETATM   16  C   UNK N   1      25.148  17.844   3.421  0.00  0.00     0.024 C 
HETATM   17  C   UNK N   1      25.850  19.203   3.684  0.00  0.00     0.127 C 
HETATM   18  C   UNK N   1      23.569  15.974   4.284  0.00  0.00    -0.036 C 
HETATM   19  C   UNK N   1      27.414  16.658   4.035  0.00  0.00    -0.036 C 
ENDROOT
BRANCH  12  20
HETATM   20  C   UNK N   1      21.461  15.226   2.768  0.00  0.00    -0.013 C 
HETATM   21  C   UNK N   1      21.568  14.763   1.318  0.00  0.00     0.010 C 
BRANCH  20  22
HETATM   22  C   UNK N   1      20.028  15.652   3.118  0.00  0.00     0.015 C 
BRANCH  22  23
HETATM   23  C   UNK N   1      19.230  14.581   3.858  0.00  0.00     0.110 C 
BRANCH  23  24
HETATM   24  C   UNK N   1      18.976  14.980   5.274  0.00  0.00     0.139 C 
HETATM   25  O   UNK N   1      19.616  14.475   6.182  0.00  0.00    -0.650 OA
BRANCH  24  26
HETATM   26  O   UNK N   1      18.020  15.885   5.550  0.00  0.00    -0.776 OA
HETATM   27  H   UNK N   1      17.110  15.676   5.468  0.00  0.00     0.167 HD
ENDBRANCH  24  26
ENDBRANCH  23  24
ENDBRANCH  22  23
ENDBRANCH  20  22
ENDBRANCH  12  20
BRANCH  17  28
HETATM   28  O   UNK N   1      24.923  20.171   4.081  0.00  0.00    -0.395 OA
HETATM   29  H   UNK N   1      24.533  20.257   4.965  0.00  0.00     0.210 HD
ENDBRANCH  17  28
BRANCH  11  30
HETATM   30  C   UNK N   1      27.631  20.487   4.960  0.00  0.00     0.003 C 
HETATM   31  C   UNK N   1      27.409  21.020   6.368  0.00  0.00     0.005 C 
ENDBRANCH  11  30
BRANCH  10  32
HETATM   32  O   UNK N   1      30.198  17.132   7.167  0.00  0.00    -0.396 OA
HETATM   33  H   UNK N   1      30.976  17.704   7.266  0.00  0.00     0.210 HD
ENDBRANCH  10  32
TORSDOF 8
ENDMDL
MODEL 5
REMARK VINA RESULT:      -6.8      8.113     11.749
REMARK  8 active torsions:
REMARK  status: ('A' for Active; 'I' for Inactive)
REMARK    1  A    between atoms: C_17  and  C_5 
REMARK    2  A    between atoms: C_9  and  C_6 
REMARK    3  A    between atoms: C_15  and  C_6 
REMARK    4  A    between atoms: C_22  and  C_9 
REMARK    5  A    between atoms: C_18  and  C_15 
REMARK    6  A    between atoms: C_16  and  O_27 
REMARK    7  A    between atoms: O_29  and  C_22 
REMARK    8  A    between atoms: C_24  and  O_30 
ROOT
HETATM    1  C   UNK N   1      28.114  15.695   5.804  0.00  0.00     0.016 C 
HETATM    2  C   UNK N   1      33.820  15.535   4.076  0.00  0.00     0.016 C 
HETATM    3  C   UNK N   1      28.482  18.378   7.164  0.00  0.00     0.006 C 
HETATM    4  C   UNK N   1      29.334  17.341   7.922  0.00  0.00     0.006 C 
HETATM    5  C   UNK N   1      32.761  13.125   5.999  0.00  0.00     0.032 C 
HETATM    6  C   UNK N   1      31.285  17.133   4.153  0.00  0.00     0.007 C 
HETATM    7  C   UNK N   1      32.095  14.419   5.484  0.00  0.00     0.012 C 
HETATM    8  C   UNK N   1      30.021  16.301   4.354  0.00  0.00     0.010 C 
HETATM    9  C   UNK N   1      34.839  14.354   6.706  0.00  0.00     0.037 C 
HETATM   10  C   UNK N   1      34.286  13.157   5.932  0.00  0.00     0.118 C 
HETATM   11  C   UNK N   1      33.251  15.933   7.924  0.00  0.00     0.019 C 
HETATM   12  C   UNK N   1      28.742  18.150   5.669  0.00  0.00    -0.002 C 
HETATM   13  C   UNK N   1      30.184  16.627   6.865  0.00  0.00     0.001 C 
HETATM   14  C   UNK N   1      32.258  17.008   5.339  0.00  0.00     0.001 C 
HETATM   15  C   UNK N   1      34.015  15.659   6.593  0.00  0.00     0.003 C 
HETATM   16  C   UNK N   1      31.537  17.398   6.660  0.00  0.00     0.024 C 
HETATM   17  C   UNK N   1      32.534  17.302   7.845  0.00  0.00     0.127 C 
HETATM   18  C   UNK N   1      29.264  16.691   5.626  0.00  0.00    -0.036 C 
HETATM   19  C   UNK N   1      33.029  15.649   5.383  0.00  0.00    -0.036 C 
ENDROOT
BRANCH  12  20
HETATM   20  C   UNK N   1      27.551  18.602   4.780  0.00  0.00    -0.013 C 
HETATM   21  C   UNK N   1      27.906  19.707   3.790  0.00  0.00     0.010 C 
BRANCH  20  22
HETATM   22  C   UNK N   1      26.289  18.949   5.582  0.00  0.00     0.015 C 
BRANCH  22  23
HETATM   23  C   UNK N   1      25.903  20.425   5.516  0.00  0.00     0.110 C 
BRANCH  23  24
HETATM   24  C   UNK N   1      26.464  21.180   6.676  0.00  0.00     0.139 C 
HETATM   25  O   UNK N   1      27.371  21.979   6.513  0.00  0.00    -0.650 OA
BRANCH  24  26
HETATM   26  O   UNK N   1      25.982  20.957   7.913  0.00  0.00    -0.776 OA
HETATM   27  H   UNK N   1      25.603  21.647   8.421  0.00  0.00     0.167 HD
ENDBRANCH  24  26
ENDBRANCH  23  24
ENDBRANCH  22  23
ENDBRANCH  20  22
ENDBRANCH  12  20
BRANCH  17  28
HETATM   28  O   UNK N   1      31.895  17.592   9.055  0.00  0.00    -0.395 OA
HETATM   29  H   UNK N   1      31.943  18.431   9.537  0.00  0.00     0.210 HD
ENDBRANCH  17  28
BRANCH  11  30
HETATM   30  C   UNK N   1      34.192  15.885   9.144  0.00  0.00     0.003 C 
HETATM   31  C   UNK N   1      33.789  14.860  10.195  0.00  0.00     0.005 C 
ENDBRANCH  11  30
BRANCH  10  32
HETATM   32  O   UNK N   1      34.806  11.984   6.476  0.00  0.00    -0.396 OA
HETATM   33  H   UNK N   1      35.068  11.738   7.378  0.00  0.00     0.210 HD
ENDBRANCH  10  32
TORSDOF 8
ENDMDL
MODEL 6
REMARK VINA RESULT:      -6.7     15.102     17.246
REMARK  8 active torsions:
REMARK  status: ('A' for Active; 'I' for Inactive)
REMARK    1  A    between atoms: C_17  and  C_5 
REMARK    2  A    between atoms: C_9  and  C_6 
REMARK    3  A    between atoms: C_15  and  C_6 
REMARK    4  A    between atoms: C_22  and  C_9 
REMARK    5  A    between atoms: C_18  and  C_15 
REMARK    6  A    between atoms: C_16  and  O_27 
REMARK    7  A    between atoms: O_29  and  C_22 
REMARK    8  A    between atoms: C_24  and  O_30 
ROOT
HETATM    1  C   UNK N   1      31.957  23.608  -4.774  0.00  0.00     0.016 C 
HETATM    2  C   UNK N   1      27.785  26.246  -8.120  0.00  0.00     0.016 C 
HETATM    3  C   UNK N   1      29.940  21.697  -3.563  0.00  0.00     0.006 C 
HETATM    4  C   UNK N   1      29.580  23.122  -3.101  0.00  0.00     0.006 C 
HETATM    5  C   UNK N   1      29.404  28.106  -5.989  0.00  0.00     0.032 C 
HETATM    6  C   UNK N   1      29.031  23.653  -7.280  0.00  0.00     0.007 C 
HETATM    7  C   UNK N   1      29.419  26.590  -6.272  0.00  0.00     0.012 C 
HETATM    8  C   UNK N   1      30.445  23.784  -6.719  0.00  0.00     0.010 C 
HETATM    9  C   UNK N   1      26.890  28.174  -5.921  0.00  0.00     0.037 C 
HETATM   10  C   UNK N   1      28.152  28.811  -6.506  0.00  0.00     0.118 C 
HETATM   11  C   UNK N   1      27.081  26.238  -4.274  0.00  0.00     0.019 C 
HETATM   12  C   UNK N   1      30.218  21.782  -5.069  0.00  0.00    -0.002 C 
HETATM   13  C   UNK N   1      29.512  23.982  -4.368  0.00  0.00     0.001 C 
HETATM   14  C   UNK N   1      27.997  24.420  -6.438  0.00  0.00     0.001 C 
HETATM   15  C   UNK N   1      26.928  26.633  -5.774  0.00  0.00     0.003 C 
HETATM   16  C   UNK N   1      28.057  23.945  -4.959  0.00  0.00     0.024 C 
HETATM   17  C   UNK N   1      26.990  24.700  -4.125  0.00  0.00     0.127 C 
HETATM   18  C   UNK N   1      30.547  23.283  -5.277  0.00  0.00    -0.036 C 
HETATM   19  C   UNK N   1      28.048  25.971  -6.637  0.00  0.00    -0.036 C 
ENDROOT
BRANCH  12  20
HETATM   20  C   UNK N   1      31.190  20.673  -5.560  0.00  0.00    -0.013 C 
HETATM   21  C   UNK N   1      30.623  19.813  -6.684  0.00  0.00     0.010 C 
BRANCH  20  22
HETATM   22  C   UNK N   1      31.758  19.812  -4.422  0.00  0.00     0.015 C 
BRANCH  22  23
HETATM   23  C   UNK N   1      33.283  19.798  -4.364  0.00  0.00     0.110 C 
BRANCH  23  24
HETATM   24  C   UNK N   1      33.790  20.728  -3.312  0.00  0.00     0.139 C 
HETATM   25  O   UNK N   1      34.869  21.283  -3.446  0.00  0.00    -0.650 OA
BRANCH  24  26
HETATM   26  O   UNK N   1      33.062  20.937  -2.200  0.00  0.00    -0.776 OA
HETATM   27  H   UNK N   1      32.371  20.355  -1.951  0.00  0.00     0.167 HD
ENDBRANCH  24  26
ENDBRANCH  23  24
ENDBRANCH  22  23
ENDBRANCH  20  22
ENDBRANCH  12  20
BRANCH  17  28
HETATM   28  O   UNK N   1      27.062  24.332  -2.777  0.00  0.00    -0.395 OA
HETATM   29  H   UNK N   1      27.285  23.451  -2.439  0.00  0.00     0.210 HD
ENDBRANCH  17  28
BRANCH  11  30
HETATM   30  C   UNK N   1      26.026  26.931  -3.389  0.00  0.00     0.003 C 
HETATM   31  C   UNK N   1      26.572  28.093  -2.572  0.00  0.00     0.005 C 
ENDBRANCH  11  30
BRANCH  10  32
HETATM   32  O   UNK N   1      28.187  30.158  -6.150  0.00  0.00    -0.396 OA
HETATM   33  H   UNK N   1      28.712  30.652  -5.501  0.00  0.00     0.210 HD
ENDBRANCH  10  32
TORSDOF 8
ENDMDL
MODEL 7
REMARK VINA RESULT:      -6.7     13.389     17.106
REMARK  8 active torsions:
REMARK  status: ('A' for Active; 'I' for Inactive)
REMARK    1  A    between atoms: C_17  and  C_5 
REMARK    2  A    between atoms: C_9  and  C_6 
REMARK    3  A    between atoms: C_15  and  C_6 
REMARK    4  A    between atoms: C_22  and  C_9 
REMARK    5  A    between atoms: C_18  and  C_15 
REMARK    6  A    between atoms: C_16  and  O_27 
REMARK    7  A    between atoms: O_29  and  C_22 
REMARK    8  A    between atoms: C_24  and  O_30 
ROOT
HETATM    1  C   UNK N   1      37.946  13.463  10.599  0.00  0.00     0.016 C 
HETATM    2  C   UNK N   1      35.708  11.517  15.773  0.00  0.00     0.016 C 
HETATM    3  C   UNK N   1      35.313  13.027   9.164  0.00  0.00     0.006 C 
HETATM    4  C   UNK N   1      35.851  11.650   9.597  0.00  0.00     0.006 C 
HETATM    5  C   UNK N   1      38.258   9.907  14.535  0.00  0.00     0.032 C 
HETATM    6  C   UNK N   1      35.353  13.375  13.448  0.00  0.00     0.007 C 
HETATM    7  C   UNK N   1      37.399  11.071  13.999  0.00  0.00     0.012 C 
HETATM    8  C   UNK N   1      36.639  13.682  12.684  0.00  0.00     0.010 C 
HETATM    9  C   UNK N   1      36.227   8.564  15.169  0.00  0.00     0.037 C 
HETATM   10  C   UNK N   1      37.577   9.107  15.642  0.00  0.00     0.118 C 
HETATM   11  C   UNK N   1      35.436   9.007  12.786  0.00  0.00     0.019 C 
HETATM   12  C   UNK N   1      35.467  13.957  10.374  0.00  0.00    -0.002 C 
HETATM   13  C   UNK N   1      36.172  11.762  11.092  0.00  0.00     0.001 C 
HETATM   14  C   UNK N   1      34.999  11.878  13.412  0.00  0.00     0.001 C 
HETATM   15  C   UNK N   1      35.409   9.514  14.261  0.00  0.00     0.003 C 
HETATM   16  C   UNK N   1      34.903  11.390  11.939  0.00  0.00     0.024 C 
HETATM   17  C   UNK N   1      34.513   9.889  11.912  0.00  0.00     0.127 C 
HETATM   18  C   UNK N   1      36.560  13.252  11.217  0.00  0.00    -0.036 C 
HETATM   19  C   UNK N   1      35.892  10.995  14.344  0.00  0.00    -0.036 C 
ENDROOT
BRANCH  12  20
HETATM   20  C   UNK N   1      35.608  15.450   9.966  0.00  0.00    -0.013 C 
HETATM   21  C   UNK N   1      35.358  16.427  11.110  0.00  0.00     0.010 C 
BRANCH  20  22
HETATM   22  C   UNK N   1      34.792  15.821   8.719  0.00  0.00     0.015 C 
BRANCH  22  23
HETATM   23  C   UNK N   1      33.991  17.112   8.869  0.00  0.00     0.110 C 
BRANCH  23  24
HETATM   24  C   UNK N   1      34.523  18.181   7.973  0.00  0.00     0.139 C 
HETATM   25  O   UNK N   1      35.090  19.155   8.442  0.00  0.00    -0.650 OA
BRANCH  24  26
HETATM   26  O   UNK N   1      34.355  18.081   6.642  0.00  0.00    -0.776 OA
HETATM   27  H   UNK N   1      33.649  17.585   6.274  0.00  0.00     0.167 HD
ENDBRANCH  24  26
ENDBRANCH  23  24
ENDBRANCH  22  23
ENDBRANCH  20  22
ENDBRANCH  12  20
BRANCH  17  28
HETATM   28  O   UNK N   1      34.477   9.410  10.598  0.00  0.00    -0.395 OA
HETATM   29  H   UNK N   1      35.192   9.477   9.948  0.00  0.00     0.210 HD
ENDBRANCH  17  28
BRANCH  11  30
HETATM   30  C   UNK N   1      35.025   7.524  12.683  0.00  0.00     0.003 C 
HETATM   31  C   UNK N   1      36.072   6.639  12.022  0.00  0.00     0.005 C 
ENDBRANCH  11  30
BRANCH  10  32
HETATM   32  O   UNK N   1      38.389   8.039  16.020  0.00  0.00    -0.396 OA
HETATM   33  H   UNK N   1      38.486   7.135  15.679  0.00  0.00     0.210 HD
ENDBRANCH  10  32
TORSDOF 8
ENDMDL
MODEL 8
REMARK VINA RESULT:      -6.7      3.833      6.208
REMARK  8 active torsions:
REMARK  status: ('A' for Active; 'I' for Inactive)
REMARK    1  A    between atoms: C_17  and  C_5 
REMARK    2  A    between atoms: C_9  and  C_6 
REMARK    3  A    between atoms: C_15  and  C_6 
REMARK    4  A    between atoms: C_22  and  C_9 
REMARK    5  A    between atoms: C_18  and  C_15 
REMARK    6  A    between atoms: C_16  and  O_27 
REMARK    7  A    between atoms: O_29  and  C_22 
REMARK    8  A    between atoms: C_24  and  O_30 
ROOT
HETATM    1  C   UNK N   1      26.694  16.317   2.827  0.00  0.00     0.016 C 
HETATM    2  C   UNK N   1      21.341  15.359   5.276  0.00  0.00     0.016 C 
HETATM    3  C   UNK N   1      26.968  19.005   4.200  0.00  0.00     0.006 C 
HETATM    4  C   UNK N   1      25.799  19.100   3.200  0.00  0.00     0.006 C 
HETATM    5  C   UNK N   1      21.518  15.427   2.021  0.00  0.00     0.032 C 
HETATM    6  C   UNK N   1      24.202  16.107   5.759  0.00  0.00     0.007 C 
HETATM    7  C   UNK N   1      22.558  15.694   3.129  0.00  0.00     0.012 C 
HETATM    8  C   UNK N   1      25.164  15.671   4.656  0.00  0.00     0.010 C 
HETATM    9  C   UNK N   1      19.809  16.905   3.127  0.00  0.00     0.037 C 
HETATM   10  C   UNK N   1      20.073  15.533   2.504  0.00  0.00     0.118 C 
HETATM   11  C   UNK N   1      21.660  18.656   3.197  0.00  0.00     0.019 C 
HETATM   12  C   UNK N   1      26.786  17.686   4.962  0.00  0.00    -0.002 C 
HETATM   13  C   UNK N   1      24.879  17.910   3.498  0.00  0.00     0.001 C 
HETATM   14  C   UNK N   1      23.134  17.088   5.245  0.00  0.00     0.001 C 
HETATM   15  C   UNK N   1      20.970  17.490   3.968  0.00  0.00     0.003 C 
HETATM   16  C   UNK N   1      23.816  18.317   4.581  0.00  0.00     0.024 C 
HETATM   17  C   UNK N   1      22.733  19.316   4.096  0.00  0.00     0.127 C 
HETATM   18  C   UNK N   1      25.885  16.857   4.012  0.00  0.00    -0.036 C 
HETATM   19  C   UNK N   1      22.015  16.410   4.389  0.00  0.00    -0.036 C 
ENDROOT
BRANCH  12  20
HETATM   20  C   UNK N   1      28.128  17.114   5.496  0.00  0.00    -0.013 C 
HETATM   21  C   UNK N   1      27.985  15.777   6.216  0.00  0.00     0.010 C 
BRANCH  20  22
HETATM   22  C   UNK N   1      28.930  18.122   6.333  0.00  0.00     0.015 C 
BRANCH  22  23
HETATM   23  C   UNK N   1      28.079  18.916   7.322  0.00  0.00     0.110 C 
BRANCH  23  24
HETATM   24  C   UNK N   1      28.375  18.513   8.729  0.00  0.00     0.139 C 
HETATM   25  O   UNK N   1      29.467  18.744   9.221  0.00  0.00    -0.650 OA
BRANCH  24  26
HETATM   26  O   UNK N   1      27.438  17.871   9.450  0.00  0.00    -0.776 OA
HETATM   27  H   UNK N   1      27.658  17.400  10.230  0.00  0.00     0.167 HD
ENDBRANCH  24  26
ENDBRANCH  23  24
ENDBRANCH  22  23
ENDBRANCH  20  22
ENDBRANCH  12  20
BRANCH  17  28
HETATM   28  O   UNK N   1      23.320  20.404   3.442  0.00  0.00    -0.395 OA
HETATM   29  H   UNK N   1      24.215  20.743   3.592  0.00  0.00     0.210 HD
ENDBRANCH  17  28
BRANCH  11  30
HETATM   30  C   UNK N   1      20.640  19.705   2.712  0.00  0.00     0.003 C 
HETATM   31  C   UNK N   1      20.736  20.020   1.227  0.00  0.00     0.005 C 
ENDBRANCH  11  30
BRANCH  10  32
HETATM   32  O   UNK N   1      19.202  15.346   1.432  0.00  0.00    -0.396 OA
HETATM   33  H   UNK N   1      19.325  15.395   0.470  0.00  0.00     0.210 HD
ENDBRANCH  10  32
TORSDOF 8
ENDMDL
MODEL 9
REMARK VINA RESULT:      -6.6     15.230     19.894
REMARK  8 active torsions:
REMARK  status: ('A' for Active; 'I' for Inactive)
REMARK    1  A    between atoms: C_17  and  C_5 
REMARK    2  A    between atoms: C_9  and  C_6 
REMARK    3  A    between atoms: C_15  and  C_6 
REMARK    4  A    between atoms: C_22  and  C_9 
REMARK    5  A    between atoms: C_18  and  C_15 
REMARK    6  A    between atoms: C_16  and  O_27 
REMARK    7  A    between atoms: O_29  and  C_22 
REMARK    8  A    between atoms: C_24  and  O_30 
ROOT
HETATM    1  C   UNK N   1      34.198  10.392  15.356  0.00  0.00     0.016 C 
HETATM    2  C   UNK N   1      36.286   6.551  19.411  0.00  0.00     0.016 C 
HETATM    3  C   UNK N   1      35.942  12.634  16.414  0.00  0.00     0.006 C 
HETATM    4  C   UNK N   1      34.922  12.269  17.509  0.00  0.00     0.006 C 
HETATM    5  C   UNK N   1      33.082   7.151  19.415  0.00  0.00     0.032 C 
HETATM    6  C   UNK N   1      36.977   8.556  17.294  0.00  0.00     0.007 C 
HETATM    7  C   UNK N   1      34.254   7.746  18.607  0.00  0.00     0.012 C 
HETATM    8  C   UNK N   1      35.861   8.819  16.286  0.00  0.00     0.010 C 
HETATM    9  C   UNK N   1      34.318   7.403  21.592  0.00  0.00     0.037 C 
HETATM   10  C   UNK N   1      33.520   6.451  20.699  0.00  0.00     0.118 C 
HETATM   11  C   UNK N   1      34.701   9.816  20.865  0.00  0.00     0.019 C 
HETATM   12  C   UNK N   1      36.506  11.310  15.881  0.00  0.00    -0.002 C 
HETATM   13  C   UNK N   1      35.016  10.750  17.698  0.00  0.00     0.001 C 
HETATM   14  C   UNK N   1      36.565   8.930  18.728  0.00  0.00     0.001 C 
HETATM   15  C   UNK N   1      35.275   8.367  20.849  0.00  0.00     0.003 C 
HETATM   16  C   UNK N   1      36.105  10.414  18.779  0.00  0.00     0.024 C 
HETATM   17  C   UNK N   1      35.723  10.792  20.235  0.00  0.00     0.127 C 
HETATM   18  C   UNK N   1      35.415  10.283  16.280  0.00  0.00    -0.036 C 
HETATM   19  C   UNK N   1      35.580   7.910  19.389  0.00  0.00    -0.036 C 
ENDROOT
BRANCH  12  20
HETATM   20  C   UNK N   1      37.004  11.420  14.414  0.00  0.00    -0.013 C 
HETATM   21  C   UNK N   1      38.463  11.014  14.228  0.00  0.00     0.010 C 
BRANCH  20  22
HETATM   22  C   UNK N   1      36.713  12.784  13.772  0.00  0.00     0.015 C 
BRANCH  22  23
HETATM   23  C   UNK N   1      35.599  12.749  12.729  0.00  0.00     0.110 C 
BRANCH  23  24
HETATM   24  C   UNK N   1      35.223  14.127  12.296  0.00  0.00     0.139 C 
HETATM   25  O   UNK N   1      35.948  15.074  12.553  0.00  0.00    -0.650 OA
BRANCH  24  26
HETATM   26  O   UNK N   1      34.067  14.328  11.638  0.00  0.00    -0.776 OA
HETATM   27  H   UNK N   1      33.263  13.949  11.934  0.00  0.00     0.167 HD
ENDBRANCH  24  26
ENDBRANCH  23  24
ENDBRANCH  22  23
ENDBRANCH  20  22
ENDBRANCH  12  20
BRANCH  17  28
HETATM   28  O   UNK N   1      35.250  12.107  20.298  0.00  0.00    -0.395 OA
HETATM   29  H   UNK N   1      35.655  12.834  20.794  0.00  0.00     0.210 HD
ENDBRANCH  17  28
BRANCH  11  30
HETATM   30  C   UNK N   1      34.330  10.269  22.292  0.00  0.00     0.003 C 
HETATM   31  C   UNK N   1      32.858  10.613  22.466  0.00  0.00     0.005 C 
ENDBRANCH  11  30
BRANCH  10  32
HETATM   32  O   UNK N   1      32.401   6.004  21.398  0.00  0.00    -0.396 OA
HETATM   33  H   UNK N   1      31.525   5.700  21.111  0.00  0.00     0.210 HD
ENDBRANCH  10  32
TORSDOF 8
ENDMDL
