MODEL 1
REMARK VINA RESULT:      -6.1      0.000      0.000
REMARK  1 active torsions:
REMARK  status: ('A' for Active; 'I' for Inactive)
REMARK    1  A    between atoms: C_4  and  C_7 
ROOT
HETATM    1  O   UNK N   1      32.397  14.831   7.989  0.00  0.00    -0.272 OA
HETATM    2  O   UNK N   1      35.283  17.902   9.431  0.00  0.00    -0.273 OA
HETATM    3  N   UNK N   1      33.987  16.154   8.868  0.00  0.00    -0.292 N 
HETATM    4  C   UNK N   1      32.311  17.218   7.574  0.00  0.00     0.073 A 
HETATM    5  C   UNK N   1      33.295  18.290   8.136  0.00  0.00     0.127 A 
HETATM    6  C   UNK N   1      32.872  15.944   8.165  0.00  0.00     0.239 A 
HETATM    7  C   UNK N   1      32.450  17.154   6.061  0.00  0.00     0.031 C 
HETATM    8  C   UNK N   1      34.293  17.452   8.876  0.00  0.00     0.227 A 
HETATM    9  C   UNK N   1      34.769  15.120   9.503  0.00  0.00     0.162 C 
ENDROOT
BRANCH   4  10
HETATM   10  C   UNK N   1      30.870  17.531   7.936  0.00  0.00    -0.040 A 
HETATM   11  C   UNK N   1      29.801  17.148   7.107  0.00  0.00     0.008 A 
HETATM   12  C   UNK N   1      28.487  17.498   7.436  0.00  0.00     0.001 A 
HETATM   13  C   UNK N   1      28.227  18.231   8.597  0.00  0.00     0.000 A 
HETATM   14  C   UNK N   1      29.280  18.609   9.434  0.00  0.00     0.001 A 
HETATM   15  C   UNK N   1      30.594  18.267   9.102  0.00  0.00     0.008 A 
ENDBRANCH   4  10
TORSDOF 1
ENDMDL
MODEL 2
REMARK VINA RESULT:      -5.8      8.111     10.609
REMARK  1 active torsions:
REMARK  status: ('A' for Active; 'I' for Inactive)
REMARK    1  A    between atoms: C_4  and  C_7 
ROOT
HETATM    1  O   UNK N   1      37.634  10.944  15.056  0.00  0.00    -0.272 OA
HETATM    2  O   UNK N   1      34.518  12.914  12.556  0.00  0.00    -0.273 OA
HETATM    3  N   UNK N   1      36.290  12.023  13.614  0.00  0.00    -0.292 N 
HETATM    4  C   UNK N   1      35.266  11.120  15.552  0.00  0.00     0.073 A 
HETATM    5  C   UNK N   1      34.196  11.865  14.696  0.00  0.00     0.127 A 
HETATM    6  C   UNK N   1      36.524  11.355  14.745  0.00  0.00     0.239 A 
HETATM    7  C   UNK N   1      34.960   9.630  15.551  0.00  0.00     0.031 C 
HETATM    8  C   UNK N   1      34.994  12.325  13.514  0.00  0.00     0.227 A 
HETATM    9  C   UNK N   1      37.289  12.345  12.623  0.00  0.00     0.162 C 
ENDROOT
BRANCH   4  10
HETATM   10  C   UNK N   1      35.299  11.628  16.982  0.00  0.00    -0.040 A 
HETATM   11  C   UNK N   1      35.345  10.748  18.077  0.00  0.00     0.008 A 
HETATM   12  C   UNK N   1      35.318  11.242  19.386  0.00  0.00     0.001 A 
HETATM   13  C   UNK N   1      35.247  12.618  19.614  0.00  0.00     0.000 A 
HETATM   14  C   UNK N   1      35.210  13.504  18.534  0.00  0.00     0.001 A 
HETATM   15  C   UNK N   1      35.230  13.012  17.226  0.00  0.00     0.008 A 
ENDBRANCH   4  10
TORSDOF 1
ENDMDL
MODEL 3
REMARK VINA RESULT:      -5.6      8.925     10.808
REMARK  1 active torsions:
REMARK  status: ('A' for Active; 'I' for Inactive)
REMARK    1  A    between atoms: C_4  and  C_7 
ROOT
HETATM    1  O   UNK N   1      34.184  12.530  14.198  0.00  0.00    -0.272 OA
HETATM    2  O   UNK N   1      36.282   8.629  13.727  0.00  0.00    -0.273 OA
HETATM    3  N   UNK N   1      35.020  10.488  13.768  0.00  0.00    -0.292 N 
HETATM    4  C   UNK N   1      36.149  11.779  15.404  0.00  0.00     0.073 A 
HETATM    5  C   UNK N   1      36.838  10.386  15.273  0.00  0.00     0.127 A 
HETATM    6  C   UNK N   1      35.008  11.653  14.419  0.00  0.00     0.239 A 
HETATM    7  C   UNK N   1      37.100  12.858  14.909  0.00  0.00     0.031 C 
HETATM    8  C   UNK N   1      36.037   9.733  14.187  0.00  0.00     0.227 A 
HETATM    9  C   UNK N   1      34.085  10.111  12.735  0.00  0.00     0.162 C 
ENDROOT
BRANCH   4  10
HETATM   10  C   UNK N   1      35.750  12.077  16.838  0.00  0.00    -0.040 A 
HETATM   11  C   UNK N   1      35.433  13.381  17.260  0.00  0.00     0.008 A 
HETATM   12  C   UNK N   1      35.122  13.636  18.600  0.00  0.00     0.001 A 
HETATM   13  C   UNK N   1      35.121  12.594  19.530  0.00  0.00     0.000 A 
HETATM   14  C   UNK N   1      35.425  11.294  19.122  0.00  0.00     0.001 A 
HETATM   15  C   UNK N   1      35.743  11.037  17.785  0.00  0.00     0.008 A 
ENDBRANCH   4  10
TORSDOF 1
ENDMDL
MODEL 4
REMARK VINA RESULT:      -5.4      1.974      2.100
REMARK  1 active torsions:
REMARK  status: ('A' for Active; 'I' for Inactive)
REMARK    1  A    between atoms: C_4  and  C_7 
ROOT
HETATM    1  O   UNK N   1      30.937  14.445   6.177  0.00  0.00    -0.272 OA
HETATM    2  O   UNK N   1      34.986  16.283   6.446  0.00  0.00    -0.273 OA
HETATM    3  N   UNK N   1      33.083  15.089   6.348  0.00  0.00    -0.292 N 
HETATM    4  C   UNK N   1      31.463  16.812   6.186  0.00  0.00     0.073 A 
HETATM    5  C   UNK N   1      32.881  17.443   6.342  0.00  0.00     0.127 A 
HETATM    6  C   UNK N   1      31.775  15.333   6.251  0.00  0.00     0.239 A 
HETATM    7  C   UNK N   1      30.920  17.134   4.803  0.00  0.00     0.031 C 
HETATM    8  C   UNK N   1      33.767  16.235   6.385  0.00  0.00     0.227 A 
HETATM    9  C   UNK N   1      33.678  13.774   6.377  0.00  0.00     0.162 C 
ENDROOT
BRANCH   4  10
HETATM   10  C   UNK N   1      30.499  17.327   7.239  0.00  0.00    -0.040 A 
HETATM   11  C   UNK N   1      29.106  17.265   7.058  0.00  0.00     0.008 A 
HETATM   12  C   UNK N   1      28.241  17.797   8.020  0.00  0.00     0.001 A 
HETATM   13  C   UNK N   1      28.756  18.394   9.173  0.00  0.00     0.000 A 
HETATM   14  C   UNK N   1      30.138  18.454   9.369  0.00  0.00     0.001 A 
HETATM   15  C   UNK N   1      31.004  17.929   8.406  0.00  0.00     0.008 A 
ENDBRANCH   4  10
TORSDOF 1
ENDMDL
MODEL 5
REMARK VINA RESULT:      -5.3      8.906     11.528
REMARK  1 active torsions:
REMARK  status: ('A' for Active; 'I' for Inactive)
REMARK    1  A    between atoms: C_4  and  C_7 
ROOT
HETATM    1  O   UNK N   1      22.556  16.255   3.271  0.00  0.00    -0.272 OA
HETATM    2  O   UNK N   1      19.091  18.996   2.698  0.00  0.00    -0.273 OA
HETATM    3  N   UNK N   1      20.706  17.434   2.782  0.00  0.00    -0.292 N 
HETATM    4  C   UNK N   1      22.256  18.449   4.260  0.00  0.00     0.073 A 
HETATM    5  C   UNK N   1      21.066  19.424   4.003  0.00  0.00     0.127 A 
HETATM    6  C   UNK N   1      21.884  17.271   3.386  0.00  0.00     0.239 A 
HETATM    7  C   UNK N   1      22.233  18.002   5.713  0.00  0.00     0.031 C 
HETATM    8  C   UNK N   1      20.180  18.618   3.102  0.00  0.00     0.227 A 
HETATM    9  C   UNK N   1      20.073  16.455   1.930  0.00  0.00     0.162 C 
ENDROOT
BRANCH   4  10
HETATM   10  C   UNK N   1      23.593  19.099   3.953  0.00  0.00    -0.040 A 
HETATM   11  C   UNK N   1      23.705  20.163   3.040  0.00  0.00     0.008 A 
HETATM   12  C   UNK N   1      24.957  20.706   2.734  0.00  0.00     0.001 A 
HETATM   13  C   UNK N   1      26.109  20.196   3.338  0.00  0.00     0.000 A 
HETATM   14  C   UNK N   1      26.010  19.146   4.254  0.00  0.00     0.001 A 
HETATM   15  C   UNK N   1      24.761  18.597   4.555  0.00  0.00     0.008 A 
ENDBRANCH   4  10
TORSDOF 1
ENDMDL
MODEL 6
REMARK VINA RESULT:      -5.3      6.507      8.520
REMARK  1 active torsions:
REMARK  status: ('A' for Active; 'I' for Inactive)
REMARK    1  A    between atoms: C_4  and  C_7 
ROOT
HETATM    1  O   UNK N   1      37.670  11.547  12.974  0.00  0.00    -0.272 OA
HETATM    2  O   UNK N   1      36.476  14.932  10.337  0.00  0.00    -0.273 OA
HETATM    3  N   UNK N   1      37.332  13.209  11.500  0.00  0.00    -0.292 N 
HETATM    4  C   UNK N   1      35.701  12.943  13.200  0.00  0.00     0.073 A 
HETATM    5  C   UNK N   1      35.326  14.164  12.305  0.00  0.00     0.127 A 
HETATM    6  C   UNK N   1      37.003  12.492  12.577  0.00  0.00     0.239 A 
HETATM    7  C   UNK N   1      34.666  11.845  13.010  0.00  0.00     0.031 C 
HETATM    8  C   UNK N   1      36.419  14.157  11.279  0.00  0.00     0.227 A 
HETATM    9  C   UNK N   1      38.492  12.974  10.674  0.00  0.00     0.162 C 
ENDROOT
BRANCH   4  10
HETATM   10  C   UNK N   1      35.772  13.322  14.668  0.00  0.00    -0.040 A 
HETATM   11  C   UNK N   1      34.873  12.792  15.611  0.00  0.00     0.008 A 
HETATM   12  C   UNK N   1      34.925  13.201  16.948  0.00  0.00     0.001 A 
HETATM   13  C   UNK N   1      35.876  14.138  17.358  0.00  0.00     0.000 A 
HETATM   14  C   UNK N   1      36.781  14.664  16.433  0.00  0.00     0.001 A 
HETATM   15  C   UNK N   1      36.726  14.263  15.095  0.00  0.00     0.008 A 
ENDBRANCH   4  10
TORSDOF 1
ENDMDL
MODEL 7
REMARK VINA RESULT:      -5.3      3.123      4.752
REMARK  1 active torsions:
REMARK  status: ('A' for Active; 'I' for Inactive)
REMARK    1  A    between atoms: C_4  and  C_7 
ROOT
HETATM    1  O   UNK N   1      31.200  14.311   5.216  0.00  0.00    -0.272 OA
HETATM    2  O   UNK N   1      33.947  15.552   1.936  0.00  0.00    -0.273 OA
HETATM    3  N   UNK N   1      32.620  14.640   3.506  0.00  0.00    -0.292 N 
HETATM    4  C   UNK N   1      31.918  16.567   4.694  0.00  0.00     0.073 A 
HETATM    5  C   UNK N   1      32.928  16.982   3.580  0.00  0.00     0.127 A 
HETATM    6  C   UNK N   1      31.874  15.064   4.528  0.00  0.00     0.239 A 
HETATM    7  C   UNK N   1      30.545  17.132   4.362  0.00  0.00     0.031 C 
HETATM    8  C   UNK N   1      33.226  15.672   2.915  0.00  0.00     0.227 A 
HETATM    9  C   UNK N   1      32.730  13.266   3.078  0.00  0.00     0.162 C 
ENDROOT
BRANCH   4  10
HETATM   10  C   UNK N   1      32.351  17.065   6.061  0.00  0.00    -0.040 A 
HETATM   11  C   UNK N   1      31.431  17.232   7.111  0.00  0.00     0.008 A 
HETATM   12  C   UNK N   1      31.848  17.745   8.344  0.00  0.00     0.001 A 
HETATM   13  C   UNK N   1      33.187  18.093   8.542  0.00  0.00     0.000 A 
HETATM   14  C   UNK N   1      34.112  17.923   7.510  0.00  0.00     0.001 A 
HETATM   15  C   UNK N   1      33.696  17.417   6.275  0.00  0.00     0.008 A 
ENDBRANCH   4  10
TORSDOF 1
ENDMDL
MODEL 8
REMARK VINA RESULT:      -5.2      8.029     10.892
REMARK  1 active torsions:
REMARK  status: ('A' for Active; 'I' for Inactive)
REMARK    1  A    between atoms: C_4  and  C_7 
ROOT
HETATM    1  O   UNK N   1      33.582  10.934  14.806  0.00  0.00    -0.272 OA
HETATM    2  O   UNK N   1      36.995  12.961  12.786  0.00  0.00    -0.273 OA
HETATM    3  N   UNK N   1      35.203  11.827  13.532  0.00  0.00    -0.292 N 
HETATM    4  C   UNK N   1      35.329  12.242  15.862  0.00  0.00     0.073 A 
HETATM    5  C   UNK N   1      36.552  12.897  15.150  0.00  0.00     0.127 A 
HETATM    6  C   UNK N   1      34.613  11.583  14.704  0.00  0.00     0.239 A 
HETATM    7  C   UNK N   1      34.434  13.334  16.427  0.00  0.00     0.031 C 
HETATM    8  C   UNK N   1      36.292  12.578  13.708  0.00  0.00     0.227 A 
HETATM    9  C   UNK N   1      34.716  11.370  12.252  0.00  0.00     0.162 C 
ENDROOT
BRANCH   4  10
HETATM   10  C   UNK N   1      35.760  11.313  16.983  0.00  0.00    -0.040 A 
HETATM   11  C   UNK N   1      36.465  10.124  16.726  0.00  0.00     0.008 A 
HETATM   12  C   UNK N   1      36.801   9.258  17.772  0.00  0.00     0.001 A 
HETATM   13  C   UNK N   1      36.441   9.573  19.085  0.00  0.00     0.000 A 
HETATM   14  C   UNK N   1      35.749  10.756  19.355  0.00  0.00     0.001 A 
HETATM   15  C   UNK N   1      35.406  11.618  18.309  0.00  0.00     0.008 A 
ENDBRANCH   4  10
TORSDOF 1
ENDMDL
MODEL 9
REMARK VINA RESULT:      -5.1      9.250     11.302
REMARK  1 active torsions:
REMARK  status: ('A' for Active; 'I' for Inactive)
REMARK    1  A    between atoms: C_4  and  C_7 
ROOT
HETATM    1  O   UNK N   1      36.900  12.984  14.592  0.00  0.00    -0.272 OA
HETATM    2  O   UNK N   1      35.739  15.198  18.279  0.00  0.00    -0.273 OA
HETATM    3  N   UNK N   1      36.526  14.303  16.372  0.00  0.00    -0.292 N 
HETATM    4  C   UNK N   1      35.313  12.269  16.280  0.00  0.00     0.073 A 
HETATM    5  C   UNK N   1      34.961  13.026  17.597  0.00  0.00     0.127 A 
HETATM    6  C   UNK N   1      36.336  13.193  15.656  0.00  0.00     0.239 A 
HETATM    7  C   UNK N   1      34.086  12.226  15.382  0.00  0.00     0.031 C 
HETATM    8  C   UNK N   1      35.767  14.284  17.470  0.00  0.00     0.227 A 
HETATM    9  C   UNK N   1      37.403  15.387  15.997  0.00  0.00     0.162 C 
ENDROOT
BRANCH   4  10
HETATM   10  C   UNK N   1      35.788  10.853  16.554  0.00  0.00    -0.040 A 
HETATM   11  C   UNK N   1      35.663   9.834  15.593  0.00  0.00     0.008 A 
HETATM   12  C   UNK N   1      36.058   8.526  15.892  0.00  0.00     0.001 A 
HETATM   13  C   UNK N   1      36.584   8.222  17.150  0.00  0.00     0.000 A 
HETATM   14  C   UNK N   1      36.722   9.228  18.110  0.00  0.00     0.001 A 
HETATM   15  C   UNK N   1      36.321  10.534  17.816  0.00  0.00     0.008 A 
ENDBRANCH   4  10
TORSDOF 1
ENDMDL
