REMARK  1 active torsions:
REMARK  status: ('A' for Active; 'I' for Inactive)
REMARK    1  A    between atoms: C_4  and  C_7 
ROOT
HETATM    1  O   UNK N   1       4.691   0.331  -1.259  0.00  0.00    -0.272 OA
HETATM    2  O   UNK N   1       2.679   3.357   1.317  0.00  0.00    -0.273 OA
HETATM    3  N   UNK N   1       3.951   1.981   0.075  0.00  0.00    -0.292 N 
HETATM    4  C   UNK N   1       2.361   0.353  -0.588  0.00  0.00     0.073 A 
HETATM    5  C   UNK N   1       1.683   1.386   0.364  0.00  0.00     0.127 A 
HETATM    6  C   UNK N   1       3.787   0.857  -0.625  0.00  0.00     0.239 A 
HETATM    7  C   UNK N   1       1.763   0.486  -1.980  0.00  0.00     0.031 C 
HETATM    8  C   UNK N   1       2.800   2.346   0.643  0.00  0.00     0.227 A 
HETATM    9  C   UNK N   1       5.189   2.716   0.178  0.00  0.00     0.162 C 
ENDROOT
BRANCH   4  10
HETATM   10  C   UNK N   1       2.180  -1.071  -0.095  0.00  0.00    -0.040 A 
HETATM   11  C   UNK N   1       3.280  -1.906   0.170  0.00  0.00     0.008 A 
HETATM   12  C   UNK N   1       3.084  -3.232   0.570  0.00  0.00     0.001 A 
HETATM   13  C   UNK N   1       1.789  -3.737   0.713  0.00  0.00     0.000 A 
HETATM   14  C   UNK N   1       0.688  -2.915   0.462  0.00  0.00     0.001 A 
HETATM   15  C   UNK N   1       0.882  -1.592   0.055  0.00  0.00     0.008 A 
ENDBRANCH   4  10
TORSDOF 1
