REMARK  6 active torsions:
REMARK  status: ('A' for Active; 'I' for Inactive)
REMARK    1  A    between atoms: C_2  and  N_4 
REMARK    2  A    between atoms: N_4  and  C_10 
REMARK    3  A    between atoms: C_9  and  O_18 
REMARK    4  A    between atoms: C_11  and  O_26 
REMARK    5  A    between atoms: O_18  and  C_24 
REMARK    6  A    between atoms: C_24  and  C_28 
ROOT
HETATM    1  C   UNK N   1       6.092  -3.108   0.310  0.00  0.00     0.038 A 
HETATM    2  C   UNK N   1       7.279  -2.494   0.707  0.00  0.00     0.119 A 
HETATM    3  C   UNK N   1       6.063  -4.503   0.185  0.00  0.00     0.050 A 
HETATM    4  C   UNK N   1       4.958  -2.354   0.005  0.00  0.00     0.057 A 
HETATM    5  N   UNK N   1       8.373  -3.261   0.975  0.00  0.00    -0.338 N 
ATOM      6  HN  UNK N   1       9.241  -2.814   1.269  1.00  0.00     0.168 HD
HETATM    7  C   UNK N   1       4.896  -5.138  -0.235  0.00  0.00     0.070 A 
HETATM    8  C   UNK N   1       3.747  -4.395  -0.539  0.00  0.00     0.104 A 
HETATM    9  C   UNK N   1       3.779  -2.978  -0.427  0.00  0.00     0.102 A 
HETATM   10  N   UNK N   1       7.177  -5.230   0.461  0.00  0.00    -0.351 N 
ATOM     11  HN  UNK N   1       7.153  -6.246   0.372  1.00  0.00     0.166 HD
HETATM   12  C   UNK N   1       8.325  -4.616   0.855  0.00  0.00     0.182 A 
ENDROOT
BRANCH   2  13
HETATM   13  N   UNK N   1       7.332  -1.082   0.833  0.00  0.00    -0.339 N 
HETATM   14  H   UNK N   1       6.533  -0.631   1.189  0.00  0.00     0.167 HD
BRANCH  13  15
HETATM   15  C   UNK N   1       8.441  -0.265   0.490  0.00  0.00     0.072 A 
HETATM   16  C   UNK N   1       9.429  -0.677  -0.434  0.00  0.00     0.144 A 
HETATM   17  C   UNK N   1      10.462   0.196  -0.782  0.00  0.00     0.063 A 
HETATM   18  F   UNK N   1       9.377  -1.889  -1.038  0.00  0.00    -0.204 F 
HETATM   19  C   UNK N   1      10.523   1.473  -0.225  0.00  0.00     0.014 A 
HETATM   20  C   UNK N   1       9.544   1.890   0.678  0.00  0.00     0.021 A 
HETATM   21 Br   UNK N   1      11.931   2.656  -0.717  0.00  0.00    -0.051 Br
HETATM   22  C   UNK N   1       8.504   1.025   1.028  0.00  0.00     0.034 A 
ENDBRANCH  13  15
ENDBRANCH   2  13
BRANCH   9  23
HETATM   23  O   UNK N   1       2.694  -2.234  -0.756  0.00  0.00    -0.353 OA
HETATM   24  C   UNK N   1       2.689  -0.857  -0.761  0.00  0.00     0.210 C 
ENDBRANCH   9  23
BRANCH   8  25
HETATM   25  O   UNK N   1       2.647  -5.081  -0.939  0.00  0.00    -0.348 OA
BRANCH  25  26
HETATM   26  C   UNK N   1       1.373  -4.565  -1.024  0.00  0.00     0.180 C 
BRANCH  26  27
HETATM   27  C   UNK N   1       0.787  -4.357   0.377  0.00  0.00     0.013 C 
HETATM   28  C   UNK N   1       0.846  -5.643   1.201  0.00  0.00     0.037 C 
HETATM   29  C   UNK N   1      -0.061  -6.700   0.575  0.00  0.00     0.272 C 
HETATM   30  N   UNK N   1      -1.442  -6.219   0.521  0.00  0.00     0.084 N 
HETATM   31  C   UNK N   1      -1.528  -5.013  -0.306  0.00  0.00     0.272 C 
HETATM   32  C   UNK N   1      -2.208  -7.245  -0.161  0.00  0.00     0.309 C 
HETATM   33  C   UNK N   1      -0.663  -3.893   0.276  0.00  0.00     0.037 C 
ENDBRANCH  26  27
ENDBRANCH  25  26
ENDBRANCH   8  25
TORSDOF 6
