MODEL 1
REMARK VINA RESULT:      -8.1      0.000      0.000
REMARK  5 active torsions:
REMARK  status: ('A' for Active; 'I' for Inactive)
REMARK    1  A    between atoms: C_1  and  O_5 
REMARK    2  A    between atoms: C_6  and  C_1 
REMARK       I    between atoms: C_16  and  N_3 
REMARK    3  A    between atoms: N_9  and  C_7 
REMARK    4  A    between atoms: C_16  and  C_8 
REMARK    5  A    between atoms: C_23  and  N_9 
ROOT
HETATM    1  C   UNK N   1      35.039  12.389  13.914  0.00  0.00     0.090 A 
HETATM    2  C   UNK N   1      36.021  13.272  13.350  0.00  0.00     0.062 A 
HETATM    3  C   UNK N   1      34.869  12.347  15.322  0.00  0.00     0.182 A 
HETATM    4  F   UNK N   1      33.968  11.510  15.891  0.00  0.00    -0.200 F 
HETATM    5  C   UNK N   1      35.636  13.159  16.158  0.00  0.00     0.157 A 
HETATM    6  F   UNK N   1      35.453  13.125  17.500  0.00  0.00    -0.203 F 
HETATM    7  C   UNK N   1      36.594  14.001  15.622  0.00  0.00     0.046 A 
HETATM    8  C   UNK N   1      36.777  14.054  14.249  0.00  0.00     0.022 A 
ENDROOT
BRANCH   2   9
HETATM    9  C   UNK N   1      36.289  13.594  11.883  0.00  0.00     0.256 C 
HETATM   10  N   UNK N   1      35.455  14.246  11.010  0.00  0.00    -0.342 N 
HETATM   11  C   UNK N   1      35.965  15.071   9.976  0.00  0.00     0.167 C 
HETATM   12  C   UNK N   1      34.169  14.827  11.121  0.00  0.00     0.167 C 
HETATM   13  C   UNK N   1      34.699  15.941  10.190  0.00  0.00     0.110 C 
HETATM   14  O   UNK N   1      37.414  13.333  11.475  0.00  0.00    -0.267 OA
BRANCH  13  15
HETATM   15  O   UNK N   1      34.988  17.064  10.968  0.00  0.00    -0.384 OA
HETATM   16  H   UNK N   1      34.704  17.685  11.656  0.00  0.00     0.210 HD
ENDBRANCH  13  15
BRANCH  13  17
HETATM   17  C   UNK N   1      33.997  16.340   8.896  0.00  0.00     0.114 C 
HETATM   18  C   UNK N   1      34.448  17.676   8.315  0.00  0.00     0.028 C 
HETATM   19  C   UNK N   1      33.916  17.769   6.884  0.00  0.00     0.004 C 
HETATM   20  C   UNK N   1      32.412  17.484   6.828  0.00  0.00     0.019 C 
HETATM   21  C   UNK N   1      32.076  16.192   7.578  0.00  0.00     0.114 C 
HETATM   22  N   UNK N   1      32.541  16.281   8.961  0.00  0.00    -0.414 N 
HETATM   23  H   UNK N   1      31.965  16.299   9.801  0.00  0.00     0.153 HD
ENDBRANCH  13  17
ENDBRANCH   2   9
BRANCH   1  24
HETATM   24  N   UNK N   1      34.254  11.545  13.091  0.00  0.00    -0.350 N 
HETATM   25  H   UNK N   1      33.423  11.933  12.733  0.00  0.00     0.166 HD
BRANCH  24  26
HETATM   26  C   UNK N   1      34.531  10.196  12.723  0.00  0.00     0.071 A 
HETATM   27  C   UNK N   1      33.924   9.669  11.573  0.00  0.00     0.144 A 
HETATM   28  C   UNK N   1      34.135   8.335  11.213  0.00  0.00     0.062 A 
HETATM   29  F   UNK N   1      33.122  10.447  10.806  0.00  0.00    -0.204 F 
HETATM   30  C   UNK N   1      34.945   7.516  12.002  0.00  0.00     0.009 A 
HETATM   31  C   UNK N   1      35.543   8.028  13.157  0.00  0.00     0.020 A 
HETATM   32  I   UNK N   1      35.252   5.509  11.453  0.00  0.00    -0.044 I 
HETATM   33  C   UNK N   1      35.331   9.362  13.520  0.00  0.00     0.034 A 
ENDBRANCH  24  26
ENDBRANCH   1  24
TORSDOF 5
ENDMDL
MODEL 2
REMARK VINA RESULT:      -7.8      4.582      8.556
REMARK  5 active torsions:
REMARK  status: ('A' for Active; 'I' for Inactive)
REMARK    1  A    between atoms: C_1  and  O_5 
REMARK    2  A    between atoms: C_6  and  C_1 
REMARK       I    between atoms: C_16  and  N_3 
REMARK    3  A    between atoms: N_9  and  C_7 
REMARK    4  A    between atoms: C_16  and  C_8 
REMARK    5  A    between atoms: C_23  and  N_9 
ROOT
HETATM    1  C   UNK N   1      35.127  15.282   7.084  0.00  0.00     0.090 A 
HETATM    2  C   UNK N   1      35.643  14.800   8.334  0.00  0.00     0.062 A 
HETATM    3  C   UNK N   1      35.290  14.493   5.915  0.00  0.00     0.182 A 
HETATM    4  F   UNK N   1      34.835  14.925   4.713  0.00  0.00    -0.200 F 
HETATM    5  C   UNK N   1      35.934  13.257   5.972  0.00  0.00     0.157 A 
HETATM    6  F   UNK N   1      36.067  12.504   4.854  0.00  0.00    -0.203 F 
HETATM    7  C   UNK N   1      36.447  12.795   7.170  0.00  0.00     0.046 A 
HETATM    8  C   UNK N   1      36.301  13.552   8.323  0.00  0.00     0.022 A 
ENDROOT
BRANCH   2   9
HETATM    9  C   UNK N   1      35.473  15.391   9.731  0.00  0.00     0.256 C 
HETATM   10  N   UNK N   1      35.320  14.704  10.909  0.00  0.00    -0.342 N 
HETATM   11  C   UNK N   1      35.830  15.210  12.131  0.00  0.00     0.167 C 
HETATM   12  C   UNK N   1      35.282  13.332  11.255  0.00  0.00     0.167 C 
HETATM   13  C   UNK N   1      36.076  13.729  12.520  0.00  0.00     0.110 C 
HETATM   14  O   UNK N   1      35.593  16.606   9.816  0.00  0.00    -0.267 OA
BRANCH  13  15
HETATM   15  O   UNK N   1      37.413  13.376  12.329  0.00  0.00    -0.384 OA
HETATM   16  H   UNK N   1      38.315  13.653  12.103  0.00  0.00     0.210 HD
ENDBRANCH  13  15
BRANCH  13  17
HETATM   17  C   UNK N   1      35.614  13.374  13.930  0.00  0.00     0.114 C 
HETATM   18  C   UNK N   1      36.621  13.698  15.028  0.00  0.00     0.028 C 
HETATM   19  C   UNK N   1      35.897  13.605  16.372  0.00  0.00     0.004 C 
HETATM   20  C   UNK N   1      35.153  12.273  16.513  0.00  0.00     0.019 C 
HETATM   21  C   UNK N   1      34.294  11.998  15.276  0.00  0.00     0.114 C 
HETATM   22  N   UNK N   1      35.128  12.007  14.076  0.00  0.00    -0.414 N 
HETATM   23  H   UNK N   1      35.330  11.217  13.464  0.00  0.00     0.153 HD
ENDBRANCH  13  17
ENDBRANCH   2   9
BRANCH   1  24
HETATM   24  N   UNK N   1      34.478  16.537   6.994  0.00  0.00    -0.350 N 
HETATM   25  H   UNK N   1      35.015  17.282   6.638  0.00  0.00     0.166 HD
BRANCH  24  26
HETATM   26  C   UNK N   1      33.137  16.845   7.361  0.00  0.00     0.071 A 
HETATM   27  C   UNK N   1      32.882  18.026   8.076  0.00  0.00     0.144 A 
HETATM   28  C   UNK N   1      31.585  18.330   8.495  0.00  0.00     0.062 A 
HETATM   29  F   UNK N   1      33.896  18.875   8.374  0.00  0.00    -0.204 F 
HETATM   30  C   UNK N   1      30.533  17.457   8.211  0.00  0.00     0.009 A 
HETATM   31  C   UNK N   1      30.778  16.273   7.511  0.00  0.00     0.020 A 
HETATM   32  I   UNK N   1      28.584  17.925   8.850  0.00  0.00    -0.044 I 
HETATM   33  C   UNK N   1      32.076  15.964   7.093  0.00  0.00     0.034 A 
ENDBRANCH  24  26
ENDBRANCH   1  24
TORSDOF 5
ENDMDL
MODEL 3
REMARK VINA RESULT:      -7.8     19.461     22.517
REMARK  5 active torsions:
REMARK  status: ('A' for Active; 'I' for Inactive)
REMARK    1  A    between atoms: C_1  and  O_5 
REMARK    2  A    between atoms: C_6  and  C_1 
REMARK       I    between atoms: C_16  and  N_3 
REMARK    3  A    between atoms: N_9  and  C_7 
REMARK    4  A    between atoms: C_16  and  C_8 
REMARK    5  A    between atoms: C_23  and  N_9 
ROOT
HETATM    1  C   UNK N   1      25.690  25.928  -4.860  0.00  0.00     0.090 A 
HETATM    2  C   UNK N   1      26.608  25.624  -3.798  0.00  0.00     0.062 A 
HETATM    3  C   UNK N   1      25.305  27.275  -5.082  0.00  0.00     0.182 A 
HETATM    4  F   UNK N   1      24.424  27.597  -6.061  0.00  0.00    -0.200 F 
HETATM    5  C   UNK N   1      25.814  28.303  -4.288  0.00  0.00     0.157 A 
HETATM    6  F   UNK N   1      25.454  29.588  -4.520  0.00  0.00    -0.203 F 
HETATM    7  C   UNK N   1      26.686  28.016  -3.253  0.00  0.00     0.046 A 
HETATM    8  C   UNK N   1      27.072  26.705  -3.019  0.00  0.00     0.022 A 
ENDROOT
BRANCH   2   9
HETATM    9  C   UNK N   1      27.270  24.293  -3.456  0.00  0.00     0.256 C 
HETATM   10  N   UNK N   1      28.508  23.855  -3.855  0.00  0.00    -0.342 N 
HETATM   11  C   UNK N   1      29.299  23.020  -3.026  0.00  0.00     0.167 C 
HETATM   12  C   UNK N   1      29.548  24.413  -4.638  0.00  0.00     0.167 C 
HETATM   13  C   UNK N   1      30.522  23.752  -3.636  0.00  0.00     0.110 C 
HETATM   14  O   UNK N   1      26.671  23.588  -2.653  0.00  0.00    -0.267 OA
BRANCH  13  15
HETATM   15  O   UNK N   1      30.998  24.739  -2.771  0.00  0.00    -0.384 OA
HETATM   16  H   UNK N   1      31.033  25.100  -1.871  0.00  0.00     0.210 HD
ENDBRANCH  13  15
BRANCH  13  17
HETATM   17  C   UNK N   1      31.649  22.820  -4.071  0.00  0.00     0.114 C 
HETATM   18  C   UNK N   1      32.161  21.890  -2.978  0.00  0.00     0.028 C 
HETATM   19  C   UNK N   1      33.024  20.815  -3.641  0.00  0.00     0.004 C 
HETATM   20  C   UNK N   1      34.089  21.438  -4.550  0.00  0.00     0.019 C 
HETATM   21  C   UNK N   1      33.462  22.464  -5.498  0.00  0.00     0.114 C 
HETATM   22  N   UNK N   1      32.763  23.492  -4.729  0.00  0.00    -0.414 N 
HETATM   23  H   UNK N   1      33.006  24.480  -4.664  0.00  0.00     0.153 HD
ENDBRANCH  13  17
ENDBRANCH   2   9
BRANCH   1  24
HETATM   24  N   UNK N   1      25.148  24.904  -5.675  0.00  0.00    -0.350 N 
HETATM   25  H   UNK N   1      24.210  24.659  -5.503  0.00  0.00     0.166 HD
BRANCH  24  26
HETATM   26  C   UNK N   1      25.808  24.187  -6.715  0.00  0.00     0.071 A 
HETATM   27  C   UNK N   1      25.987  24.809  -7.960  0.00  0.00     0.144 A 
HETATM   28  C   UNK N   1      26.584  24.114  -9.015  0.00  0.00     0.062 A 
HETATM   29  F   UNK N   1      25.574  26.085  -8.152  0.00  0.00    -0.204 F 
HETATM   30  C   UNK N   1      26.999  22.793  -8.839  0.00  0.00     0.009 A 
HETATM   31  C   UNK N   1      26.813  22.160  -7.607  0.00  0.00     0.020 A 
HETATM   32  I   UNK N   1      27.893  21.756 -10.436  0.00  0.00    -0.044 I 
HETATM   33  C   UNK N   1      26.213  22.852  -6.551  0.00  0.00     0.034 A 
ENDBRANCH  24  26
ENDBRANCH   1  24
TORSDOF 5
ENDMDL
MODEL 4
REMARK VINA RESULT:      -7.6      5.118      8.952
REMARK  5 active torsions:
REMARK  status: ('A' for Active; 'I' for Inactive)
REMARK    1  A    between atoms: C_1  and  O_5 
REMARK    2  A    between atoms: C_6  and  C_1 
REMARK       I    between atoms: C_16  and  N_3 
REMARK    3  A    between atoms: N_9  and  C_7 
REMARK    4  A    between atoms: C_16  and  C_8 
REMARK    5  A    between atoms: C_23  and  N_9 
ROOT
HETATM    1  C   UNK N   1      31.743  17.361   6.198  0.00  0.00     0.090 A 
HETATM    2  C   UNK N   1      31.918  17.249   7.618  0.00  0.00     0.062 A 
HETATM    3  C   UNK N   1      30.431  17.423   5.662  0.00  0.00     0.182 A 
HETATM    4  F   UNK N   1      30.226  17.508   4.325  0.00  0.00    -0.200 F 
HETATM    5  C   UNK N   1      29.315  17.388   6.500  0.00  0.00     0.157 A 
HETATM    6  F   UNK N   1      28.067  17.467   5.980  0.00  0.00    -0.203 F 
HETATM    7  C   UNK N   1      29.477  17.264   7.868  0.00  0.00     0.046 A 
HETATM    8  C   UNK N   1      30.751  17.198   8.410  0.00  0.00     0.022 A 
ENDROOT
BRANCH   2   9
HETATM    9  C   UNK N   1      33.208  17.304   8.431  0.00  0.00     0.256 C 
HETATM   10  N   UNK N   1      33.701  16.339   9.273  0.00  0.00    -0.342 N 
HETATM   11  C   UNK N   1      35.096  16.140   9.434  0.00  0.00     0.167 C 
HETATM   12  C   UNK N   1      33.263  15.049   9.660  0.00  0.00     0.167 C 
HETATM   13  C   UNK N   1      34.753  14.639   9.620  0.00  0.00     0.110 C 
HETATM   14  O   UNK N   1      33.930  18.272   8.225  0.00  0.00    -0.267 OA
BRANCH  13  15
HETATM   15  O   UNK N   1      34.981  13.923   8.443  0.00  0.00    -0.384 OA
HETATM   16  H   UNK N   1      35.508  13.261   7.970  0.00  0.00     0.210 HD
ENDBRANCH  13  15
BRANCH  13  17
HETATM   17  C   UNK N   1      35.462  13.984  10.802  0.00  0.00     0.114 C 
HETATM   18  C   UNK N   1      36.606  13.053  10.419  0.00  0.00     0.028 C 
HETATM   19  C   UNK N   1      37.411  12.752  11.685  0.00  0.00     0.004 C 
HETATM   20  C   UNK N   1      36.503  12.272  12.821  0.00  0.00     0.019 C 
HETATM   21  C   UNK N   1      35.312  13.217  13.001  0.00  0.00     0.114 C 
HETATM   22  N   UNK N   1      34.568  13.327  11.748  0.00  0.00    -0.414 N 
HETATM   23  H   UNK N   1      33.616  13.008  11.570  0.00  0.00     0.153 HD
ENDBRANCH  13  17
ENDBRANCH   2   9
BRANCH   1  24
HETATM   24  N   UNK N   1      32.856  17.388   5.322  0.00  0.00    -0.350 N 
HETATM   25  H   UNK N   1      33.241  18.273   5.133  0.00  0.00     0.166 HD
BRANCH  24  26
HETATM   26  C   UNK N   1      33.480  16.278   4.683  0.00  0.00     0.071 A 
HETATM   27  C   UNK N   1      33.265  16.075   3.312  0.00  0.00     0.144 A 
HETATM   28  C   UNK N   1      33.822  14.967   2.667  0.00  0.00     0.062 A 
HETATM   29  F   UNK N   1      32.508  16.948   2.603  0.00  0.00    -0.204 F 
HETATM   30  C   UNK N   1      34.590  14.050   3.387  0.00  0.00     0.009 A 
HETATM   31  C   UNK N   1      34.799  14.236   4.756  0.00  0.00     0.020 A 
HETATM   32  I   UNK N   1      35.420  12.385   2.406  0.00  0.00    -0.044 I 
HETATM   33  C   UNK N   1      34.240  15.342   5.404  0.00  0.00     0.034 A 
ENDBRANCH  24  26
ENDBRANCH   1  24
TORSDOF 5
ENDMDL
MODEL 5
REMARK VINA RESULT:      -7.6     13.044     17.160
REMARK  5 active torsions:
REMARK  status: ('A' for Active; 'I' for Inactive)
REMARK    1  A    between atoms: C_1  and  O_5 
REMARK    2  A    between atoms: C_6  and  C_1 
REMARK       I    between atoms: C_16  and  N_3 
REMARK    3  A    between atoms: N_9  and  C_7 
REMARK    4  A    between atoms: C_16  and  C_8 
REMARK    5  A    between atoms: C_23  and  N_9 
ROOT
HETATM    1  C   UNK N   1      20.097  16.270   3.254  0.00  0.00     0.090 A 
HETATM    2  C   UNK N   1      19.742  15.146   4.075  0.00  0.00     0.062 A 
HETATM    3  C   UNK N   1      20.056  16.139   1.842  0.00  0.00     0.182 A 
HETATM    4  F   UNK N   1      20.405  17.172   1.036  0.00  0.00    -0.200 F 
HETATM    5  C   UNK N   1      19.666  14.939   1.247  0.00  0.00     0.157 A 
HETATM    6  F   UNK N   1      19.611  14.831  -0.103  0.00  0.00    -0.203 F 
HETATM    7  C   UNK N   1      19.337  13.848   2.032  0.00  0.00     0.046 A 
HETATM    8  C   UNK N   1      19.375  13.955   3.414  0.00  0.00     0.022 A 
ENDROOT
BRANCH   2   9
HETATM    9  C   UNK N   1      19.576  15.082   5.590  0.00  0.00     0.256 C 
HETATM   10  N   UNK N   1      20.300  14.321   6.473  0.00  0.00    -0.342 N 
HETATM   11  C   UNK N   1      20.573  14.774   7.789  0.00  0.00     0.167 C 
HETATM   12  C   UNK N   1      21.378  13.413   6.340  0.00  0.00     0.167 C 
HETATM   13  C   UNK N   1      21.919  14.015   7.657  0.00  0.00     0.110 C 
HETATM   14  O   UNK N   1      18.780  15.876   6.076  0.00  0.00    -0.267 OA
BRANCH  13  15
HETATM   15  O   UNK N   1      22.960  14.891   7.344  0.00  0.00    -0.384 OA
HETATM   16  H   UNK N   1      23.567  15.245   6.675  0.00  0.00     0.210 HD
ENDBRANCH  13  15
BRANCH  13  17
HETATM   17  C   UNK N   1      22.271  13.162   8.873  0.00  0.00     0.114 C 
HETATM   18  C   UNK N   1      21.336  13.339  10.064  0.00  0.00     0.028 C 
HETATM   19  C   UNK N   1      21.608  12.201  11.048  0.00  0.00     0.004 C 
HETATM   20  C   UNK N   1      23.101  12.091  11.374  0.00  0.00     0.019 C 
HETATM   21  C   UNK N   1      23.938  12.074  10.091  0.00  0.00     0.114 C 
HETATM   22  N   UNK N   1      23.661  13.270   9.299  0.00  0.00    -0.414 N 
HETATM   23  H   UNK N   1      24.309  14.028   9.087  0.00  0.00     0.153 HD
ENDBRANCH  13  17
ENDBRANCH   2   9
BRANCH   1  24
HETATM   24  N   UNK N   1      20.507  17.497   3.830  0.00  0.00    -0.350 N 
HETATM   25  H   UNK N   1      19.795  18.065   4.202  0.00  0.00     0.166 HD
BRANCH  24  26
HETATM   26  C   UNK N   1      21.836  18.003   3.931  0.00  0.00     0.071 A 
HETATM   27  C   UNK N   1      22.126  19.262   3.383  0.00  0.00     0.144 A 
HETATM   28  C   UNK N   1      23.430  19.763   3.421  0.00  0.00     0.062 A 
HETATM   29  F   UNK N   1      21.145  19.998   2.806  0.00  0.00    -0.204 F 
HETATM   30  C   UNK N   1      24.454  19.010   3.997  0.00  0.00     0.009 A 
HETATM   31  C   UNK N   1      24.178  17.749   4.533  0.00  0.00     0.020 A 
HETATM   32  I   UNK N   1      26.413  19.774   4.044  0.00  0.00    -0.044 I 
HETATM   33  C   UNK N   1      22.875  17.244   4.494  0.00  0.00     0.034 A 
ENDBRANCH  24  26
ENDBRANCH   1  24
TORSDOF 5
ENDMDL
MODEL 6
REMARK VINA RESULT:      -7.6      3.055      4.635
REMARK  5 active torsions:
REMARK  status: ('A' for Active; 'I' for Inactive)
REMARK    1  A    between atoms: C_1  and  O_5 
REMARK    2  A    between atoms: C_6  and  C_1 
REMARK       I    between atoms: C_16  and  N_3 
REMARK    3  A    between atoms: N_9  and  C_7 
REMARK    4  A    between atoms: C_16  and  C_8 
REMARK    5  A    between atoms: C_23  and  N_9 
ROOT
HETATM    1  C   UNK N   1      36.333  12.685  11.039  0.00  0.00     0.090 A 
HETATM    2  C   UNK N   1      36.695  13.696  10.086  0.00  0.00     0.062 A 
HETATM    3  C   UNK N   1      37.107  11.499  11.122  0.00  0.00     0.182 A 
HETATM    4  F   UNK N   1      36.782  10.513  11.994  0.00  0.00    -0.200 F 
HETATM    5  C   UNK N   1      38.217  11.311  10.297  0.00  0.00     0.157 A 
HETATM    6  F   UNK N   1      38.961  10.184  10.398  0.00  0.00    -0.203 F 
HETATM    7  C   UNK N   1      38.562  12.275   9.367  0.00  0.00     0.046 A 
HETATM    8  C   UNK N   1      37.816  13.439   9.268  0.00  0.00     0.022 A 
ENDROOT
BRANCH   2   9
HETATM    9  C   UNK N   1      36.113  15.095   9.906  0.00  0.00     0.256 C 
HETATM   10  N   UNK N   1      34.971  15.437   9.226  0.00  0.00    -0.342 N 
HETATM   11  C   UNK N   1      34.163  16.526   9.640  0.00  0.00     0.167 C 
HETATM   12  C   UNK N   1      33.986  14.706   8.519  0.00  0.00     0.167 C 
HETATM   13  C   UNK N   1      32.961  15.692   9.125  0.00  0.00     0.110 C 
HETATM   14  O   UNK N   1      36.672  15.991  10.526  0.00  0.00    -0.267 OA
BRANCH  13  15
HETATM   15  O   UNK N   1      32.306  15.053  10.179  0.00  0.00    -0.384 OA
HETATM   16  H   UNK N   1      31.519  14.986  10.742  0.00  0.00     0.210 HD
ENDBRANCH  13  15
BRANCH  13  17
HETATM   17  C   UNK N   1      31.976  16.487   8.273  0.00  0.00     0.114 C 
HETATM   18  C   UNK N   1      30.685  16.871   8.987  0.00  0.00     0.028 C 
HETATM   19  C   UNK N   1      29.973  17.925   8.137  0.00  0.00     0.004 C 
HETATM   20  C   UNK N   1      29.827  17.462   6.683  0.00  0.00     0.019 C 
HETATM   21  C   UNK N   1      31.166  16.961   6.135  0.00  0.00     0.114 C 
HETATM   22  N   UNK N   1      31.679  15.883   6.979  0.00  0.00    -0.414 N 
HETATM   23  H   UNK N   1      31.804  14.906   6.716  0.00  0.00     0.153 HD
ENDBRANCH  13  17
ENDBRANCH   2   9
BRANCH   1  24
HETATM   24  N   UNK N   1      35.205  12.842  11.880  0.00  0.00    -0.350 N 
HETATM   25  H   UNK N   1      34.346  13.020  11.433  0.00  0.00     0.166 HD
BRANCH  24  26
HETATM   26  C   UNK N   1      35.172  12.773  13.303  0.00  0.00     0.071 A 
HETATM   27  C   UNK N   1      35.929  13.692  14.045  0.00  0.00     0.144 A 
HETATM   28  C   UNK N   1      35.958  13.618  15.440  0.00  0.00     0.062 A 
HETATM   29  F   UNK N   1      36.647  14.653  13.414  0.00  0.00    -0.204 F 
HETATM   30  C   UNK N   1      35.239  12.623  16.105  0.00  0.00     0.009 A 
HETATM   31  C   UNK N   1      34.491  11.695  15.374  0.00  0.00     0.020 A 
HETATM   32  I   UNK N   1      35.292  12.520  18.205  0.00  0.00    -0.044 I 
HETATM   33  C   UNK N   1      34.464  11.765  13.978  0.00  0.00     0.034 A 
ENDBRANCH  24  26
ENDBRANCH   1  24
TORSDOF 5
ENDMDL
MODEL 7
REMARK VINA RESULT:      -7.3      3.989      7.529
REMARK  5 active torsions:
REMARK  status: ('A' for Active; 'I' for Inactive)
REMARK    1  A    between atoms: C_1  and  O_5 
REMARK    2  A    between atoms: C_6  and  C_1 
REMARK       I    between atoms: C_16  and  N_3 
REMARK    3  A    between atoms: N_9  and  C_7 
REMARK    4  A    between atoms: C_16  and  C_8 
REMARK    5  A    between atoms: C_23  and  N_9 
ROOT
HETATM    1  C   UNK N   1      34.841  15.407   7.904  0.00  0.00     0.090 A 
HETATM    2  C   UNK N   1      34.727  16.441   8.894  0.00  0.00     0.062 A 
HETATM    3  C   UNK N   1      34.411  15.665   6.577  0.00  0.00     0.182 A 
HETATM    4  F   UNK N   1      34.484  14.706   5.621  0.00  0.00    -0.200 F 
HETATM    5  C   UNK N   1      33.889  16.910   6.225  0.00  0.00     0.157 A 
HETATM    6  F   UNK N   1      33.498  17.151   4.950  0.00  0.00    -0.203 F 
HETATM    7  C   UNK N   1      33.761  17.905   7.177  0.00  0.00     0.046 A 
HETATM    8  C   UNK N   1      34.174  17.672   8.480  0.00  0.00     0.022 A 
ENDROOT
BRANCH   2   9
HETATM    9  C   UNK N   1      35.241  16.453  10.330  0.00  0.00     0.256 C 
HETATM   10  N   UNK N   1      34.993  15.523  11.308  0.00  0.00    -0.342 N 
HETATM   11  C   UNK N   1      35.959  15.219  12.301  0.00  0.00     0.167 C 
HETATM   12  C   UNK N   1      34.260  14.313  11.357  0.00  0.00     0.167 C 
HETATM   13  C   UNK N   1      35.398  13.774  12.254  0.00  0.00     0.110 C 
HETATM   14  O   UNK N   1      36.047  17.334  10.603  0.00  0.00    -0.267 OA
BRANCH  13  15
HETATM   15  O   UNK N   1      36.212  12.945  11.480  0.00  0.00    -0.384 OA
HETATM   16  H   UNK N   1      36.294  12.343  10.723  0.00  0.00     0.210 HD
ENDBRANCH  13  15
BRANCH  13  17
HETATM   17  C   UNK N   1      35.147  13.162  13.629  0.00  0.00     0.114 C 
HETATM   18  C   UNK N   1      36.322  13.267  14.594  0.00  0.00     0.028 C 
HETATM   19  C   UNK N   1      35.811  12.926  15.995  0.00  0.00     0.004 C 
HETATM   20  C   UNK N   1      35.051  11.595  16.002  0.00  0.00     0.019 C 
HETATM   21  C   UNK N   1      34.002  11.564  14.887  0.00  0.00     0.114 C 
HETATM   22  N   UNK N   1      34.641  11.795  13.593  0.00  0.00    -0.414 N 
HETATM   23  H   UNK N   1      34.718  11.133  12.821  0.00  0.00     0.153 HD
ENDBRANCH  13  17
ENDBRANCH   2   9
BRANCH   1  24
HETATM   24  N   UNK N   1      35.357  14.130   8.235  0.00  0.00    -0.350 N 
HETATM   25  H   UNK N   1      34.720  13.490   8.626  0.00  0.00     0.166 HD
BRANCH  24  26
HETATM   26  C   UNK N   1      36.694  13.668   8.068  0.00  0.00     0.071 A 
HETATM   27  C   UNK N   1      36.955  12.679   7.107  0.00  0.00     0.144 A 
HETATM   28  C   UNK N   1      38.247  12.169   6.954  0.00  0.00     0.062 A 
HETATM   29  F   UNK N   1      35.954  12.205   6.325  0.00  0.00    -0.204 F 
HETATM   30  C   UNK N   1      39.285  12.634   7.762  0.00  0.00     0.009 A 
HETATM   31  C   UNK N   1      39.033  13.609   8.731  0.00  0.00     0.020 A 
HETATM   32  I   UNK N   1      41.224  11.855   7.525  0.00  0.00    -0.044 I 
HETATM   33  C   UNK N   1      37.740  14.119   8.889  0.00  0.00     0.034 A 
ENDBRANCH  24  26
ENDBRANCH   1  24
TORSDOF 5
ENDMDL
MODEL 8
REMARK VINA RESULT:      -7.3      6.817     11.007
REMARK  5 active torsions:
REMARK  status: ('A' for Active; 'I' for Inactive)
REMARK    1  A    between atoms: C_1  and  O_5 
REMARK    2  A    between atoms: C_6  and  C_1 
REMARK       I    between atoms: C_16  and  N_3 
REMARK    3  A    between atoms: N_9  and  C_7 
REMARK    4  A    between atoms: C_16  and  C_8 
REMARK    5  A    between atoms: C_23  and  N_9 
ROOT
HETATM    1  C   UNK N   1      28.366  18.275   5.293  0.00  0.00     0.090 A 
HETATM    2  C   UNK N   1      29.092  17.695   6.387  0.00  0.00     0.062 A 
HETATM    3  C   UNK N   1      27.571  19.428   5.520  0.00  0.00     0.182 A 
HETATM    4  F   UNK N   1      26.854  19.990   4.516  0.00  0.00    -0.200 F 
HETATM    5  C   UNK N   1      27.496  20.006   6.788  0.00  0.00     0.157 A 
HETATM    6  F   UNK N   1      26.749  21.118   6.989  0.00  0.00    -0.203 F 
HETATM    7  C   UNK N   1      28.181  19.443   7.850  0.00  0.00     0.046 A 
HETATM    8  C   UNK N   1      28.961  18.314   7.649  0.00  0.00     0.022 A 
ENDROOT
BRANCH   2   9
HETATM    9  C   UNK N   1      30.108  16.557   6.366  0.00  0.00     0.256 C 
HETATM   10  N   UNK N   1      31.289  16.486   7.060  0.00  0.00    -0.342 N 
HETATM   11  C   UNK N   1      31.801  15.248   7.524  0.00  0.00     0.167 C 
HETATM   12  C   UNK N   1      31.947  17.338   7.981  0.00  0.00     0.167 C 
HETATM   13  C   UNK N   1      32.357  16.050   8.730  0.00  0.00     0.110 C 
HETATM   14  O   UNK N   1      29.778  15.556   5.742  0.00  0.00    -0.267 OA
BRANCH  13  15
HETATM   15  O   UNK N   1      31.533  15.910   9.848  0.00  0.00    -0.384 OA
HETATM   16  H   UNK N   1      31.428  15.601  10.761  0.00  0.00     0.210 HD
ENDBRANCH  13  15
BRANCH  13  17
HETATM   17  C   UNK N   1      33.806  15.721   9.076  0.00  0.00     0.114 C 
HETATM   18  C   UNK N   1      34.224  14.289   8.766  0.00  0.00     0.028 C 
HETATM   19  C   UNK N   1      35.750  14.216   8.847  0.00  0.00     0.004 C 
HETATM   20  C   UNK N   1      36.266  14.796  10.168  0.00  0.00     0.019 C 
HETATM   21  C   UNK N   1      35.651  16.174  10.433  0.00  0.00     0.114 C 
HETATM   22  N   UNK N   1      34.193  16.079  10.436  0.00  0.00    -0.414 N 
HETATM   23  H   UNK N   1      33.571  16.231  11.230  0.00  0.00     0.153 HD
ENDBRANCH  13  17
ENDBRANCH   2   9
BRANCH   1  24
HETATM   24  N   UNK N   1      28.413  17.704   3.998  0.00  0.00    -0.350 N 
HETATM   25  H   UNK N   1      29.163  17.982   3.425  0.00  0.00     0.166 HD
BRANCH  24  26
HETATM   26  C   UNK N   1      27.497  16.773   3.430  0.00  0.00     0.071 A 
HETATM   27  C   UNK N   1      27.995  15.724   2.642  0.00  0.00     0.144 A 
HETATM   28  C   UNK N   1      27.118  14.825   2.030  0.00  0.00     0.062 A 
HETATM   29  F   UNK N   1      29.331  15.581   2.461  0.00  0.00    -0.204 F 
HETATM   30  C   UNK N   1      25.739  14.969   2.191  0.00  0.00     0.009 A 
HETATM   31  C   UNK N   1      25.232  16.017   2.964  0.00  0.00     0.020 A 
HETATM   32  I   UNK N   1      24.430  13.610   1.262  0.00  0.00    -0.044 I 
HETATM   33  C   UNK N   1      26.107  16.921   3.575  0.00  0.00     0.034 A 
ENDBRANCH  24  26
ENDBRANCH   1  24
TORSDOF 5
ENDMDL
MODEL 9
REMARK VINA RESULT:      -7.2      3.813      7.319
REMARK  5 active torsions:
REMARK  status: ('A' for Active; 'I' for Inactive)
REMARK    1  A    between atoms: C_1  and  O_5 
REMARK    2  A    between atoms: C_6  and  C_1 
REMARK       I    between atoms: C_16  and  N_3 
REMARK    3  A    between atoms: N_9  and  C_7 
REMARK    4  A    between atoms: C_16  and  C_8 
REMARK    5  A    between atoms: C_23  and  N_9 
ROOT
HETATM    1  C   UNK N   1      34.936  15.764   7.701  0.00  0.00     0.090 A 
HETATM    2  C   UNK N   1      34.587  16.603   8.812  0.00  0.00     0.062 A 
HETATM    3  C   UNK N   1      34.420  16.064   6.414  0.00  0.00     0.182 A 
HETATM    4  F   UNK N   1      34.710  15.281   5.346  0.00  0.00    -0.200 F 
HETATM    5  C   UNK N   1      33.588  17.167   6.217  0.00  0.00     0.157 A 
HETATM    6  F   UNK N   1      33.116  17.455   4.981  0.00  0.00    -0.203 F 
HETATM    7  C   UNK N   1      33.236  17.971   7.286  0.00  0.00     0.046 A 
HETATM    8  C   UNK N   1      33.728  17.692   8.552  0.00  0.00     0.022 A 
ENDROOT
BRANCH   2   9
HETATM    9  C   UNK N   1      35.119  16.569  10.242  0.00  0.00     0.256 C 
HETATM   10  N   UNK N   1      34.938  15.576  11.171  0.00  0.00    -0.342 N 
HETATM   11  C   UNK N   1      35.933  15.277  12.136  0.00  0.00     0.167 C 
HETATM   12  C   UNK N   1      34.278  14.323  11.162  0.00  0.00     0.167 C 
HETATM   13  C   UNK N   1      35.457  13.806  12.017  0.00  0.00     0.110 C 
HETATM   14  O   UNK N   1      35.874  17.481  10.554  0.00  0.00    -0.267 OA
BRANCH  13  15
HETATM   15  O   UNK N   1      36.308  13.069  11.191  0.00  0.00    -0.384 OA
HETATM   16  H   UNK N   1      36.406  12.422  10.476  0.00  0.00     0.210 HD
ENDBRANCH  13  15
BRANCH  13  17
HETATM   17  C   UNK N   1      35.261  13.108  13.359  0.00  0.00     0.114 C 
HETATM   18  C   UNK N   1      36.534  12.941  14.180  0.00  0.00     0.028 C 
HETATM   19  C   UNK N   1      36.129  12.546  15.601  0.00  0.00     0.004 C 
HETATM   20  C   UNK N   1      35.170  11.351  15.595  0.00  0.00     0.019 C 
HETATM   21  C   UNK N   1      34.015  11.586  14.617  0.00  0.00     0.114 C 
HETATM   22  N   UNK N   1      34.540  11.843  13.277  0.00  0.00    -0.414 N 
HETATM   23  H   UNK N   1      34.427  11.255  12.452  0.00  0.00     0.153 HD
ENDBRANCH  13  17
ENDBRANCH   2   9
BRANCH   1  24
HETATM   24  N   UNK N   1      35.768  14.631   7.872  0.00  0.00    -0.350 N 
HETATM   25  H   UNK N   1      36.678  14.803   8.205  0.00  0.00     0.166 HD
BRANCH  24  26
HETATM   26  C   UNK N   1      35.438  13.269   7.615  0.00  0.00     0.071 A 
HETATM   27  C   UNK N   1      36.322  12.486   6.857  0.00  0.00     0.144 A 
HETATM   28  C   UNK N   1      36.002  11.162   6.545  0.00  0.00     0.062 A 
HETATM   29  F   UNK N   1      37.490  13.012   6.413  0.00  0.00    -0.204 F 
HETATM   30  C   UNK N   1      34.796  10.611   6.980  0.00  0.00     0.009 A 
HETATM   31  C   UNK N   1      33.902  11.386   7.724  0.00  0.00     0.020 A 
HETATM   32  I   UNK N   1      34.324   8.618   6.501  0.00  0.00    -0.044 I 
HETATM   33  C   UNK N   1      34.218  12.712   8.035  0.00  0.00     0.034 A 
ENDBRANCH  24  26
ENDBRANCH   1  24
TORSDOF 5
ENDMDL
