REMARK  2 active torsions:
REMARK  status: ('A' for Active; 'I' for Inactive)
REMARK    1  A    between atoms: C_2  and  O_13 
REMARK    2  A    between atoms: C_16  and  C_21 
ROOT
HETATM    1  C   UNK N   1      10.502 -10.185  -0.015  0.00  0.00     0.033 C 
HETATM    2  C   UNK N   1      10.678 -11.540  -0.704  0.00  0.00     0.122 C 
HETATM    3  C   UNK N   1      11.835 -12.316  -0.079  0.00  0.00     0.066 C 
HETATM    4  C   UNK N   1      13.073 -11.475  -0.132  0.00  0.00    -0.072 C 
HETATM    5  C   UNK N   1      13.004 -10.067   0.459  0.00  0.00    -0.017 C 
HETATM    6  C   UNK N   1      11.781  -9.348  -0.140  0.00  0.00     0.016 C 
HETATM    7  C   UNK N   1      14.200 -11.986  -0.679  0.00  0.00    -0.023 C 
HETATM    8  C   UNK N   1      15.515 -11.230  -0.715  0.00  0.00     0.033 C 
HETATM    9  C   UNK N   1      15.534 -10.147   0.367  0.00  0.00    -0.001 C 
HETATM   10  C   UNK N   1      14.282  -9.265   0.121  0.00  0.00     0.003 C 
HETATM   11  C   UNK N   1      15.637  -7.081   0.328  0.00  0.00     0.015 C 
HETATM   12  C   UNK N   1      14.387  -7.882   0.798  0.00  0.00     0.007 C 
HETATM   13  C   UNK N   1      12.826 -10.184   1.973  0.00  0.00     0.020 C 
HETATM   14  C   UNK N   1      16.467  -8.120  -1.840  0.00  0.00     0.021 C 
HETATM   15  C   UNK N   1      18.160  -7.513  -0.170  0.00  0.00    -0.042 C 
HETATM   16  C   UNK N   1      16.732  -7.948  -0.345  0.00  0.00    -0.012 C 
HETATM   17  C   UNK N   1      16.803  -9.272   0.422  0.00  0.00     0.006 C 
HETATM   18  C   UNK N   1      18.187  -9.844   0.144  0.00  0.00     0.033 C 
HETATM   19  C   UNK N   1      18.961  -8.559   0.072  0.00  0.00    -0.018 C 
ENDROOT
BRANCH  15  20
HETATM   20  C   UNK N   1      18.650  -6.112  -0.226  0.00  0.00    -0.014 A 
HETATM   21  C   UNK N   1      17.761  -5.049  -0.436  0.00  0.00     0.099 A 
HETATM   22  N   UNK N   1      18.206  -3.764  -0.423  0.00  0.00    -0.374 N 
HETATM   23  C   UNK N   1      19.517  -3.469  -0.206  0.00  0.00     0.087 A 
ATOM     24  HN  UNK N   1      17.543  -3.005  -0.578  1.00  0.00     0.164 HD
HETATM   25  C   UNK N   1      20.440  -4.495   0.002  0.00  0.00     0.018 A 
HETATM   26  C   UNK N   1      20.002  -5.819  -0.005  0.00  0.00     0.014 A 
ENDBRANCH  15  20
BRANCH   2  27
HETATM   27  O   UNK N   1       9.503 -12.280  -0.579  0.00  0.00    -0.395 OA
HETATM   28  H   UNK N   1       8.649 -11.830  -0.491  0.00  0.00     0.210 HD
ENDBRANCH   2  27
TORSDOF 2
