REMARK  4 active torsions:
REMARK  status: ('A' for Active; 'I' for Inactive)
REMARK    1  A    between atoms: C_3  and  C_7 
REMARK    2  A    between atoms: C_6  and  S_9 
REMARK    3  A    between atoms: C_7  and  N_8 
REMARK    4  A    between atoms: S_9  and  N_12 
ROOT
HETATM    1  C   UNK N   1      -0.428   0.606   0.010  0.00  0.00     0.026 A 
HETATM    2  C   UNK N   1      -1.631  -0.106  -0.020  0.00  0.00     0.010 A 
HETATM    3  C   UNK N   1      -1.622  -1.489  -0.241  0.00  0.00    -0.041 A 
HETATM    4  C   UNK N   1      -0.407  -2.156  -0.427  0.00  0.00     0.010 A 
HETATM    5  C   UNK N   1       0.796  -1.443  -0.399  0.00  0.00     0.026 A 
HETATM    6  C   UNK N   1       0.785  -0.062  -0.183  0.00  0.00     0.079 A 
ENDROOT
BRANCH   6   7
HETATM    7  S   UNK N   1       2.316   0.859  -0.217  0.00  0.00     0.256 S 
HETATM    8  O   UNK N   1       2.403   1.952   0.859  0.00  0.00    -0.201 OA
HETATM    9  O   UNK N   1       2.479   1.663  -1.515  0.00  0.00    -0.201 OA
BRANCH   7  10
HETATM   10  N   UNK N   1       3.818  -0.054  -0.069  0.00  0.00    -0.324 N 
HETATM   11  H   UNK N   1       3.795  -1.070   0.016  0.00  0.00     0.169 HD
HETATM   12  H   UNK N   1       4.713   0.436  -0.069  0.00  0.00     0.169 HD
ENDBRANCH   7  10
ENDBRANCH   6   7
BRANCH   3  13
HETATM   13  C   UNK N   1      -2.902  -2.250  -0.317  0.00  0.00     0.150 C 
BRANCH  13  14
HETATM   14  N   UNK N   1      -3.627  -2.148   0.938  0.00  0.00    -0.426 N 
HETATM   15  H   UNK N   1      -3.820  -1.671   1.819  0.00  0.00     0.150 HD
HETATM   16  H   UNK N   1      -4.255  -2.952   0.938  0.00  0.00     0.150 HD
ENDBRANCH  13  14
ENDBRANCH   3  13
TORSDOF 4
