MODEL 1
REMARK VINA RESULT:      -5.4      0.000      0.000
REMARK  8 active torsions:
REMARK  status: ('A' for Active; 'I' for Inactive)
REMARK    1  A    between atoms: C_1  and  O_15 
REMARK    2  A    between atoms: C_2  and  O_7 
REMARK    3  A    between atoms: C_5  and  C_8 
REMARK    4  A    between atoms: C_8  and  C_9 
REMARK    5  A    between atoms: C_8  and  O_13 
REMARK    6  A    between atoms: C_9  and  C_10 
REMARK    7  A    between atoms: C_9  and  N_14 
REMARK    8  A    between atoms: C_10  and  O_11 
ROOT
HETATM    1  C   UNK N   1      20.645  13.768   8.796  0.00  0.00     0.183 C 
ENDROOT
BRANCH   1   2
HETATM    2  C   UNK N   1      21.854  13.294   9.582  0.00  0.00    -0.024 A 
HETATM    3  C   UNK N   1      23.146  13.454   9.060  0.00  0.00     0.013 A 
HETATM    4  C   UNK N   1      24.260  12.967   9.751  0.00  0.00     0.040 A 
HETATM    5  C   UNK N   1      24.092  12.288  10.956  0.00  0.00     0.098 A 
HETATM    6  C   UNK N   1      22.808  12.100  11.486  0.00  0.00     0.099 A 
HETATM    7  C   UNK N   1      21.695  12.610  10.800  0.00  0.00     0.049 A 
BRANCH   5   8
HETATM    8  O   UNK N   1      25.169  11.806  11.607  0.00  0.00    -0.358 OA
HETATM    9  H   UNK N   1      25.917  11.510  11.127  0.00  0.00     0.217 HD
ENDBRANCH   5   8
BRANCH   6  10
HETATM   10  O   UNK N   1      22.635  11.431  12.633  0.00  0.00    -0.358 OA
HETATM   11  H   UNK N   1      22.776  11.858  13.456  0.00  0.00     0.217 HD
ENDBRANCH   6  10
ENDBRANCH   1   2
BRANCH   1  12
HETATM   12  C   UNK N   1      20.913  14.901   7.782  0.00  0.00     0.207 C 
BRANCH  12  13
HETATM   13  C   UNK N   1      20.026  16.094   8.057  0.00  0.00     0.165 C 
HETATM   14  O   UNK N   1      18.891  16.130   7.610  0.00  0.00    -0.648 OA
BRANCH  13  15
HETATM   15  O   UNK N   1      20.473  17.122   8.808  0.00  0.00    -0.775 OA
HETATM   16  H   UNK N   1      20.323  17.198   9.730  0.00  0.00     0.167 HD
ENDBRANCH  13  15
ENDBRANCH  12  13
BRANCH  12  17
HETATM   17  N   UNK N   1      20.665  14.433   6.424  0.00  0.00    -0.415 N 
HETATM   18  H   UNK N   1      19.717  14.406   6.049  0.00  0.00     0.150 HD
HETATM   19  H   UNK N   1      21.447  14.131   5.843  0.00  0.00     0.150 HD
ENDBRANCH  12  17
ENDBRANCH   1  12
BRANCH   1  20
HETATM   20  O   UNK N   1      19.619  14.146   9.672  0.00  0.00    -0.388 OA
HETATM   21  H   UNK N   1      19.588  13.790  10.574  0.00  0.00     0.210 HD
ENDBRANCH   1  20
TORSDOF 8
ENDMDL
MODEL 2
REMARK VINA RESULT:      -5.3     15.132     16.306
REMARK  8 active torsions:
REMARK  status: ('A' for Active; 'I' for Inactive)
REMARK    1  A    between atoms: C_1  and  O_15 
REMARK    2  A    between atoms: C_2  and  O_7 
REMARK    3  A    between atoms: C_5  and  C_8 
REMARK    4  A    between atoms: C_8  and  C_9 
REMARK    5  A    between atoms: C_8  and  O_13 
REMARK    6  A    between atoms: C_9  and  C_10 
REMARK    7  A    between atoms: C_9  and  N_14 
REMARK    8  A    between atoms: C_10  and  O_11 
ROOT
HETATM    1  C   UNK N   1      35.616  12.404  15.633  0.00  0.00     0.183 C 
ENDROOT
BRANCH   1   2
HETATM    2  C   UNK N   1      35.615  12.023  17.103  0.00  0.00    -0.024 A 
HETATM    3  C   UNK N   1      35.921  10.711  17.495  0.00  0.00     0.013 A 
HETATM    4  C   UNK N   1      35.864  10.338  18.841  0.00  0.00     0.040 A 
HETATM    5  C   UNK N   1      35.471  11.263  19.806  0.00  0.00     0.098 A 
HETATM    6  C   UNK N   1      35.142  12.573  19.433  0.00  0.00     0.099 A 
HETATM    7  C   UNK N   1      35.222  12.950  18.084  0.00  0.00     0.049 A 
BRANCH   5   8
HETATM    8  O   UNK N   1      35.401  10.891  21.099  0.00  0.00    -0.358 OA
HETATM    9  H   UNK N   1      35.821  10.104  21.387  0.00  0.00     0.217 HD
ENDBRANCH   5   8
BRANCH   6  10
HETATM   10  O   UNK N   1      34.743  13.464  20.351  0.00  0.00    -0.358 OA
HETATM   11  H   UNK N   1      35.287  13.658  21.089  0.00  0.00     0.217 HD
ENDBRANCH   6  10
ENDBRANCH   1   2
BRANCH   1  12
HETATM   12  C   UNK N   1      36.953  12.949  15.088  0.00  0.00     0.207 C 
BRANCH  12  13
HETATM   13  C   UNK N   1      36.922  14.456  14.985  0.00  0.00     0.165 C 
HETATM   14  O   UNK N   1      37.197  15.143  15.956  0.00  0.00    -0.648 OA
BRANCH  13  15
HETATM   15  O   UNK N   1      36.606  15.059  13.819  0.00  0.00    -0.775 OA
HETATM   16  H   UNK N   1      36.265  15.929  13.757  0.00  0.00     0.167 HD
ENDBRANCH  13  15
ENDBRANCH  12  13
BRANCH  12  17
HETATM   17  N   UNK N   1      37.226  12.393  13.768  0.00  0.00    -0.415 N 
HETATM   18  H   UNK N   1      36.690  11.599  13.419  0.00  0.00     0.150 HD
HETATM   19  H   UNK N   1      37.959  12.803  13.189  0.00  0.00     0.150 HD
ENDBRANCH  12  17
ENDBRANCH   1  12
BRANCH   1  20
HETATM   20  O   UNK N   1      34.587  13.318  15.373  0.00  0.00    -0.388 OA
HETATM   21  H   UNK N   1      34.647  13.924  14.617  0.00  0.00     0.210 HD
ENDBRANCH   1  20
TORSDOF 8
ENDMDL
MODEL 3
REMARK VINA RESULT:      -5.3     13.807     15.220
REMARK  8 active torsions:
REMARK  status: ('A' for Active; 'I' for Inactive)
REMARK    1  A    between atoms: C_1  and  O_15 
REMARK    2  A    between atoms: C_2  and  O_7 
REMARK    3  A    between atoms: C_5  and  C_8 
REMARK    4  A    between atoms: C_8  and  C_9 
REMARK    5  A    between atoms: C_8  and  O_13 
REMARK    6  A    between atoms: C_9  and  C_10 
REMARK    7  A    between atoms: C_9  and  N_14 
REMARK    8  A    between atoms: C_10  and  O_11 
ROOT
HETATM    1  C   UNK N   1      35.168  12.146  14.698  0.00  0.00     0.183 C 
ENDROOT
BRANCH   1   2
HETATM    2  C   UNK N   1      35.265  12.359  16.198  0.00  0.00    -0.024 A 
HETATM    3  C   UNK N   1      35.277  11.260  17.071  0.00  0.00     0.013 A 
HETATM    4  C   UNK N   1      35.306  11.450  18.455  0.00  0.00     0.040 A 
HETATM    5  C   UNK N   1      35.293  12.738  18.984  0.00  0.00     0.098 A 
HETATM    6  C   UNK N   1      35.261  13.850  18.131  0.00  0.00     0.099 A 
HETATM    7  C   UNK N   1      35.254  13.656  16.741  0.00  0.00     0.049 A 
BRANCH   5   8
HETATM    8  O   UNK N   1      35.303  12.913  20.320  0.00  0.00    -0.358 OA
HETATM    9  H   UNK N   1      35.405  12.177  20.891  0.00  0.00     0.217 HD
ENDBRANCH   5   8
BRANCH   6  10
HETATM   10  O   UNK N   1      35.227  15.093  18.630  0.00  0.00    -0.358 OA
HETATM   11  H   UNK N   1      35.398  15.242  19.540  0.00  0.00     0.217 HD
ENDBRANCH   6  10
ENDBRANCH   1   2
BRANCH   1  12
HETATM   12  C   UNK N   1      35.738  13.285  13.825  0.00  0.00     0.207 C 
BRANCH  12  13
HETATM   13  C   UNK N   1      35.143  13.252  12.436  0.00  0.00     0.165 C 
HETATM   14  O   UNK N   1      35.499  12.401  11.637  0.00  0.00    -0.648 OA
BRANCH  13  15
HETATM   15  O   UNK N   1      34.204  14.150  12.071  0.00  0.00    -0.775 OA
HETATM   16  H   UNK N   1      33.518  14.448  12.636  0.00  0.00     0.167 HD
ENDBRANCH  13  15
ENDBRANCH  12  13
BRANCH  12  17
HETATM   17  N   UNK N   1      37.186  13.165  13.720  0.00  0.00    -0.415 N 
HETATM   18  H   UNK N   1      37.613  12.297  13.397  0.00  0.00     0.150 HD
HETATM   19  H   UNK N   1      37.778  13.956  13.971  0.00  0.00     0.150 HD
ENDBRANCH  12  17
ENDBRANCH   1  12
BRANCH   1  20
HETATM   20  O   UNK N   1      33.840  11.886  14.334  0.00  0.00    -0.388 OA
HETATM   21  H   UNK N   1      33.317  12.559  13.870  0.00  0.00     0.210 HD
ENDBRANCH   1  20
TORSDOF 8
ENDMDL
MODEL 4
REMARK VINA RESULT:      -5.3     10.711     12.368
REMARK  8 active torsions:
REMARK  status: ('A' for Active; 'I' for Inactive)
REMARK    1  A    between atoms: C_1  and  O_15 
REMARK    2  A    between atoms: C_2  and  O_7 
REMARK    3  A    between atoms: C_5  and  C_8 
REMARK    4  A    between atoms: C_8  and  C_9 
REMARK    5  A    between atoms: C_8  and  O_13 
REMARK    6  A    between atoms: C_9  and  C_10 
REMARK    7  A    between atoms: C_9  and  N_14 
REMARK    8  A    between atoms: C_10  and  O_11 
ROOT
HETATM    1  C   UNK N   1      32.516  17.241   8.489  0.00  0.00     0.183 C 
ENDROOT
BRANCH   1   2
HETATM    2  C   UNK N   1      32.316  17.252   6.984  0.00  0.00    -0.024 A 
HETATM    3  C   UNK N   1      33.407  17.454   6.126  0.00  0.00     0.013 A 
HETATM    4  C   UNK N   1      33.222  17.524   4.742  0.00  0.00     0.040 A 
HETATM    5  C   UNK N   1      31.942  17.426   4.203  0.00  0.00     0.098 A 
HETATM    6  C   UNK N   1      30.836  17.244   5.044  0.00  0.00     0.099 A 
HETATM    7  C   UNK N   1      31.028  17.151   6.431  0.00  0.00     0.049 A 
BRANCH   5   8
HETATM    8  O   UNK N   1      31.770  17.513   2.870  0.00  0.00    -0.358 OA
HETATM    9  H   UNK N   1      31.204  16.913   2.427  0.00  0.00     0.217 HD
ENDBRANCH   5   8
BRANCH   6  10
HETATM   10  O   UNK N   1      29.598  17.169   4.536  0.00  0.00    -0.358 OA
HETATM   11  H   UNK N   1      29.296  17.815   3.929  0.00  0.00     0.217 HD
ENDBRANCH   6  10
ENDBRANCH   1   2
BRANCH   1  12
HETATM   12  C   UNK N   1      33.661  16.341   9.002  0.00  0.00     0.207 C 
BRANCH  12  13
HETATM   13  C   UNK N   1      33.116  15.099   9.668  0.00  0.00     0.165 C 
HETATM   14  O   UNK N   1      32.778  14.139   8.993  0.00  0.00    -0.648 OA
BRANCH  13  15
HETATM   15  O   UNK N   1      33.012  15.030  11.012  0.00  0.00    -0.775 OA
HETATM   16  H   UNK N   1      32.403  15.533  11.515  0.00  0.00     0.167 HD
ENDBRANCH  13  15
ENDBRANCH  12  13
BRANCH  12  17
HETATM   17  N   UNK N   1      34.483  17.067   9.962  0.00  0.00    -0.415 N 
HETATM   18  H   UNK N   1      34.060  17.520  10.771  0.00  0.00     0.150 HD
HETATM   19  H   UNK N   1      35.493  17.122   9.822  0.00  0.00     0.150 HD
ENDBRANCH  12  17
ENDBRANCH   1  12
BRANCH   1  20
HETATM   20  O   UNK N   1      31.318  16.899   9.131  0.00  0.00    -0.388 OA
HETATM   21  H   UNK N   1      31.319  16.626  10.061  0.00  0.00     0.210 HD
ENDBRANCH   1  20
TORSDOF 8
ENDMDL
MODEL 5
REMARK VINA RESULT:      -5.3      9.297     11.234
REMARK  8 active torsions:
REMARK  status: ('A' for Active; 'I' for Inactive)
REMARK    1  A    between atoms: C_1  and  O_15 
REMARK    2  A    between atoms: C_2  and  O_7 
REMARK    3  A    between atoms: C_5  and  C_8 
REMARK    4  A    between atoms: C_8  and  C_9 
REMARK    5  A    between atoms: C_8  and  O_13 
REMARK    6  A    between atoms: C_9  and  C_10 
REMARK    7  A    between atoms: C_9  and  N_14 
REMARK    8  A    between atoms: C_10  and  O_11 
ROOT
HETATM    1  C   UNK N   1      31.719  16.524   6.404  0.00  0.00     0.183 C 
ENDROOT
BRANCH   1   2
HETATM    2  C   UNK N   1      30.527  16.973   7.231  0.00  0.00    -0.024 A 
HETATM    3  C   UNK N   1      29.224  16.835   6.730  0.00  0.00     0.013 A 
HETATM    4  C   UNK N   1      28.127  17.300   7.460  0.00  0.00     0.040 A 
HETATM    5  C   UNK N   1      28.322  17.935   8.684  0.00  0.00     0.098 A 
HETATM    6  C   UNK N   1      29.616  18.101   9.194  0.00  0.00     0.099 A 
HETATM    7  C   UNK N   1      30.714  17.613   8.469  0.00  0.00     0.049 A 
BRANCH   5   8
HETATM    8  O   UNK N   1      27.260  18.397   9.373  0.00  0.00    -0.358 OA
HETATM    9  H   UNK N   1      27.313  18.509  10.301  0.00  0.00     0.217 HD
ENDBRANCH   5   8
BRANCH   6  10
HETATM   10  O   UNK N   1      29.815  18.729  10.361  0.00  0.00    -0.358 OA
HETATM   11  H   UNK N   1      30.305  18.315  11.044  0.00  0.00     0.217 HD
ENDBRANCH   6  10
ENDBRANCH   1   2
BRANCH   1  12
HETATM   12  C   UNK N   1      32.976  16.128   7.207  0.00  0.00     0.207 C 
BRANCH  12  13
HETATM   13  C   UNK N   1      34.204  16.829   6.673  0.00  0.00     0.165 C 
HETATM   14  O   UNK N   1      34.963  16.245   5.917  0.00  0.00    -0.648 OA
BRANCH  13  15
HETATM   15  O   UNK N   1      34.464  18.109   7.011  0.00  0.00    -0.775 OA
HETATM   16  H   UNK N   1      35.317  18.427   7.236  0.00  0.00     0.167 HD
ENDBRANCH  13  15
ENDBRANCH  12  13
BRANCH  12  17
HETATM   17  N   UNK N   1      33.189  14.688   7.136  0.00  0.00    -0.415 N 
HETATM   18  H   UNK N   1      32.946  14.168   6.293  0.00  0.00     0.150 HD
HETATM   19  H   UNK N   1      33.585  14.195   7.937  0.00  0.00     0.150 HD
ENDBRANCH  12  17
ENDBRANCH   1  12
BRANCH   1  20
HETATM   20  O   UNK N   1      32.047  17.506   5.460  0.00  0.00    -0.388 OA
HETATM   21  H   UNK N   1      32.947  17.865   5.416  0.00  0.00     0.210 HD
ENDBRANCH   1  20
TORSDOF 8
ENDMDL
MODEL 6
REMARK VINA RESULT:      -5.2      9.285     11.340
REMARK  8 active torsions:
REMARK  status: ('A' for Active; 'I' for Inactive)
REMARK    1  A    between atoms: C_1  and  O_15 
REMARK    2  A    between atoms: C_2  and  O_7 
REMARK    3  A    between atoms: C_5  and  C_8 
REMARK    4  A    between atoms: C_8  and  C_9 
REMARK    5  A    between atoms: C_8  and  O_13 
REMARK    6  A    between atoms: C_9  and  C_10 
REMARK    7  A    between atoms: C_9  and  N_14 
REMARK    8  A    between atoms: C_10  and  O_11 
ROOT
HETATM    1  C   UNK N   1      32.050  16.411   8.306  0.00  0.00     0.183 C 
ENDROOT
BRANCH   1   2
HETATM    2  C   UNK N   1      30.698  16.950   7.871  0.00  0.00    -0.024 A 
HETATM    3  C   UNK N   1      30.425  17.163   6.511  0.00  0.00     0.013 A 
HETATM    4  C   UNK N   1      29.205  17.714   6.108  0.00  0.00     0.040 A 
HETATM    5  C   UNK N   1      28.259  18.087   7.059  0.00  0.00     0.098 A 
HETATM    6  C   UNK N   1      28.520  17.901   8.423  0.00  0.00     0.099 A 
HETATM    7  C   UNK N   1      29.736  17.327   8.823  0.00  0.00     0.049 A 
BRANCH   5   8
HETATM    8  O   UNK N   1      27.093  18.635   6.663  0.00  0.00    -0.358 OA
HETATM    9  H   UNK N   1      26.620  19.203   7.237  0.00  0.00     0.217 HD
ENDBRANCH   5   8
BRANCH   6  10
HETATM   10  O   UNK N   1      27.624  18.276   9.346  0.00  0.00    -0.358 OA
HETATM   11  H   UNK N   1      26.832  17.787   9.463  0.00  0.00     0.217 HD
ENDBRANCH   6  10
ENDBRANCH   1   2
BRANCH   1  12
HETATM   12  C   UNK N   1      33.208  17.431   8.296  0.00  0.00     0.207 C 
BRANCH  12  13
HETATM   13  C   UNK N   1      34.124  17.199   7.117  0.00  0.00     0.165 C 
HETATM   14  O   UNK N   1      34.947  16.298   7.148  0.00  0.00    -0.648 OA
BRANCH  13  15
HETATM   15  O   UNK N   1      34.032  17.972   6.014  0.00  0.00    -0.775 OA
HETATM   16  H   UNK N   1      34.521  18.761   5.888  0.00  0.00     0.167 HD
ENDBRANCH  13  15
ENDBRANCH  12  13
BRANCH  12  17
HETATM   17  N   UNK N   1      33.986  17.324   9.524  0.00  0.00    -0.415 N 
HETATM   18  H   UNK N   1      33.890  16.510  10.130  0.00  0.00     0.150 HD
HETATM   19  H   UNK N   1      34.632  18.071   9.779  0.00  0.00     0.150 HD
ENDBRANCH  12  17
ENDBRANCH   1  12
BRANCH   1  20
HETATM   20  O   UNK N   1      32.393  15.293   7.533  0.00  0.00    -0.388 OA
HETATM   21  H   UNK N   1      31.790  14.536   7.469  0.00  0.00     0.210 HD
ENDBRANCH   1  20
TORSDOF 8
ENDMDL
MODEL 7
REMARK VINA RESULT:      -5.1      8.467     10.974
REMARK  8 active torsions:
REMARK  status: ('A' for Active; 'I' for Inactive)
REMARK    1  A    between atoms: C_1  and  O_15 
REMARK    2  A    between atoms: C_2  and  O_7 
REMARK    3  A    between atoms: C_5  and  C_8 
REMARK    4  A    between atoms: C_8  and  C_9 
REMARK    5  A    between atoms: C_8  and  O_13 
REMARK    6  A    between atoms: C_9  and  C_10 
REMARK    7  A    between atoms: C_9  and  N_14 
REMARK    8  A    between atoms: C_10  and  O_11 
ROOT
HETATM    1  C   UNK N   1      32.122  16.548   8.273  0.00  0.00     0.183 C 
ENDROOT
BRANCH   1   2
HETATM    2  C   UNK N   1      30.730  16.984   7.851  0.00  0.00    -0.024 A 
HETATM    3  C   UNK N   1      30.416  17.132   6.492  0.00  0.00     0.013 A 
HETATM    4  C   UNK N   1      29.155  17.590   6.098  0.00  0.00     0.040 A 
HETATM    5  C   UNK N   1      28.207  17.934   7.057  0.00  0.00     0.098 A 
HETATM    6  C   UNK N   1      28.506  17.813   8.421  0.00  0.00     0.099 A 
HETATM    7  C   UNK N   1      29.765  17.331   8.812  0.00  0.00     0.049 A 
BRANCH   5   8
HETATM    8  O   UNK N   1      27.000  18.392   6.669  0.00  0.00    -0.358 OA
HETATM    9  H   UNK N   1      26.521  18.983   7.216  0.00  0.00     0.217 HD
ENDBRANCH   5   8
BRANCH   6  10
HETATM   10  O   UNK N   1      27.607  18.161   9.351  0.00  0.00    -0.358 OA
HETATM   11  H   UNK N   1      27.610  19.025   9.712  0.00  0.00     0.217 HD
ENDBRANCH   6  10
ENDBRANCH   1   2
BRANCH   1  12
HETATM   12  C   UNK N   1      32.204  15.181   8.986  0.00  0.00     0.207 C 
BRANCH  12  13
HETATM   13  C   UNK N   1      33.436  15.098   9.858  0.00  0.00     0.165 C 
HETATM   14  O   UNK N   1      34.546  15.194   9.361  0.00  0.00    -0.648 OA
BRANCH  13  15
HETATM   15  O   UNK N   1      33.322  14.933  11.193  0.00  0.00    -0.775 OA
HETATM   16  H   UNK N   1      33.754  14.255  11.674  0.00  0.00     0.167 HD
ENDBRANCH  13  15
ENDBRANCH  12  13
BRANCH  12  17
HETATM   17  N   UNK N   1      32.247  14.102   8.008  0.00  0.00    -0.415 N 
HETATM   18  H   UNK N   1      31.544  14.040   7.272  0.00  0.00     0.150 HD
HETATM   19  H   UNK N   1      32.987  13.402   8.060  0.00  0.00     0.150 HD
ENDBRANCH  12  17
ENDBRANCH   1  12
BRANCH   1  20
HETATM   20  O   UNK N   1      32.715  17.537   9.070  0.00  0.00    -0.388 OA
HETATM   21  H   UNK N   1      33.206  17.294   9.870  0.00  0.00     0.210 HD
ENDBRANCH   1  20
TORSDOF 8
ENDMDL
MODEL 8
REMARK VINA RESULT:      -5.1     12.630     13.929
REMARK  8 active torsions:
REMARK  status: ('A' for Active; 'I' for Inactive)
REMARK    1  A    between atoms: C_1  and  O_15 
REMARK    2  A    between atoms: C_2  and  O_7 
REMARK    3  A    between atoms: C_5  and  C_8 
REMARK    4  A    between atoms: C_8  and  C_9 
REMARK    5  A    between atoms: C_8  and  O_13 
REMARK    6  A    between atoms: C_9  and  C_10 
REMARK    7  A    between atoms: C_9  and  N_14 
REMARK    8  A    between atoms: C_10  and  O_11 
ROOT
HETATM    1  C   UNK N   1      34.363  14.422  10.691  0.00  0.00     0.183 C 
ENDROOT
BRANCH   1   2
HETATM    2  C   UNK N   1      35.097  13.903  11.914  0.00  0.00    -0.024 A 
HETATM    3  C   UNK N   1      34.960  12.563  12.308  0.00  0.00     0.013 A 
HETATM    4  C   UNK N   1      35.585  12.093  13.466  0.00  0.00     0.040 A 
HETATM    5  C   UNK N   1      36.329  12.963  14.260  0.00  0.00     0.098 A 
HETATM    6  C   UNK N   1      36.464  14.309  13.895  0.00  0.00     0.099 A 
HETATM    7  C   UNK N   1      35.853  14.772  12.720  0.00  0.00     0.049 A 
BRANCH   5   8
HETATM    8  O   UNK N   1      36.914  12.506  15.385  0.00  0.00    -0.358 OA
HETATM    9  H   UNK N   1      36.878  13.010  16.173  0.00  0.00     0.217 HD
ENDBRANCH   5   8
BRANCH   6  10
HETATM   10  O   UNK N   1      37.160  15.157  14.663  0.00  0.00    -0.358 OA
HETATM   11  H   UNK N   1      36.952  15.254  15.572  0.00  0.00     0.217 HD
ENDBRANCH   6  10
ENDBRANCH   1   2
BRANCH   1  12
HETATM   12  C   UNK N   1      35.201  15.293   9.731  0.00  0.00     0.207 C 
BRANCH  12  13
HETATM   13  C   UNK N   1      34.870  16.758   9.900  0.00  0.00     0.165 C 
HETATM   14  O   UNK N   1      35.680  17.514  10.412  0.00  0.00    -0.648 OA
BRANCH  13  15
HETATM   15  O   UNK N   1      33.686  17.247   9.476  0.00  0.00    -0.775 OA
HETATM   16  H   UNK N   1      33.581  17.758   8.698  0.00  0.00     0.167 HD
ENDBRANCH  13  15
ENDBRANCH  12  13
BRANCH  12  17
HETATM   17  N   UNK N   1      34.947  14.910   8.348  0.00  0.00    -0.415 N 
HETATM   18  H   UNK N   1      35.719  14.688   7.720  0.00  0.00     0.150 HD
HETATM   19  H   UNK N   1      33.987  14.863   8.005  0.00  0.00     0.150 HD
ENDBRANCH  12  17
ENDBRANCH   1  12
BRANCH   1  20
HETATM   20  O   UNK N   1      33.210  15.116  11.081  0.00  0.00    -0.388 OA
HETATM   21  H   UNK N   1      32.438  15.154  10.496  0.00  0.00     0.210 HD
ENDBRANCH   1  20
TORSDOF 8
ENDMDL
MODEL 9
REMARK VINA RESULT:      -5.1     12.824     14.172
REMARK  8 active torsions:
REMARK  status: ('A' for Active; 'I' for Inactive)
REMARK    1  A    between atoms: C_1  and  O_15 
REMARK    2  A    between atoms: C_2  and  O_7 
REMARK    3  A    between atoms: C_5  and  C_8 
REMARK    4  A    between atoms: C_8  and  C_9 
REMARK    5  A    between atoms: C_8  and  O_13 
REMARK    6  A    between atoms: C_9  and  C_10 
REMARK    7  A    between atoms: C_9  and  N_14 
REMARK    8  A    between atoms: C_10  and  O_11 
ROOT
HETATM    1  C   UNK N   1      34.526  15.533  10.870  0.00  0.00     0.183 C 
ENDROOT
BRANCH   1   2
HETATM    2  C   UNK N   1      34.461  16.111   9.467  0.00  0.00    -0.024 A 
HETATM    3  C   UNK N   1      34.548  17.497   9.267  0.00  0.00     0.013 A 
HETATM    4  C   UNK N   1      34.430  18.040   7.985  0.00  0.00     0.040 A 
HETATM    5  C   UNK N   1      34.192  17.209   6.894  0.00  0.00     0.098 A 
HETATM    6  C   UNK N   1      34.081  15.823   7.074  0.00  0.00     0.099 A 
HETATM    7  C   UNK N   1      34.224  15.279   8.359  0.00  0.00     0.049 A 
BRANCH   5   8
HETATM    8  O   UNK N   1      34.060  17.742   5.663  0.00  0.00    -0.358 OA
HETATM    9  H   UNK N   1      34.706  17.578   5.006  0.00  0.00     0.217 HD
ENDBRANCH   5   8
BRANCH   6  10
HETATM   10  O   UNK N   1      33.832  15.018   6.033  0.00  0.00    -0.358 OA
HETATM   11  H   UNK N   1      34.456  14.936   5.338  0.00  0.00     0.217 HD
ENDBRANCH   6  10
ENDBRANCH   1   2
BRANCH   1  12
HETATM   12  C   UNK N   1      35.696  14.561  11.136  0.00  0.00     0.207 C 
BRANCH  12  13
HETATM   13  C   UNK N   1      35.752  14.167  12.594  0.00  0.00     0.165 C 
HETATM   14  O   UNK N   1      34.840  13.524  13.091  0.00  0.00    -0.648 OA
BRANCH  13  15
HETATM   15  O   UNK N   1      36.812  14.506  13.357  0.00  0.00    -0.775 OA
HETATM   16  H   UNK N   1      37.115  14.000  14.085  0.00  0.00     0.167 HD
ENDBRANCH  13  15
ENDBRANCH  12  13
BRANCH  12  17
HETATM   17  N   UNK N   1      36.962  15.180  10.767  0.00  0.00    -0.415 N 
HETATM   18  H   UNK N   1      37.793  15.047  11.344  0.00  0.00     0.150 HD
HETATM   19  H   UNK N   1      37.018  15.753   9.925  0.00  0.00     0.150 HD
ENDBRANCH  12  17
ENDBRANCH   1  12
BRANCH   1  20
HETATM   20  O   UNK N   1      33.311  14.915  11.193  0.00  0.00    -0.388 OA
HETATM   21  H   UNK N   1      33.127  14.009  10.898  0.00  0.00     0.210 HD
ENDBRANCH   1  20
TORSDOF 8
ENDMDL
