MODEL 1
REMARK VINA RESULT:      -8.0      0.000      0.000
REMARK  7 active torsions:
REMARK  status: ('A' for Active; 'I' for Inactive)
REMARK    1  A    between atoms: C_19  and  C_9 
REMARK    2  A    between atoms: C_20  and  C_10 
REMARK    3  A    between atoms: C_12  and  C_11 
REMARK    4  A    between atoms: C_19  and  C_18 
REMARK    5  A    between atoms: C_25  and  C_20 
REMARK    6  A    between atoms: C_24  and  O_29 
REMARK    7  A    between atoms: C_27  and  O_30 
ROOT
HETATM    1  C   UNK N   1      26.454  16.953   5.717  0.00  0.00     0.016 C 
HETATM    2  C   UNK N   1      27.388  15.747   3.132  0.00  0.00     0.005 C 
HETATM    3  C   UNK N   1      28.744  16.468   2.977  0.00  0.00     0.034 C 
HETATM    4  C   UNK N   1      30.008  17.645   4.805  0.00  0.00     0.004 C 
HETATM    5  C   UNK N   1      26.252  19.970   5.303  0.00  0.00     0.007 C 
HETATM    6  C   UNK N   1      27.727  19.551   5.235  0.00  0.00     0.010 C 
HETATM    7  C   UNK N   1      26.194  16.731   3.244  0.00  0.00     0.010 C 
HETATM    8  C   UNK N   1      28.899  17.514   4.054  0.00  0.00    -0.075 C 
HETATM    9  C   UNK N   1      25.429  18.915   4.526  0.00  0.00     0.002 C 
HETATM   10  C   UNK N   1      27.742  18.462   4.177  0.00  0.00     0.023 C 
HETATM   11  C   UNK N   1      26.424  17.732   4.389  0.00  0.00    -0.032 C 
ENDROOT
BRANCH   4  12
HETATM   12  C   UNK N   1      31.237  16.844   4.574  0.00  0.00     0.008 C 
HETATM   13  C   UNK N   1      32.073  16.530   5.589  0.00  0.00    -0.048 C 
HETATM   14  C   UNK N   1      31.759  16.902   7.015  0.00  0.00     0.071 C 
HETATM   15  C   UNK N   1      33.396  15.881   5.380  0.00  0.00    -0.033 C 
HETATM   16  C   UNK N   1      32.900  17.720   7.634  0.00  0.00     0.125 C 
HETATM   17  C   UNK N   1      34.311  17.216   7.242  0.00  0.00     0.068 C 
HETATM   18  C   UNK N   1      34.308  15.825   6.589  0.00  0.00     0.153 C 
HETATM   19  C   UNK N   1      33.842  15.557   4.159  0.00  0.00     0.022 C 
BRANCH  16  20
HETATM   20  O   UNK N   1      32.766  17.690   9.022  0.00  0.00    -0.395 OA
HETATM   21  H   UNK N   1      32.921  18.415   9.647  0.00  0.00     0.210 HD
ENDBRANCH  16  20
BRANCH  18  22
HETATM   22  O   UNK N   1      35.613  15.466   6.245  0.00  0.00    -0.391 OA
HETATM   23  H   UNK N   1      35.858  14.864   5.524  0.00  0.00     0.210 HD
ENDBRANCH  18  22
ENDBRANCH   4  12
BRANCH   9  24
HETATM   24  C   UNK N   1      24.816  19.509   3.206  0.00  0.00     0.008 C 
HETATM   25  C   UNK N   1      25.435  20.819   2.740  0.00  0.00     0.014 C 
BRANCH  24  26
HETATM   26  C   UNK N   1      23.330  19.761   3.347  0.00  0.00    -0.026 C 
HETATM   27  C   UNK N   1      22.472  18.820   3.769  0.00  0.00    -0.026 C 
BRANCH  27  28
HETATM   28  C   UNK N   1      20.991  19.117   3.913  0.00  0.00     0.007 C 
HETATM   29  C   UNK N   1      20.656  20.392   3.155  0.00  0.00     0.014 C 
BRANCH  28  30
HETATM   30  C   UNK N   1      20.075  17.985   3.397  0.00  0.00    -0.015 C 
HETATM   31  C   UNK N   1      20.220  17.744   1.901  0.00  0.00     0.010 C 
HETATM   32  C   UNK N   1      20.234  16.670   4.141  0.00  0.00     0.010 C 
ENDBRANCH  28  30
ENDBRANCH  27  28
ENDBRANCH  24  26
ENDBRANCH   9  24
TORSDOF 7
ENDMDL
MODEL 2
REMARK VINA RESULT:      -7.9      3.992     10.244
REMARK  7 active torsions:
REMARK  status: ('A' for Active; 'I' for Inactive)
REMARK    1  A    between atoms: C_19  and  C_9 
REMARK    2  A    between atoms: C_20  and  C_10 
REMARK    3  A    between atoms: C_12  and  C_11 
REMARK    4  A    between atoms: C_19  and  C_18 
REMARK    5  A    between atoms: C_25  and  C_20 
REMARK    6  A    between atoms: C_24  and  O_29 
REMARK    7  A    between atoms: C_27  and  O_30 
ROOT
HETATM    1  C   UNK N   1      27.130  18.064   6.591  0.00  0.00     0.016 C 
HETATM    2  C   UNK N   1      26.976  20.500   4.844  0.00  0.00     0.005 C 
HETATM    3  C   UNK N   1      25.953  20.011   3.797  0.00  0.00     0.034 C 
HETATM    4  C   UNK N   1      24.384  18.064   4.060  0.00  0.00     0.004 C 
HETATM    5  C   UNK N   1      28.095  15.747   4.854  0.00  0.00     0.007 C 
HETATM    6  C   UNK N   1      26.694  16.173   4.392  0.00  0.00     0.010 C 
HETATM    7  C   UNK N   1      28.223  19.583   4.939  0.00  0.00     0.010 C 
HETATM    8  C   UNK N   1      25.638  18.554   4.024  0.00  0.00    -0.075 C 
HETATM    9  C   UNK N   1      28.904  17.034   5.140  0.00  0.00     0.002 C 
HETATM   10  C   UNK N   1      26.840  17.661   4.130  0.00  0.00     0.023 C 
HETATM   11  C   UNK N   1      27.805  18.127   5.209  0.00  0.00    -0.032 C 
ENDROOT
BRANCH   4  12
HETATM   12  C   UNK N   1      23.187  18.894   3.770  0.00  0.00     0.008 C 
HETATM   13  C   UNK N   1      21.958  18.341   3.660  0.00  0.00    -0.048 C 
HETATM   14  C   UNK N   1      21.728  16.873   3.911  0.00  0.00     0.071 C 
HETATM   15  C   UNK N   1      20.764  19.101   3.202  0.00  0.00    -0.033 C 
HETATM   16  C   UNK N   1      21.056  16.207   2.703  0.00  0.00     0.125 C 
HETATM   17  C   UNK N   1      19.957  17.078   2.044  0.00  0.00     0.068 C 
HETATM   18  C   UNK N   1      19.527  18.279   2.900  0.00  0.00     0.153 C 
HETATM   19  C   UNK N   1      20.831  20.398   2.875  0.00  0.00     0.022 C 
BRANCH  16  20
HETATM   20  O   UNK N   1      20.501  14.996   3.114  0.00  0.00    -0.395 OA
HETATM   21  H   UNK N   1      20.359  14.199   2.580  0.00  0.00     0.210 HD
ENDBRANCH  16  20
BRANCH  18  22
HETATM   22  O   UNK N   1      18.559  19.019   2.217  0.00  0.00    -0.391 OA
HETATM   23  H   UNK N   1      18.114  18.742   1.401  0.00  0.00     0.210 HD
ENDBRANCH  18  22
ENDBRANCH   4  12
BRANCH   9  24
HETATM   24  C   UNK N   1      30.067  17.234   4.101  0.00  0.00     0.008 C 
HETATM   25  C   UNK N   1      30.064  16.257   2.933  0.00  0.00     0.014 C 
BRANCH  24  26
HETATM   26  C   UNK N   1      31.426  17.116   4.758  0.00  0.00    -0.026 C 
HETATM   27  C   UNK N   1      31.585  16.727   6.031  0.00  0.00    -0.026 C 
BRANCH  27  28
HETATM   28  C   UNK N   1      32.966  16.605   6.647  0.00  0.00     0.007 C 
HETATM   29  C   UNK N   1      33.999  17.175   5.688  0.00  0.00     0.014 C 
BRANCH  28  30
HETATM   30  C   UNK N   1      33.108  17.328   8.007  0.00  0.00    -0.015 C 
HETATM   31  C   UNK N   1      34.244  18.341   8.020  0.00  0.00     0.010 C 
HETATM   32  C   UNK N   1      31.831  17.989   8.495  0.00  0.00     0.010 C 
ENDBRANCH  28  30
ENDBRANCH  27  28
ENDBRANCH  24  26
ENDBRANCH   9  24
TORSDOF 7
ENDMDL
MODEL 3
REMARK VINA RESULT:      -7.9     10.821     13.601
REMARK  7 active torsions:
REMARK  status: ('A' for Active; 'I' for Inactive)
REMARK    1  A    between atoms: C_19  and  C_9 
REMARK    2  A    between atoms: C_20  and  C_10 
REMARK    3  A    between atoms: C_12  and  C_11 
REMARK    4  A    between atoms: C_19  and  C_18 
REMARK    5  A    between atoms: C_25  and  C_20 
REMARK    6  A    between atoms: C_24  and  O_29 
REMARK    7  A    between atoms: C_27  and  O_30 
ROOT
HETATM    1  C   UNK N   1      25.388  26.926  -5.976  0.00  0.00     0.016 C 
HETATM    2  C   UNK N   1      28.074  27.159  -7.294  0.00  0.00     0.005 C 
HETATM    3  C   UNK N   1      28.851  26.083  -6.507  0.00  0.00     0.034 C 
HETATM    4  C   UNK N   1      27.836  24.233  -5.138  0.00  0.00     0.004 C 
HETATM    5  C   UNK N   1      25.763  27.541  -3.010  0.00  0.00     0.007 C 
HETATM    6  C   UNK N   1      26.480  26.225  -3.345  0.00  0.00     0.010 C 
HETATM    7  C   UNK N   1      27.465  28.251  -6.378  0.00  0.00     0.010 C 
HETATM    8  C   UNK N   1      27.997  25.547  -5.385  0.00  0.00    -0.075 C 
HETATM    9  C   UNK N   1      26.047  28.535  -4.162  0.00  0.00     0.002 C 
HETATM   10  C   UNK N   1      27.393  26.598  -4.500  0.00  0.00     0.023 C 
HETATM   11  C   UNK N   1      26.582  27.614  -5.291  0.00  0.00    -0.032 C 
ENDROOT
BRANCH   4  12
HETATM   12  C   UNK N   1      28.574  23.178  -5.880  0.00  0.00     0.008 C 
HETATM   13  C   UNK N   1      29.476  22.384  -5.262  0.00  0.00    -0.048 C 
HETATM   14  C   UNK N   1      29.718  22.470  -3.777  0.00  0.00     0.071 C 
HETATM   15  C   UNK N   1      30.359  21.436  -5.994  0.00  0.00    -0.033 C 
HETATM   16  C   UNK N   1      31.201  22.722  -3.475  0.00  0.00     0.125 C 
HETATM   17  C   UNK N   1      32.166  21.924  -4.387  0.00  0.00     0.068 C 
HETATM   18  C   UNK N   1      31.476  20.807  -5.185  0.00  0.00     0.153 C 
HETATM   19  C   UNK N   1      30.307  21.302  -7.326  0.00  0.00     0.022 C 
BRANCH  16  20
HETATM   20  O   UNK N   1      31.445  22.392  -2.142  0.00  0.00    -0.395 OA
HETATM   21  H   UNK N   1      32.081  21.744  -1.800  0.00  0.00     0.210 HD
ENDBRANCH  16  20
BRANCH  18  22
HETATM   22  O   UNK N   1      32.413  20.164  -5.997  0.00  0.00    -0.391 OA
HETATM   23  H   UNK N   1      33.349  20.033  -5.778  0.00  0.00     0.210 HD
ENDBRANCH  18  22
ENDBRANCH   4  12
BRANCH   9  24
HETATM   24  C   UNK N   1      26.963  29.723  -3.694  0.00  0.00     0.008 C 
HETATM   25  C   UNK N   1      26.672  31.062  -4.358  0.00  0.00     0.014 C 
BRANCH  24  26
HETATM   26  C   UNK N   1      28.427  29.428  -3.942  0.00  0.00    -0.026 C 
HETATM   27  C   UNK N   1      29.329  29.350  -2.953  0.00  0.00    -0.026 C 
BRANCH  27  28
HETATM   28  C   UNK N   1      30.784  29.034  -3.242  0.00  0.00     0.007 C 
HETATM   29  C   UNK N   1      31.519  28.800  -1.931  0.00  0.00     0.014 C 
BRANCH  28  30
HETATM   30  C   UNK N   1      30.987  27.796  -4.146  0.00  0.00    -0.015 C 
HETATM   31  C   UNK N   1      32.237  27.894  -5.008  0.00  0.00     0.010 C 
HETATM   32  C   UNK N   1      30.988  26.475  -3.396  0.00  0.00     0.010 C 
ENDBRANCH  28  30
ENDBRANCH  27  28
ENDBRANCH  24  26
ENDBRANCH   9  24
TORSDOF 7
ENDMDL
MODEL 4
REMARK VINA RESULT:      -7.7      3.580      6.812
REMARK  7 active torsions:
REMARK  status: ('A' for Active; 'I' for Inactive)
REMARK    1  A    between atoms: C_19  and  C_9 
REMARK    2  A    between atoms: C_20  and  C_10 
REMARK    3  A    between atoms: C_12  and  C_11 
REMARK    4  A    between atoms: C_19  and  C_18 
REMARK    5  A    between atoms: C_25  and  C_20 
REMARK    6  A    between atoms: C_24  and  O_29 
REMARK    7  A    between atoms: C_27  and  O_30 
ROOT
HETATM    1  C   UNK N   1      32.830  17.431   5.842  0.00  0.00     0.016 C 
HETATM    2  C   UNK N   1      34.391  18.185   8.292  0.00  0.00     0.005 C 
HETATM    3  C   UNK N   1      34.595  16.788   8.918  0.00  0.00     0.034 C 
HETATM    4  C   UNK N   1      34.347  14.587   7.728  0.00  0.00     0.004 C 
HETATM    5  C   UNK N   1      30.264  16.065   6.771  0.00  0.00     0.007 C 
HETATM    6  C   UNK N   1      31.464  15.173   7.122  0.00  0.00     0.010 C 
HETATM    7  C   UNK N   1      32.895  18.535   8.080  0.00  0.00     0.010 C 
HETATM    8  C   UNK N   1      33.819  15.756   8.139  0.00  0.00    -0.075 C 
HETATM    9  C   UNK N   1      30.655  17.525   7.097  0.00  0.00     0.002 C 
HETATM   10  C   UNK N   1      32.373  16.093   7.917  0.00  0.00     0.023 C 
HETATM   11  C   UNK N   1      32.198  17.447   7.246  0.00  0.00    -0.032 C 
ENDROOT
BRANCH   4  12
HETATM   12  C   UNK N   1      35.717  14.147   8.098  0.00  0.00     0.008 C 
HETATM   13  C   UNK N   1      35.964  13.528   9.273  0.00  0.00    -0.048 C 
HETATM   14  C   UNK N   1      34.853  13.176  10.229  0.00  0.00     0.071 C 
HETATM   15  C   UNK N   1      37.337  13.226   9.759  0.00  0.00    -0.033 C 
HETATM   16  C   UNK N   1      35.112  13.776  11.618  0.00  0.00     0.125 C 
HETATM   17  C   UNK N   1      36.593  13.695  12.064  0.00  0.00     0.068 C 
HETATM   18  C   UNK N   1      37.447  12.758  11.196  0.00  0.00     0.153 C 
HETATM   19  C   UNK N   1      38.427  13.546   9.049  0.00  0.00     0.022 C 
BRANCH  16  20
HETATM   20  O   UNK N   1      34.312  13.109  12.546  0.00  0.00    -0.395 OA
HETATM   21  H   UNK N   1      33.613  13.486  13.103  0.00  0.00     0.210 HD
ENDBRANCH  16  20
BRANCH  18  22
HETATM   22  O   UNK N   1      38.768  12.770  11.652  0.00  0.00    -0.391 OA
HETATM   23  H   UNK N   1      39.039  12.751  12.583  0.00  0.00     0.210 HD
ENDBRANCH  18  22
ENDBRANCH   4  12
BRANCH   9  24
HETATM   24  C   UNK N   1      29.834  18.092   8.312  0.00  0.00     0.008 C 
HETATM   25  C   UNK N   1      29.253  17.039   9.245  0.00  0.00     0.014 C 
BRANCH  24  26
HETATM   26  C   UNK N   1      28.673  18.946   7.850  0.00  0.00    -0.026 C 
HETATM   27  C   UNK N   1      28.197  18.905   6.597  0.00  0.00    -0.026 C 
BRANCH  27  28
HETATM   28  C   UNK N   1      27.019  19.764   6.177  0.00  0.00     0.007 C 
HETATM   29  C   UNK N   1      27.441  21.226   6.164  0.00  0.00     0.014 C 
BRANCH  28  30
HETATM   30  C   UNK N   1      26.451  19.406   4.784  0.00  0.00    -0.015 C 
HETATM   31  C   UNK N   1      26.649  20.517   3.763  0.00  0.00     0.010 C 
HETATM   32  C   UNK N   1      26.975  18.097   4.219  0.00  0.00     0.010 C 
ENDBRANCH  28  30
ENDBRANCH  27  28
ENDBRANCH  24  26
ENDBRANCH   9  24
TORSDOF 7
ENDMDL
MODEL 5
REMARK VINA RESULT:      -7.7     11.383     16.135
REMARK  7 active torsions:
REMARK  status: ('A' for Active; 'I' for Inactive)
REMARK    1  A    between atoms: C_19  and  C_9 
REMARK    2  A    between atoms: C_20  and  C_10 
REMARK    3  A    between atoms: C_12  and  C_11 
REMARK    4  A    between atoms: C_19  and  C_18 
REMARK    5  A    between atoms: C_25  and  C_20 
REMARK    6  A    between atoms: C_24  and  O_29 
REMARK    7  A    between atoms: C_27  and  O_30 
ROOT
HETATM    1  C   UNK N   1      33.870  10.820  15.146  0.00  0.00     0.016 C 
HETATM    2  C   UNK N   1      35.289  13.438  15.524  0.00  0.00     0.005 C 
HETATM    3  C   UNK N   1      36.631  13.115  14.833  0.00  0.00     0.034 C 
HETATM    4  C   UNK N   1      37.049  11.225  13.229  0.00  0.00     0.004 C 
HETATM    5  C   UNK N   1      35.529   8.667  16.533  0.00  0.00     0.007 C 
HETATM    6  C   UNK N   1      36.311   9.204  15.326  0.00  0.00     0.010 C 
HETATM    7  C   UNK N   1      34.958  12.460  16.681  0.00  0.00     0.010 C 
HETATM    8  C   UNK N   1      36.675  11.657  14.447  0.00  0.00    -0.075 C 
HETATM    9  C   UNK N   1      34.878   9.876  17.245  0.00  0.00     0.002 C 
HETATM   10  C   UNK N   1      36.344  10.704  15.559  0.00  0.00     0.023 C 
HETATM   11  C   UNK N   1      34.990  11.005  16.185  0.00  0.00    -0.032 C 
ENDROOT
BRANCH   4  12
HETATM   12  C   UNK N   1      37.563  12.134  12.173  0.00  0.00     0.008 C 
HETATM   13  C   UNK N   1      36.743  12.652  11.231  0.00  0.00    -0.048 C 
HETATM   14  C   UNK N   1      35.257  12.403  11.254  0.00  0.00     0.071 C 
HETATM   15  C   UNK N   1      37.239  13.424  10.059  0.00  0.00    -0.033 C 
HETATM   16  C   UNK N   1      34.781  11.797   9.927  0.00  0.00     0.125 C 
HETATM   17  C   UNK N   1      35.459  12.417   8.680  0.00  0.00     0.068 C 
HETATM   18  C   UNK N   1      36.220  13.718   8.977  0.00  0.00     0.153 C 
HETATM   19  C   UNK N   1      38.543  13.664   9.868  0.00  0.00     0.022 C 
BRANCH  16  20
HETATM   20  O   UNK N   1      33.400  11.962   9.833  0.00  0.00    -0.395 OA
HETATM   21  H   UNK N   1      32.819  11.686   9.107  0.00  0.00     0.210 HD
ENDBRANCH  16  20
BRANCH  18  22
HETATM   22  O   UNK N   1      36.820  14.188   7.806  0.00  0.00    -0.391 OA
HETATM   23  H   UNK N   1      36.797  13.740   6.946  0.00  0.00     0.210 HD
ENDBRANCH  18  22
ENDBRANCH   4  12
BRANCH   9  24
HETATM   24  C   UNK N   1      35.519  10.136  18.657  0.00  0.00     0.008 C 
HETATM   25  C   UNK N   1      36.818   9.389  18.923  0.00  0.00     0.014 C 
BRANCH  24  26
HETATM   26  C   UNK N   1      34.570   9.763  19.776  0.00  0.00    -0.026 C 
HETATM   27  C   UNK N   1      33.682   8.764  19.670  0.00  0.00    -0.026 C 
BRANCH  27  28
HETATM   28  C   UNK N   1      32.760   8.410  20.822  0.00  0.00     0.007 C 
HETATM   29  C   UNK N   1      31.979   9.646  21.242  0.00  0.00     0.014 C 
BRANCH  28  30
HETATM   30  C   UNK N   1      31.753   7.284  20.491  0.00  0.00    -0.015 C 
HETATM   31  C   UNK N   1      30.438   7.812  19.938  0.00  0.00     0.010 C 
HETATM   32  C   UNK N   1      32.302   6.214  19.562  0.00  0.00     0.010 C 
ENDBRANCH  28  30
ENDBRANCH  27  28
ENDBRANCH  24  26
ENDBRANCH   9  24
TORSDOF 7
ENDMDL
MODEL 6
REMARK VINA RESULT:      -7.4      3.561     10.074
REMARK  7 active torsions:
REMARK  status: ('A' for Active; 'I' for Inactive)
REMARK    1  A    between atoms: C_19  and  C_9 
REMARK    2  A    between atoms: C_20  and  C_10 
REMARK    3  A    between atoms: C_12  and  C_11 
REMARK    4  A    between atoms: C_19  and  C_18 
REMARK    5  A    between atoms: C_25  and  C_20 
REMARK    6  A    between atoms: C_24  and  O_29 
REMARK    7  A    between atoms: C_27  and  O_30 
ROOT
HETATM    1  C   UNK N   1      28.464  16.086   6.405  0.00  0.00     0.016 C 
HETATM    2  C   UNK N   1      28.026  18.933   7.246  0.00  0.00     0.005 C 
HETATM    3  C   UNK N   1      27.767  19.581   5.869  0.00  0.00     0.034 C 
HETATM    4  C   UNK N   1      27.137  18.364   3.761  0.00  0.00     0.004 C 
HETATM    5  C   UNK N   1      30.855  16.045   4.510  0.00  0.00     0.007 C 
HETATM    6  C   UNK N   1      29.693  16.789   3.837  0.00  0.00     0.010 C 
HETATM    7  C   UNK N   1      29.396  18.212   7.323  0.00  0.00     0.010 C 
HETATM    8  C   UNK N   1      28.000  18.571   4.773  0.00  0.00    -0.075 C 
HETATM    9  C   UNK N   1      30.907  16.498   5.988  0.00  0.00     0.002 C 
HETATM   10  C   UNK N   1      29.319  17.859   4.846  0.00  0.00     0.023 C 
HETATM   11  C   UNK N   1      29.527  17.178   6.191  0.00  0.00    -0.032 C 
ENDROOT
BRANCH   4  12
HETATM   12  C   UNK N   1      25.917  19.188   3.560  0.00  0.00     0.008 C 
HETATM   13  C   UNK N   1      24.712  18.785   4.021  0.00  0.00    -0.048 C 
HETATM   14  C   UNK N   1      24.559  17.524   4.834  0.00  0.00     0.071 C 
HETATM   15  C   UNK N   1      23.442  19.487   3.696  0.00  0.00    -0.033 C 
HETATM   16  C   UNK N   1      23.531  16.580   4.196  0.00  0.00     0.125 C 
HETATM   17  C   UNK N   1      22.289  17.308   3.625  0.00  0.00     0.068 C 
HETATM   18  C   UNK N   1      22.165  18.769   4.084  0.00  0.00     0.153 C 
HETATM   19  C   UNK N   1      23.414  20.582   2.924  0.00  0.00     0.022 C 
BRANCH  16  20
HETATM   20  O   UNK N   1      23.125  15.653   5.154  0.00  0.00    -0.395 OA
HETATM   21  H   UNK N   1      22.917  15.819   6.087  0.00  0.00     0.210 HD
ENDBRANCH  16  20
BRANCH  18  22
HETATM   22  O   UNK N   1      21.038  19.351   3.499  0.00  0.00    -0.391 OA
HETATM   23  H   UNK N   1      20.554  20.114   3.852  0.00  0.00     0.210 HD
ENDBRANCH  18  22
ENDBRANCH   4  12
BRANCH   9  24
HETATM   24  C   UNK N   1      32.192  17.351   6.292  0.00  0.00     0.008 C 
HETATM   25  C   UNK N   1      33.167  17.484   5.131  0.00  0.00     0.014 C 
BRANCH  24  26
HETATM   26  C   UNK N   1      32.978  16.779   7.453  0.00  0.00    -0.026 C 
HETATM   27  C   UNK N   1      32.582  15.694   8.132  0.00  0.00    -0.026 C 
BRANCH  27  28
HETATM   28  C   UNK N   1      33.408  15.141   9.278  0.00  0.00     0.007 C 
HETATM   29  C   UNK N   1      33.461  13.625   9.176  0.00  0.00     0.014 C 
BRANCH  28  30
HETATM   30  C   UNK N   1      34.856  15.681   9.321  0.00  0.00    -0.015 C 
HETATM   31  C   UNK N   1      35.163  16.446  10.600  0.00  0.00     0.010 C 
HETATM   32  C   UNK N   1      35.920  14.621   9.094  0.00  0.00     0.010 C 
ENDBRANCH  28  30
ENDBRANCH  27  28
ENDBRANCH  24  26
ENDBRANCH   9  24
TORSDOF 7
ENDMDL
MODEL 7
REMARK VINA RESULT:      -7.4      3.966      9.999
REMARK  7 active torsions:
REMARK  status: ('A' for Active; 'I' for Inactive)
REMARK    1  A    between atoms: C_19  and  C_9 
REMARK    2  A    between atoms: C_20  and  C_10 
REMARK    3  A    between atoms: C_12  and  C_11 
REMARK    4  A    between atoms: C_19  and  C_18 
REMARK    5  A    between atoms: C_25  and  C_20 
REMARK    6  A    between atoms: C_24  and  O_29 
REMARK    7  A    between atoms: C_27  and  O_30 
ROOT
HETATM    1  C   UNK N   1      27.522  15.987   3.577  0.00  0.00     0.016 C 
HETATM    2  C   UNK N   1      25.922  14.419   5.574  0.00  0.00     0.005 C 
HETATM    3  C   UNK N   1      24.643  15.282   5.627  0.00  0.00     0.034 C 
HETATM    4  C   UNK N   1      23.940  16.986   3.916  0.00  0.00     0.004 C 
HETATM    5  C   UNK N   1      27.924  18.789   4.718  0.00  0.00     0.007 C 
HETATM    6  C   UNK N   1      26.437  18.585   4.398  0.00  0.00     0.010 C 
HETATM    7  C   UNK N   1      27.202  15.218   5.930  0.00  0.00     0.010 C 
HETATM    8  C   UNK N   1      24.836  16.540   4.817  0.00  0.00    -0.075 C 
HETATM    9  C   UNK N   1      28.445  17.486   5.370  0.00  0.00     0.002 C 
HETATM   10  C   UNK N   1      26.080  17.314   5.146  0.00  0.00     0.023 C 
HETATM   11  C   UNK N   1      27.333  16.459   5.030  0.00  0.00    -0.032 C 
ENDROOT
BRANCH   4  12
HETATM   12  C   UNK N   1      22.617  16.342   3.709  0.00  0.00     0.008 C 
HETATM   13  C   UNK N   1      21.524  16.746   4.393  0.00  0.00    -0.048 C 
HETATM   14  C   UNK N   1      21.571  17.922   5.334  0.00  0.00     0.071 C 
HETATM   15  C   UNK N   1      20.224  16.023   4.346  0.00  0.00    -0.033 C 
HETATM   16  C   UNK N   1      21.088  17.523   6.736  0.00  0.00     0.125 C 
HETATM   17  C   UNK N   1      19.869  16.568   6.725  0.00  0.00     0.068 C 
HETATM   18  C   UNK N   1      19.182  16.460   5.355  0.00  0.00     0.153 C 
HETATM   19  C   UNK N   1      20.053  14.918   3.607  0.00  0.00     0.022 C 
BRANCH  16  20
HETATM   20  O   UNK N   1      20.761  18.682   7.439  0.00  0.00    -0.395 OA
HETATM   21  H   UNK N   1      21.052  19.589   7.252  0.00  0.00     0.210 HD
ENDBRANCH  16  20
BRANCH  18  22
HETATM   22  O   UNK N   1      18.117  15.559   5.434  0.00  0.00    -0.391 OA
HETATM   23  H   UNK N   1      18.196  14.615   5.640  0.00  0.00     0.210 HD
ENDBRANCH  18  22
ENDBRANCH   4  12
BRANCH   9  24
HETATM   24  C   UNK N   1      28.805  17.696   6.886  0.00  0.00     0.008 C 
HETATM   25  C   UNK N   1      28.386  19.038   7.469  0.00  0.00     0.014 C 
BRANCH  24  26
HETATM   26  C   UNK N   1      30.294  17.567   7.128  0.00  0.00    -0.026 C 
HETATM   27  C   UNK N   1      31.083  16.776   6.386  0.00  0.00    -0.026 C 
BRANCH  27  28
HETATM   28  C   UNK N   1      32.574  16.688   6.649  0.00  0.00     0.007 C 
HETATM   29  C   UNK N   1      33.321  17.485   5.591  0.00  0.00     0.014 C 
BRANCH  28  30
HETATM   30  C   UNK N   1      32.993  17.210   8.043  0.00  0.00    -0.015 C 
HETATM   31  C   UNK N   1      33.436  16.096   8.981  0.00  0.00     0.010 C 
HETATM   32  C   UNK N   1      34.055  18.296   8.005  0.00  0.00     0.010 C 
ENDBRANCH  28  30
ENDBRANCH  27  28
ENDBRANCH  24  26
ENDBRANCH   9  24
TORSDOF 7
ENDMDL
MODEL 8
REMARK VINA RESULT:      -7.4     10.371     12.354
REMARK  7 active torsions:
REMARK  status: ('A' for Active; 'I' for Inactive)
REMARK    1  A    between atoms: C_19  and  C_9 
REMARK    2  A    between atoms: C_20  and  C_10 
REMARK    3  A    between atoms: C_12  and  C_11 
REMARK    4  A    between atoms: C_19  and  C_18 
REMARK    5  A    between atoms: C_25  and  C_20 
REMARK    6  A    between atoms: C_24  and  O_29 
REMARK    7  A    between atoms: C_27  and  O_30 
ROOT
HETATM    1  C   UNK N   1      30.705  24.230  -5.841  0.00  0.00     0.016 C 
HETATM    2  C   UNK N   1      30.908  23.263  -3.008  0.00  0.00     0.005 C 
HETATM    3  C   UNK N   1      30.823  21.739  -3.240  0.00  0.00     0.034 C 
HETATM    4  C   UNK N   1      31.211  20.554  -5.423  0.00  0.00     0.004 C 
HETATM    5  C   UNK N   1      28.033  23.261  -6.953  0.00  0.00     0.007 C 
HETATM    6  C   UNK N   1      28.943  22.050  -6.705  0.00  0.00     0.010 C 
HETATM    7  C   UNK N   1      29.683  24.027  -3.573  0.00  0.00     0.010 C 
HETATM    8  C   UNK N   1      30.528  21.454  -4.692  0.00  0.00    -0.075 C 
HETATM    9  C   UNK N   1      28.193  24.221  -5.751  0.00  0.00     0.002 C 
HETATM   10  C   UNK N   1      29.351  22.200  -5.251  0.00  0.00     0.023 C 
HETATM   11  C   UNK N   1      29.485  23.703  -5.064  0.00  0.00    -0.032 C 
ENDROOT
BRANCH   4  12
HETATM   12  C   UNK N   1      32.253  19.669  -4.844  0.00  0.00     0.008 C 
HETATM   13  C   UNK N   1      33.569  19.937  -4.997  0.00  0.00    -0.048 C 
HETATM   14  C   UNK N   1      34.044  21.190  -5.688  0.00  0.00     0.071 C 
HETATM   15  C   UNK N   1      34.644  18.994  -4.586  0.00  0.00    -0.033 C 
HETATM   16  C   UNK N   1      34.985  20.852  -6.852  0.00  0.00     0.125 C 
HETATM   17  C   UNK N   1      35.971  19.699  -6.542  0.00  0.00     0.068 C 
HETATM   18  C   UNK N   1      36.044  19.337  -5.050  0.00  0.00     0.153 C 
HETATM   19  C   UNK N   1      34.371  17.809  -4.023  0.00  0.00     0.022 C 
BRANCH  16  20
HETATM   20  O   UNK N   1      35.704  21.999  -7.189  0.00  0.00    -0.395 OA
HETATM   21  H   UNK N   1      36.638  22.057  -7.445  0.00  0.00     0.210 HD
ENDBRANCH  16  20
BRANCH  18  22
HETATM   22  O   UNK N   1      36.932  18.274  -4.869  0.00  0.00    -0.391 OA
HETATM   23  H   UNK N   1      36.706  17.334  -4.954  0.00  0.00     0.210 HD
ENDBRANCH  18  22
ENDBRANCH   4  12
BRANCH   9  24
HETATM   24  C   UNK N   1      26.885  24.293  -4.883  0.00  0.00     0.008 C 
HETATM   25  C   UNK N   1      25.647  23.687  -5.531  0.00  0.00     0.014 C 
BRANCH  24  26
HETATM   26  C   UNK N   1      26.530  25.721  -4.529  0.00  0.00    -0.026 C 
HETATM   27  C   UNK N   1      26.644  26.734  -5.400  0.00  0.00    -0.026 C 
BRANCH  27  28
HETATM   28  C   UNK N   1      26.261  28.150  -5.011  0.00  0.00     0.007 C 
HETATM   29  C   UNK N   1      25.709  28.152  -3.595  0.00  0.00     0.014 C 
BRANCH  28  30
HETATM   30  C   UNK N   1      27.435  29.155  -5.081  0.00  0.00    -0.015 C 
HETATM   31  C   UNK N   1      28.041  29.257  -6.473  0.00  0.00     0.010 C 
HETATM   32  C   UNK N   1      27.092  30.545  -4.572  0.00  0.00     0.010 C 
ENDBRANCH  28  30
ENDBRANCH  27  28
ENDBRANCH  24  26
ENDBRANCH   9  24
TORSDOF 7
ENDMDL
MODEL 9
REMARK VINA RESULT:      -7.3      9.396     15.406
REMARK  7 active torsions:
REMARK  status: ('A' for Active; 'I' for Inactive)
REMARK    1  A    between atoms: C_19  and  C_9 
REMARK    2  A    between atoms: C_20  and  C_10 
REMARK    3  A    between atoms: C_12  and  C_11 
REMARK    4  A    between atoms: C_19  and  C_18 
REMARK    5  A    between atoms: C_25  and  C_20 
REMARK    6  A    between atoms: C_24  and  O_29 
REMARK    7  A    between atoms: C_27  and  O_30 
ROOT
HETATM    1  C   UNK N   1      37.448  11.428  14.046  0.00  0.00     0.016 C 
HETATM    2  C   UNK N   1      34.891   9.970  13.460  0.00  0.00     0.005 C 
HETATM    3  C   UNK N   1      34.208  10.994  12.528  0.00  0.00     0.034 C 
HETATM    4  C   UNK N   1      35.348  12.883  11.322  0.00  0.00     0.004 C 
HETATM    5  C   UNK N   1      36.712  14.071  15.383  0.00  0.00     0.007 C 
HETATM    6  C   UNK N   1      36.228  14.093  13.926  0.00  0.00     0.010 C 
HETATM    7  C   UNK N   1      35.248  10.563  14.847  0.00  0.00     0.010 C 
HETATM    8  C   UNK N   1      35.022  12.263  12.471  0.00  0.00    -0.075 C 
HETATM    9  C   UNK N   1      36.396  12.671  15.960  0.00  0.00     0.002 C 
HETATM   10  C   UNK N   1      35.383  12.838  13.811  0.00  0.00     0.023 C 
HETATM   11  C   UNK N   1      36.108  11.829  14.689  0.00  0.00    -0.032 C 
ENDROOT
BRANCH   4  12
HETATM   12  C   UNK N   1      34.844  12.440   9.996  0.00  0.00     0.008 C 
HETATM   13  C   UNK N   1      34.308  13.317   9.119  0.00  0.00    -0.048 C 
HETATM   14  C   UNK N   1      34.271  14.797   9.404  0.00  0.00     0.071 C 
HETATM   15  C   UNK N   1      33.637  12.898   7.859  0.00  0.00    -0.033 C 
HETATM   16  C   UNK N   1      32.839  15.339   9.311  0.00  0.00     0.125 C 
HETATM   17  C   UNK N   1      32.021  14.740   8.141  0.00  0.00     0.068 C 
HETATM   18  C   UNK N   1      32.877  13.979   7.117  0.00  0.00     0.153 C 
HETATM   19  C   UNK N   1      33.529  11.609   7.508  0.00  0.00     0.022 C 
BRANCH  16  20
HETATM   20  O   UNK N   1      32.897  16.726   9.173  0.00  0.00    -0.395 OA
HETATM   21  H   UNK N   1      32.586  17.396   9.802  0.00  0.00     0.210 HD
ENDBRANCH  16  20
BRANCH  18  22
HETATM   22  O   UNK N   1      32.056  13.451   6.118  0.00  0.00    -0.391 OA
HETATM   23  H   UNK N   1      31.546  12.629   6.188  0.00  0.00     0.210 HD
ENDBRANCH  18  22
ENDBRANCH   4  12
BRANCH   9  24
HETATM   24  C   UNK N   1      35.278  12.734  17.063  0.00  0.00     0.008 C 
HETATM   25  C   UNK N   1      35.217  14.037  17.847  0.00  0.00     0.014 C 
BRANCH  24  26
HETATM   26  C   UNK N   1      35.438  11.625  18.082  0.00  0.00    -0.026 C 
HETATM   27  C   UNK N   1      35.357  11.838  19.403  0.00  0.00    -0.026 C 
BRANCH  27  28
HETATM   28  C   UNK N   1      35.505  10.696  20.391  0.00  0.00     0.007 C 
HETATM   29  C   UNK N   1      34.614   9.540  19.965  0.00  0.00     0.014 C 
BRANCH  28  30
HETATM   30  C   UNK N   1      36.954  10.174  20.527  0.00  0.00    -0.015 C 
HETATM   31  C   UNK N   1      37.390  10.012  21.976  0.00  0.00     0.010 C 
HETATM   32  C   UNK N   1      37.222   8.885  19.768  0.00  0.00     0.010 C 
ENDBRANCH  28  30
ENDBRANCH  27  28
ENDBRANCH  24  26
ENDBRANCH   9  24
TORSDOF 7
ENDMDL
