MODEL 1
REMARK VINA RESULT:      -7.4      0.000      0.000
REMARK WARNING: 32 MAX_TORS EXCEEDED!!!
REMARK  46 active torsions:
REMARK  status: ('A' for Active; 'I' for Inactive)
REMARK    1  A    between atoms: C_9  and  C_13 
REMARK    2  A    between atoms: C_12  and  N_11 
REMARK       I    between atoms: N_11  and  C_14 
REMARK    3  A    between atoms: C_12  and  C_13 
REMARK    4  A    between atoms: C_12  and  C_16 
REMARK       I    between atoms: N_15  and  C_16 
REMARK    5  A    between atoms: N_15  and  C_19 
REMARK    6  A    between atoms: C_18  and  C_19 
REMARK       I    between atoms: C_18  and  N_22 
REMARK    7  A    between atoms: C_19  and  C_32 
REMARK    8  A    between atoms: C_21  and  C_20 
REMARK    9  A    between atoms: C_20  and  C_81 
REMARK   10  A    between atoms: C_21  and  N_22 
REMARK   11  A    between atoms: C_21  and  C_24 
REMARK       I    between atoms: N_23  and  C_24 
REMARK   12  A    between atoms: N_23  and  C_27 
REMARK   13  A    between atoms: C_26  and  C_27 
REMARK       I    between atoms: C_26  and  N_30 
REMARK   14  A    between atoms: C_27  and  C_90 
REMARK   15  A    between atoms: C_29  and  C_28 
REMARK   16  A    between atoms: C_28  and  C_74 
REMARK   17  A    between atoms: C_29  and  N_30 
REMARK   18  A    between atoms: C_29  and  C_35 
REMARK   19  A    between atoms: C_32  and  C_56 
REMARK       I    between atoms: N_34  and  C_35 
REMARK   20  A    between atoms: N_34  and  C_38 
REMARK   21  A    between atoms: C_37  and  C_38 
REMARK       I    between atoms: C_37  and  N_41 
REMARK   22  A    between atoms: C_38  and  C_88 
REMARK   23  A    between atoms: C_40  and  C_39 
REMARK   24  A    between atoms: C_39  and  C_71 
REMARK   25  A    between atoms: C_40  and  N_41 
REMARK   26  A    between atoms: C_40  and  C_43 
REMARK       I    between atoms: N_42  and  C_43 
REMARK   27  A    between atoms: N_42  and  C_46 
REMARK   28  A    between atoms: C_45  and  C_46 
REMARK       I    between atoms: C_45  and  N_49 
REMARK   29  A    between atoms: C_46  and  C_92 
REMARK   30  A    between atoms: C_50  and  C_63 
REMARK       I    between atoms: C_63  and  N_65 
REMARK   31  A    between atoms: N_65  and  C_66 
REMARK   32  A    between atoms: C_66  and  C_67 
REMARK       I    between atoms: C_67  and  N_68 
REMARK   33  A    between atoms: C_77  and  O_80 
REMARK   34  A    between atoms: C_88  and  C_89 
REMARK   35  A    between atoms: C_89  and  C_94 
REMARK   36  A    between atoms: C_90  and  O_91 
REMARK   37  A    between atoms: C_92  and  C_93 
REMARK   38  A    between atoms: C_93  and  C_105 
REMARK   39  A    between atoms: C_94  and  C_95 
REMARK   40  A    between atoms: C_95  and  N_96 
REMARK       I    between atoms: C_98  and  N_99 
REMARK       I    between atoms: C_98  and  N_100 
REMARK   41  A    between atoms: N_99  and  C_101 
REMARK   42  A    between atoms: N_100  and  C_103 
REMARK   43  A    between atoms: C_105  and  C_106 
REMARK   44  A    between atoms: C_106  and  N_107 
REMARK       I    between atoms: C_109  and  N_110 
REMARK       I    between atoms: C_109  and  N_113 
REMARK   45  A    between atoms: N_110  and  C_111 
REMARK   46  A    between atoms: N_113  and  C_114 
ROOT
HETATM    1  N   UNK N   1      26.695  13.457   5.021  0.00  0.00    -0.346 N 
HETATM    2  C   UNK N   1      25.890  13.827   6.038  0.00  0.00     0.241 C 
HETATM    3  O   UNK N   1      25.843  15.006   6.373  0.00  0.00    -0.271 OA
HETATM    4  H   UNK N   1      26.585  12.577   4.594  0.00  0.00     0.163 HD
ENDROOT
BRANCH   2   5
HETATM    5  C   UNK N   1      25.048  12.808   6.760  0.00  0.00     0.180 C 
BRANCH   5   6
HETATM    6  C   UNK N   1      24.034  13.554   7.641  0.00  0.00     0.073 C 
BRANCH   6   7
HETATM    7  C   UNK N   1      23.754  13.045   9.013  0.00  0.00    -0.056 A 
HETATM    8  C   UNK N   1      22.419  12.989   9.420  0.00  0.00     0.010 A 
HETATM    9  C   UNK N   1      22.083  12.486  10.676  0.00  0.00     0.037 A 
HETATM   10  C   UNK N   1      23.085  12.027  11.532  0.00  0.00     0.065 A 
HETATM   11  C   UNK N   1      24.425  12.077  11.130  0.00  0.00     0.037 A 
HETATM   12  C   UNK N   1      24.762  12.586   9.869  0.00  0.00     0.010 A 
BRANCH  10  13
HETATM   13  O   UNK N   1      22.761  11.536  12.738  0.00  0.00    -0.361 OA
HETATM   14  H   UNK N   1      22.425  10.666  12.830  0.00  0.00     0.217 HD
ENDBRANCH  10  13
ENDBRANCH   6   7
ENDBRANCH   5   6
BRANCH   5  15
HETATM   15  N   UNK N   1      24.384  12.054   5.727  0.00  0.00    -0.346 N 
HETATM   16  C   UNK N   1      23.759  10.885   6.007  0.00  0.00     0.243 C 
HETATM   17  O   UNK N   1      24.022  10.272   7.035  0.00  0.00    -0.271 OA
HETATM   18  H   UNK N   1      24.385  12.394   4.804  0.00  0.00     0.163 HD
BRANCH  16  19
HETATM   19  C   UNK N   1      22.607  10.447   5.163  0.00  0.00     0.200 C 
BRANCH  19  20
HETATM   20  N   UNK N   1      22.881   9.100   4.700  0.00  0.00    -0.344 N 
HETATM   21  C   UNK N   1      22.831   8.714   3.393  0.00  0.00     0.241 C 
HETATM   22  O   UNK N   1      23.254   7.612   3.090  0.00  0.00    -0.271 OA
HETATM   23  H   UNK N   1      23.119   8.421   5.372  0.00  0.00     0.163 HD
BRANCH  21  24
HETATM   24  C   UNK N   1      22.257   9.596   2.300  0.00  0.00     0.180 C 
BRANCH  24  25
HETATM   25  C   UNK N   1      20.716   9.612   2.414  0.00  0.00     0.074 C 
BRANCH  25  26
HETATM   26  C   UNK N   1      19.938  10.854   2.062  0.00  0.00    -0.040 A 
HETATM   27  C   UNK N   1      19.946  11.314   0.741  0.00  0.00     0.010 A 
HETATM   28  C   UNK N   1      19.321  12.520   0.416  0.00  0.00     0.018 A 
HETATM   29  C   UNK N   1      18.703  13.262   1.425  0.00  0.00     0.087 A 
HETATM   30  N   UNK N   1      18.716  12.811   2.708  0.00  0.00    -0.375 N 
HETATM   31  C   UNK N   1      19.326  11.642   3.042  0.00  0.00     0.094 A 
ATOM     32  HN  UNK N   1      18.258  13.361   3.435  1.00  0.00     0.164 HD
ENDBRANCH  25  26
ENDBRANCH  24  25
BRANCH  24  33
HETATM   33  N   UNK N   1      22.782   9.273   0.984  0.00  0.00    -0.346 N 
HETATM   34  C   UNK N   1      23.764   9.978   0.347  0.00  0.00     0.241 C 
HETATM   35  O   UNK N   1      24.124   9.616  -0.760  0.00  0.00    -0.271 OA
HETATM   36  H   UNK N   1      22.402   8.493   0.517  0.00  0.00     0.163 HD
BRANCH  34  37
HETATM   37  C   UNK N   1      24.337  11.267   0.895  0.00  0.00     0.180 C 
BRANCH  37  38
HETATM   38  N   UNK N   1      25.765  11.132   0.909  0.00  0.00    -0.346 N 
HETATM   39  C   UNK N   1      26.416  10.853   2.054  0.00  0.00     0.241 C 
HETATM   40  O   UNK N   1      25.841  10.916   3.131  0.00  0.00    -0.271 OA
HETATM   41  H   UNK N   1      26.273  11.243   0.074  0.00  0.00     0.163 HD
BRANCH  39  42
HETATM   42  C   UNK N   1      27.759  10.234   1.974  0.00  0.00     0.180 C 
BRANCH  42  43
HETATM   43  N   UNK N   1      28.091   9.644   3.247  0.00  0.00    -0.348 N 
HETATM   44  C   UNK N   1      29.359   9.624   3.711  0.00  0.00     0.214 C 
HETATM   45  C   UNK N   1      29.640   9.057   5.057  0.00  0.00     0.117 C 
HETATM   46  O   UNK N   1      30.277  10.071   3.041  0.00  0.00    -0.274 OA
HETATM   47  H   UNK N   1      27.374   9.246   3.793  0.00  0.00     0.163 HD
ENDBRANCH  42  43
BRANCH  42  48
HETATM   48  C   UNK N   1      27.917   9.229   0.857  0.00  0.00     0.073 C 
BRANCH  48  49
HETATM   49  C   UNK N   1      28.900   9.815  -0.093  0.00  0.00    -0.055 A 
HETATM   50  C   UNK N   1      29.272  11.164   0.030  0.00  0.00     0.008 A 
HETATM   51  C   UNK N   1      30.139  11.744  -0.896  0.00  0.00     0.013 A 
HETATM   52  C   UNK N   1      30.646  10.976  -1.943  0.00  0.00    -0.026 A 
HETATM   53  C   UNK N   1      31.515  11.549  -2.874  0.00  0.00     0.012 A 
HETATM   54  C   UNK N   1      30.283   9.613  -2.062  0.00  0.00    -0.025 A 
HETATM   55  C   UNK N   1      32.028  10.773  -3.917  0.00  0.00     0.001 A 
HETATM   56  C   UNK N   1      31.674   9.424  -4.031  0.00  0.00     0.001 A 
HETATM   57  C   UNK N   1      30.801   8.845  -3.106  0.00  0.00     0.012 A 
HETATM   58  C   UNK N   1      29.407   9.042  -1.138  0.00  0.00     0.019 A 
ENDBRANCH  48  49
ENDBRANCH  42  48
ENDBRANCH  39  42
ENDBRANCH  37  38
BRANCH  37  59
HETATM   59  C   UNK N   1      23.895  12.572   0.240  0.00  0.00     0.073 C 
BRANCH  59  60
HETATM   60  C   UNK N   1      23.056  13.332   1.210  0.00  0.00    -0.056 A 
HETATM   61  C   UNK N   1      23.020  12.940   2.552  0.00  0.00     0.009 A 
HETATM   62  C   UNK N   1      22.321  13.708   3.487  0.00  0.00     0.024 A 
HETATM   63  C   UNK N   1      21.664  14.873   3.081  0.00  0.00     0.034 A 
HETATM   64  C   UNK N   1      21.686  15.259   1.738  0.00  0.00     0.024 A 
HETATM   65 Cl   UNK N   1      20.832  15.862   4.261  0.00  0.00    -0.084 Cl
HETATM   66  C   UNK N   1      22.384  14.491   0.803  0.00  0.00     0.009 A 
ENDBRANCH  59  60
ENDBRANCH  37  59
ENDBRANCH  34  37
ENDBRANCH  24  33
ENDBRANCH  21  24
ENDBRANCH  19  20
BRANCH  19  67
HETATM   67  C   UNK N   1      21.346  10.420   6.016  0.00  0.00     0.199 C 
BRANCH  67  68
HETATM   68  O   UNK N   1      20.902  11.711   6.314  0.00  0.00    -0.398 OA
HETATM   69  H   UNK N   1      20.304  12.467   6.204  0.00  0.00     0.209 HD
ENDBRANCH  67  68
ENDBRANCH  19  67
ENDBRANCH  16  19
ENDBRANCH   5  15
ENDBRANCH   2   5
BRANCH   1  70
HETATM   70  C   UNK N   1      27.720  14.366   4.565  0.00  0.00     0.176 C 
BRANCH  70  71
HETATM   71  C   UNK N   1      29.019  13.838   5.135  0.00  0.00     0.241 C 
HETATM   72  O   UNK N   1      29.279  12.653   5.023  0.00  0.00    -0.271 OA
HETATM   73  N   UNK N   1      29.959  14.686   5.641  0.00  0.00    -0.346 N 
HETATM   74  H   UNK N   1      30.836  14.323   5.906  0.00  0.00     0.163 HD
BRANCH  73  75
HETATM   75  C   UNK N   1      29.711  16.108   5.802  0.00  0.00     0.177 C 
BRANCH  75  76
HETATM   76  C   UNK N   1      28.477  16.461   6.621  0.00  0.00     0.038 C 
BRANCH  76  77
HETATM   77  C   UNK N   1      28.697  17.573   7.625  0.00  0.00    -0.020 C 
HETATM   78  C   UNK N   1      27.851  17.325   8.860  0.00  0.00     0.009 C 
HETATM   79  C   UNK N   1      30.156  17.573   8.029  0.00  0.00     0.009 C 
ENDBRANCH  76  77
ENDBRANCH  75  76
BRANCH  75  80
HETATM   80  C   UNK N   1      29.927  16.933   4.556  0.00  0.00     0.241 C 
HETATM   81  N   UNK N   1      31.160  17.157   4.027  0.00  0.00    -0.346 N 
HETATM   82  H   UNK N   1      31.233  17.805   3.290  0.00  0.00     0.163 HD
HETATM   83  O   UNK N   1      28.960  17.478   4.050  0.00  0.00    -0.271 OA
BRANCH  81  84
HETATM   84  C   UNK N   1      32.373  16.502   4.475  0.00  0.00     0.176 C 
BRANCH  84  85
HETATM   85  C   UNK N   1      33.137  15.786   3.371  0.00  0.00     0.243 C 
HETATM   86  O   UNK N   1      33.297  16.379   2.321  0.00  0.00    -0.271 OA
HETATM   87  N   UNK N   1      33.488  14.464   3.473  0.00  0.00    -0.337 N 
HETATM   88  C   UNK N   1      33.628  13.677   2.272  0.00  0.00     0.179 C 
HETATM   89  C   UNK N   1      33.206  13.669   4.632  0.00  0.00     0.127 C 
HETATM   90  C   UNK N   1      32.798  12.447   2.603  0.00  0.00     0.037 C 
HETATM   91  C   UNK N   1      32.767  12.323   4.114  0.00  0.00     0.022 C 
BRANCH  88  92
HETATM   92  C   UNK N   1      35.053  13.293   1.939  0.00  0.00     0.241 C 
HETATM   93  O   UNK N   1      35.945  13.481   2.747  0.00  0.00    -0.271 OA
HETATM   94  N   UNK N   1      35.359  12.735   0.736  0.00  0.00    -0.346 N 
HETATM   95  H   UNK N   1      36.300  12.528   0.535  0.00  0.00     0.163 HD
BRANCH  94  96
HETATM   96  C   UNK N   1      34.351  12.433  -0.262  0.00  0.00     0.172 C 
HETATM   97  C   UNK N   1      34.602  13.208  -1.545  0.00  0.00     0.042 C 
BRANCH  96  98
HETATM   98  C   UNK N   1      34.227  10.963  -0.525  0.00  0.00     0.237 C 
HETATM   99  N   UNK N   1      35.000  10.388  -1.467  0.00  0.00    -0.368 N 
HETATM  100  H   UNK N   1      35.173   9.420  -1.437  0.00  0.00     0.159 HD
HETATM  101  H   UNK N   1      35.392  10.937  -2.184  0.00  0.00     0.159 HD
HETATM  102  O   UNK N   1      33.407  10.290   0.078  0.00  0.00    -0.271 OA
ENDBRANCH  96  98
ENDBRANCH  94  96
ENDBRANCH  88  92
ENDBRANCH  84  85
BRANCH  84 103
HETATM  103  C   UNK N   1      33.371  17.479   5.093  0.00  0.00     0.035 C 
BRANCH 103 104
HETATM  104  C   UNK N   1      34.035  16.987   6.365  0.00  0.00     0.004 C 
BRANCH 104 105
HETATM  105  C   UNK N   1      34.096  18.112   7.390  0.00  0.00     0.020 C 
BRANCH 105 106
HETATM  106  C   UNK N   1      33.686  17.648   8.784  0.00  0.00     0.138 C 
BRANCH 106 107
HETATM  107  N   UNK N   1      34.833  17.194   9.536  0.00  0.00    -0.227 N 
HETATM  108  C   UNK N   1      34.960  16.026  10.090  0.00  0.00     0.669 C 
HETATM  109  N   UNK N   1      36.155  15.747  10.799  0.00  0.00    -0.227 N 
HETATM  110  N   UNK N   1      33.944  15.018  10.040  0.00  0.00    -0.227 N 
HETATM  111  H   UNK N   1      36.865  16.428  10.827  0.00  0.00     0.177 HD
HETATM  112  H   UNK N   1      34.141  14.165  10.492  0.00  0.00     0.177 HD
ATOM    113  HN  UNK N   1      35.610  17.846   9.642  1.00  0.00     0.177 HD
BRANCH 109 114
HETATM  114  C   UNK N   1      36.360  14.494  11.478  0.00  0.00     0.133 C 
HETATM  115  C   UNK N   1      36.093  14.667  12.960  0.00  0.00     0.027 C 
ENDBRANCH 109 114
BRANCH 110 116
HETATM  116  C   UNK N   1      32.664  15.131   9.393  0.00  0.00     0.133 C 
HETATM  117  C   UNK N   1      32.583  14.124   8.266  0.00  0.00     0.027 C 
ENDBRANCH 110 116
ENDBRANCH 106 107
ENDBRANCH 105 106
ENDBRANCH 104 105
ENDBRANCH 103 104
ENDBRANCH  84 103
ENDBRANCH  81  84
ENDBRANCH  75  80
ENDBRANCH  73  75
ENDBRANCH  70  71
BRANCH  70 118
HETATM  118  C   UNK N   1      27.738  14.436   3.046  0.00  0.00     0.035 C 
BRANCH 118 119
HETATM  119  C   UNK N   1      26.329  14.435   2.489  0.00  0.00     0.004 C 
BRANCH 119 120
HETATM  120  C   UNK N   1      25.902  15.860   2.212  0.00  0.00     0.020 C 
BRANCH 120 121
HETATM  121  C   UNK N   1      25.032  16.348   3.347  0.00  0.00     0.138 C 
BRANCH 121 122
HETATM  122  N   UNK N   1      25.824  17.128   4.266  0.00  0.00    -0.227 N 
HETATM  123  C   UNK N   1      25.587  18.376   4.479  0.00  0.00     0.669 C 
HETATM  124  N   UNK N   1      26.441  19.090   5.364  0.00  0.00    -0.227 N 
HETATM  125  N   UNK N   1      24.492  19.015   3.824  0.00  0.00    -0.227 N 
HETATM  126  H   UNK N   1      27.335  18.722   5.555  0.00  0.00     0.177 HD
HETATM  127  H   UNK N   1      23.708  18.475   3.572  0.00  0.00     0.177 HD
ATOM    128  HN  UNK N   1      26.594  16.679   4.760  1.00  0.00     0.177 HD
BRANCH 124 129
HETATM  129  C   UNK N   1      26.057  20.327   5.993  0.00  0.00     0.133 C 
HETATM  130  C   UNK N   1      27.235  21.275   6.021  0.00  0.00     0.027 C 
ENDBRANCH 124 129
BRANCH 125 131
HETATM  131  C   UNK N   1      24.493  20.423   3.518  0.00  0.00     0.133 C 
HETATM  132  C   UNK N   1      25.443  20.723   2.379  0.00  0.00     0.027 C 
ENDBRANCH 125 131
ENDBRANCH 121 122
ENDBRANCH 120 121
ENDBRANCH 119 120
ENDBRANCH 118 119
ENDBRANCH  70 118
ENDBRANCH   1  70
TORSDOF 46
ENDMDL
MODEL 2
REMARK VINA RESULT:      -7.3      2.909      8.188
REMARK WARNING: 32 MAX_TORS EXCEEDED!!!
REMARK  46 active torsions:
REMARK  status: ('A' for Active; 'I' for Inactive)
REMARK    1  A    between atoms: C_9  and  C_13 
REMARK    2  A    between atoms: C_12  and  N_11 
REMARK       I    between atoms: N_11  and  C_14 
REMARK    3  A    between atoms: C_12  and  C_13 
REMARK    4  A    between atoms: C_12  and  C_16 
REMARK       I    between atoms: N_15  and  C_16 
REMARK    5  A    between atoms: N_15  and  C_19 
REMARK    6  A    between atoms: C_18  and  C_19 
REMARK       I    between atoms: C_18  and  N_22 
REMARK    7  A    between atoms: C_19  and  C_32 
REMARK    8  A    between atoms: C_21  and  C_20 
REMARK    9  A    between atoms: C_20  and  C_81 
REMARK   10  A    between atoms: C_21  and  N_22 
REMARK   11  A    between atoms: C_21  and  C_24 
REMARK       I    between atoms: N_23  and  C_24 
REMARK   12  A    between atoms: N_23  and  C_27 
REMARK   13  A    between atoms: C_26  and  C_27 
REMARK       I    between atoms: C_26  and  N_30 
REMARK   14  A    between atoms: C_27  and  C_90 
REMARK   15  A    between atoms: C_29  and  C_28 
REMARK   16  A    between atoms: C_28  and  C_74 
REMARK   17  A    between atoms: C_29  and  N_30 
REMARK   18  A    between atoms: C_29  and  C_35 
REMARK   19  A    between atoms: C_32  and  C_56 
REMARK       I    between atoms: N_34  and  C_35 
REMARK   20  A    between atoms: N_34  and  C_38 
REMARK   21  A    between atoms: C_37  and  C_38 
REMARK       I    between atoms: C_37  and  N_41 
REMARK   22  A    between atoms: C_38  and  C_88 
REMARK   23  A    between atoms: C_40  and  C_39 
REMARK   24  A    between atoms: C_39  and  C_71 
REMARK   25  A    between atoms: C_40  and  N_41 
REMARK   26  A    between atoms: C_40  and  C_43 
REMARK       I    between atoms: N_42  and  C_43 
REMARK   27  A    between atoms: N_42  and  C_46 
REMARK   28  A    between atoms: C_45  and  C_46 
REMARK       I    between atoms: C_45  and  N_49 
REMARK   29  A    between atoms: C_46  and  C_92 
REMARK   30  A    between atoms: C_50  and  C_63 
REMARK       I    between atoms: C_63  and  N_65 
REMARK   31  A    between atoms: N_65  and  C_66 
REMARK   32  A    between atoms: C_66  and  C_67 
REMARK       I    between atoms: C_67  and  N_68 
REMARK   33  A    between atoms: C_77  and  O_80 
REMARK   34  A    between atoms: C_88  and  C_89 
REMARK   35  A    between atoms: C_89  and  C_94 
REMARK   36  A    between atoms: C_90  and  O_91 
REMARK   37  A    between atoms: C_92  and  C_93 
REMARK   38  A    between atoms: C_93  and  C_105 
REMARK   39  A    between atoms: C_94  and  C_95 
REMARK   40  A    between atoms: C_95  and  N_96 
REMARK       I    between atoms: C_98  and  N_99 
REMARK       I    between atoms: C_98  and  N_100 
REMARK   41  A    between atoms: N_99  and  C_101 
REMARK   42  A    between atoms: N_100  and  C_103 
REMARK   43  A    between atoms: C_105  and  C_106 
REMARK   44  A    between atoms: C_106  and  N_107 
REMARK       I    between atoms: C_109  and  N_110 
REMARK       I    between atoms: C_109  and  N_113 
REMARK   45  A    between atoms: N_110  and  C_111 
REMARK   46  A    between atoms: N_113  and  C_114 
ROOT
HETATM    1  N   UNK N   1      28.721  13.019   3.459  0.00  0.00    -0.346 N 
HETATM    2  C   UNK N   1      28.177  13.653   2.400  0.00  0.00     0.241 C 
HETATM    3  O   UNK N   1      28.844  13.813   1.383  0.00  0.00    -0.271 OA
HETATM    4  H   UNK N   1      28.148  12.685   4.188  0.00  0.00     0.163 HD
ENDROOT
BRANCH   2   5
HETATM    5  C   UNK N   1      26.759  14.160   2.454  0.00  0.00     0.180 C 
BRANCH   5   6
HETATM    6  C   UNK N   1      25.848  13.124   1.777  0.00  0.00     0.073 C 
BRANCH   6   7
HETATM    7  C   UNK N   1      26.046  11.679   2.076  0.00  0.00    -0.056 A 
HETATM    8  C   UNK N   1      26.708  10.907   1.118  0.00  0.00     0.010 A 
HETATM    9  C   UNK N   1      26.963   9.556   1.350  0.00  0.00     0.037 A 
HETATM   10  C   UNK N   1      26.563   8.970   2.552  0.00  0.00     0.065 A 
HETATM   11  C   UNK N   1      25.903   9.738   3.519  0.00  0.00     0.037 A 
HETATM   12  C   UNK N   1      25.645  11.094   3.283  0.00  0.00     0.010 A 
BRANCH  10  13
HETATM   13  O   UNK N   1      26.815   7.672   2.779  0.00  0.00    -0.361 OA
HETATM   14  H   UNK N   1      26.143   7.025   2.680  0.00  0.00     0.217 HD
ENDBRANCH  10  13
ENDBRANCH   6   7
ENDBRANCH   5   6
BRANCH   5  15
HETATM   15  N   UNK N   1      26.448  14.290   3.855  0.00  0.00    -0.346 N 
HETATM   16  C   UNK N   1      25.732  15.343   4.318  0.00  0.00     0.243 C 
HETATM   17  O   UNK N   1      25.627  16.363   3.646  0.00  0.00    -0.271 OA
HETATM   18  H   UNK N   1      26.760  13.602   4.485  0.00  0.00     0.163 HD
BRANCH  16  19
HETATM   19  C   UNK N   1      24.908  15.186   5.552  0.00  0.00     0.200 C 
BRANCH  19  20
HETATM   20  N   UNK N   1      24.412  13.823   5.587  0.00  0.00    -0.344 N 
HETATM   21  C   UNK N   1      23.142  13.478   5.944  0.00  0.00     0.241 C 
HETATM   22  O   UNK N   1      22.773  12.330   5.765  0.00  0.00    -0.271 OA
HETATM   23  H   UNK N   1      25.032  13.101   5.336  0.00  0.00     0.163 HD
BRANCH  21  24
HETATM   24  C   UNK N   1      22.171  14.462   6.569  0.00  0.00     0.180 C 
BRANCH  24  25
HETATM   25  C   UNK N   1      22.580  14.719   8.037  0.00  0.00     0.074 C 
BRANCH  25  26
HETATM   26  C   UNK N   1      22.638  13.581   9.024  0.00  0.00    -0.040 A 
HETATM   27  C   UNK N   1      21.490  13.246   9.749  0.00  0.00     0.010 A 
HETATM   28  C   UNK N   1      21.552  12.267  10.744  0.00  0.00     0.018 A 
HETATM   29  C   UNK N   1      22.771  11.642  11.012  0.00  0.00     0.087 A 
HETATM   30  N   UNK N   1      23.883  11.988  10.310  0.00  0.00    -0.375 N 
HETATM   31  C   UNK N   1      23.842  12.944   9.343  0.00  0.00     0.094 A 
ATOM     32  HN  UNK N   1      24.767  11.522  10.513  1.00  0.00     0.164 HD
ENDBRANCH  25  26
ENDBRANCH  24  25
BRANCH  24  33
HETATM   33  N   UNK N   1      20.782  14.087   6.365  0.00  0.00    -0.346 N 
HETATM   34  C   UNK N   1      20.009  14.515   5.321  0.00  0.00     0.241 C 
HETATM   35  O   UNK N   1      18.852  14.138   5.254  0.00  0.00    -0.271 OA
HETATM   36  H   UNK N   1      20.367  13.485   7.025  0.00  0.00     0.163 HD
BRANCH  34  37
HETATM   37  C   UNK N   1      20.483  15.541   4.315  0.00  0.00     0.180 C 
BRANCH  37  38
HETATM   38  N   UNK N   1      20.359  14.956   3.012  0.00  0.00    -0.346 N 
HETATM   39  C   UNK N   1      21.423  14.399   2.404  0.00  0.00     0.241 C 
HETATM   40  O   UNK N   1      22.551  14.563   2.847  0.00  0.00    -0.271 OA
HETATM   41  H   UNK N   1      19.485  14.960   2.558  0.00  0.00     0.163 HD
BRANCH  39  42
HETATM   42  C   UNK N   1      21.189  13.391   1.345  0.00  0.00     0.180 C 
BRANCH  42  43
HETATM   43  N   UNK N   1      19.948  13.684   0.672  0.00  0.00    -0.348 N 
HETATM   44  C   UNK N   1      18.924  12.803   0.657  0.00  0.00     0.214 C 
HETATM   45  C   UNK N   1      17.644  13.176   0.000  0.00  0.00     0.117 C 
HETATM   46  O   UNK N   1      19.036  11.706   1.183  0.00  0.00    -0.274 OA
HETATM   47  H   UNK N   1      19.844  14.548   0.211  0.00  0.00     0.163 HD
ENDBRANCH  42  43
BRANCH  42  48
HETATM   48  C   UNK N   1      22.321  13.253   0.354  0.00  0.00     0.073 C 
BRANCH  48  49
HETATM   49  C   UNK N   1      22.747  11.829   0.406  0.00  0.00    -0.055 A 
HETATM   50  C   UNK N   1      23.427  11.263  -0.686  0.00  0.00     0.008 A 
HETATM   51  C   UNK N   1      23.770   9.912  -0.679  0.00  0.00     0.013 A 
HETATM   52  C   UNK N   1      23.444   9.121   0.422  0.00  0.00    -0.026 A 
HETATM   53  C   UNK N   1      23.786   7.767   0.436  0.00  0.00     0.012 A 
HETATM   54  C   UNK N   1      22.771   9.692   1.529  0.00  0.00    -0.025 A 
HETATM   55  C   UNK N   1      23.465   6.980   1.546  0.00  0.00     0.001 A 
HETATM   56  C   UNK N   1      22.804   7.545   2.643  0.00  0.00     0.001 A 
HETATM   57  C   UNK N   1      22.455   8.899   2.634  0.00  0.00     0.012 A 
HETATM   58  C   UNK N   1      22.421  11.042   1.511  0.00  0.00     0.019 A 
ENDBRANCH  48  49
ENDBRANCH  42  48
ENDBRANCH  39  42
ENDBRANCH  37  38
BRANCH  37  59
HETATM   59  C   UNK N   1      19.861  16.932   4.378  0.00  0.00     0.073 C 
BRANCH  59  60
HETATM   60  C   UNK N   1      20.915  17.941   4.070  0.00  0.00    -0.056 A 
HETATM   61  C   UNK N   1      22.203  17.779   4.591  0.00  0.00     0.009 A 
HETATM   62  C   UNK N   1      23.222  18.661   4.223  0.00  0.00     0.024 A 
HETATM   63  C   UNK N   1      22.956  19.701   3.328  0.00  0.00     0.034 A 
HETATM   64  C   UNK N   1      21.666  19.874   2.818  0.00  0.00     0.024 A 
HETATM   65 Cl   UNK N   1      24.244  20.774   2.829  0.00  0.00    -0.084 Cl
HETATM   66  C   UNK N   1      20.646  18.992   3.186  0.00  0.00     0.009 A 
ENDBRANCH  59  60
ENDBRANCH  37  59
ENDBRANCH  34  37
ENDBRANCH  24  33
ENDBRANCH  21  24
ENDBRANCH  19  20
BRANCH  19  67
HETATM   67  C   UNK N   1      25.788  15.413   6.774  0.00  0.00     0.199 C 
BRANCH  67  68
HETATM   68  O   UNK N   1      27.135  15.530   6.419  0.00  0.00    -0.398 OA
HETATM   69  H   UNK N   1      28.086  15.488   6.606  0.00  0.00     0.209 HD
ENDBRANCH  67  68
ENDBRANCH  19  67
ENDBRANCH  16  19
ENDBRANCH   5  15
ENDBRANCH   2   5
BRANCH   1  70
HETATM   70  C   UNK N   1      30.151  12.836   3.513  0.00  0.00     0.176 C 
BRANCH  70  71
HETATM   71  C   UNK N   1      30.609  13.545   4.769  0.00  0.00     0.241 C 
HETATM   72  O   UNK N   1      29.775  14.004   5.530  0.00  0.00    -0.271 OA
HETATM   73  N   UNK N   1      31.924  13.556   5.130  0.00  0.00    -0.346 N 
HETATM   74  H   UNK N   1      32.176  13.933   6.003  0.00  0.00     0.163 HD
BRANCH  73  75
HETATM   75  C   UNK N   1      32.966  13.027   4.267  0.00  0.00     0.177 C 
BRANCH  75  76
HETATM   76  C   UNK N   1      33.739  11.844   4.836  0.00  0.00     0.038 C 
BRANCH  76  77
HETATM   77  C   UNK N   1      34.072  11.971   6.308  0.00  0.00    -0.020 C 
HETATM   78  C   UNK N   1      33.605  10.733   7.050  0.00  0.00     0.009 C 
HETATM   79  C   UNK N   1      35.575  12.084   6.451  0.00  0.00     0.009 C 
ENDBRANCH  76  77
ENDBRANCH  75  76
BRANCH  75  80
HETATM   80  C   UNK N   1      33.798  14.072   3.564  0.00  0.00     0.241 C 
HETATM   81  N   UNK N   1      33.886  15.358   4.003  0.00  0.00    -0.346 N 
HETATM   82  H   UNK N   1      34.343  16.010   3.424  0.00  0.00     0.163 HD
HETATM   83  O   UNK N   1      34.353  13.765   2.522  0.00  0.00    -0.271 OA
BRANCH  81  84
HETATM   84  C   UNK N   1      33.353  15.830   5.264  0.00  0.00     0.176 C 
BRANCH  84  85
HETATM   85  C   UNK N   1      34.334  15.750   6.424  0.00  0.00     0.243 C 
HETATM   86  O   UNK N   1      35.518  15.667   6.155  0.00  0.00    -0.271 OA
HETATM   87  N   UNK N   1      33.913  15.600   7.721  0.00  0.00    -0.337 N 
HETATM   88  C   UNK N   1      34.772  14.934   8.668  0.00  0.00     0.179 C 
HETATM   89  C   UNK N   1      32.529  15.553   8.091  0.00  0.00     0.127 C 
HETATM   90  C   UNK N   1      33.823  13.929   9.300  0.00  0.00     0.037 C 
HETATM   91  C   UNK N   1      32.419  14.481   9.145  0.00  0.00     0.022 C 
BRANCH  88  92
HETATM   92  C   UNK N   1      35.370  15.845   9.718  0.00  0.00     0.241 C 
HETATM   93  O   UNK N   1      34.908  16.955   9.904  0.00  0.00    -0.271 OA
HETATM   94  N   UNK N   1      36.431  15.438  10.467  0.00  0.00    -0.346 N 
HETATM   95  H   UNK N   1      36.821  16.066  11.118  0.00  0.00     0.163 HD
BRANCH  94  96
HETATM   96  C   UNK N   1      37.011  14.114  10.344  0.00  0.00     0.172 C 
HETATM   97  C   UNK N   1      38.328  14.163   9.585  0.00  0.00     0.042 C 
BRANCH  96  98
HETATM   98  C   UNK N   1      37.167  13.431  11.668  0.00  0.00     0.237 C 
HETATM   99  N   UNK N   1      36.814  14.078  12.796  0.00  0.00    -0.368 N 
HETATM  100  H   UNK N   1      36.601  13.567  13.610  0.00  0.00     0.159 HD
HETATM  101  H   UNK N   1      36.768  15.061  12.805  0.00  0.00     0.159 HD
HETATM  102  O   UNK N   1      37.643  12.310  11.738  0.00  0.00    -0.271 OA
ENDBRANCH  96  98
ENDBRANCH  94  96
ENDBRANCH  88  92
ENDBRANCH  84  85
BRANCH  84 103
HETATM  103  C   UNK N   1      32.913  17.291   5.203  0.00  0.00     0.035 C 
BRANCH 103 104
HETATM  104  C   UNK N   1      32.240  17.697   3.906  0.00  0.00     0.004 C 
BRANCH 104 105
HETATM  105  C   UNK N   1      31.027  16.811   3.648  0.00  0.00     0.020 C 
BRANCH 105 106
HETATM  106  C   UNK N   1      29.782  17.311   4.374  0.00  0.00     0.138 C 
BRANCH 106 107
HETATM  107  N   UNK N   1      29.856  17.020   5.787  0.00  0.00    -0.227 N 
HETATM  108  C   UNK N   1      29.157  17.598   6.715  0.00  0.00     0.669 C 
HETATM  109  N   UNK N   1      29.361  17.194   8.058  0.00  0.00    -0.227 N 
HETATM  110  N   UNK N   1      28.208  18.639   6.452  0.00  0.00    -0.227 N 
HETATM  111  H   UNK N   1      30.001  16.470   8.248  0.00  0.00     0.177 HD
HETATM  112  H   UNK N   1      27.728  19.010   7.228  0.00  0.00     0.177 HD
ATOM    113  HN  UNK N   1      30.516  16.299   6.081  1.00  0.00     0.177 HD
BRANCH 109 114
HETATM  114  C   UNK N   1      28.659  17.812   9.153  0.00  0.00     0.133 C 
HETATM  115  C   UNK N   1      29.612  18.686   9.943  0.00  0.00     0.027 C 
ENDBRANCH 109 114
BRANCH 110 116
HETATM  116  C   UNK N   1      27.889  19.193   5.164  0.00  0.00     0.133 C 
HETATM  117  C   UNK N   1      27.485  20.643   5.330  0.00  0.00     0.027 C 
ENDBRANCH 110 116
ENDBRANCH 106 107
ENDBRANCH 105 106
ENDBRANCH 104 105
ENDBRANCH 103 104
ENDBRANCH  84 103
ENDBRANCH  81  84
ENDBRANCH  75  80
ENDBRANCH  73  75
ENDBRANCH  70  71
BRANCH  70 118
HETATM  118  C   UNK N   1      30.502  11.356   3.523  0.00  0.00     0.035 C 
BRANCH 118 119
HETATM  119  C   UNK N   1      29.539  10.578   4.396  0.00  0.00     0.004 C 
BRANCH 119 120
HETATM  120  C   UNK N   1      30.320   9.815   5.442  0.00  0.00     0.020 C 
BRANCH 120 121
HETATM  121  C   UNK N   1      30.128   8.332   5.225  0.00  0.00     0.138 C 
BRANCH 121 122
HETATM  122  N   UNK N   1      28.719   8.032   5.143  0.00  0.00    -0.227 N 
HETATM  123  C   UNK N   1      28.144   7.232   5.970  0.00  0.00     0.669 C 
HETATM  124  N   UNK N   1      26.761   6.949   5.797  0.00  0.00    -0.227 N 
HETATM  125  N   UNK N   1      28.897   6.640   7.029  0.00  0.00    -0.227 N 
HETATM  126  H   UNK N   1      26.353   7.117   4.916  0.00  0.00     0.177 HD
HETATM  127  H   UNK N   1      29.678   7.123   7.385  0.00  0.00     0.177 HD
ATOM    128  HN  UNK N   1      28.163   8.467   4.407  1.00  0.00     0.177 HD
BRANCH 124 129
HETATM  129  C   UNK N   1      25.930   6.427   6.851  0.00  0.00     0.133 C 
HETATM  130  C   UNK N   1      24.803   7.392   7.140  0.00  0.00     0.027 C 
ENDBRANCH 124 129
BRANCH 125 131
HETATM  131  C   UNK N   1      28.555   5.360   7.596  0.00  0.00     0.133 C 
HETATM  132  C   UNK N   1      28.658   5.398   9.105  0.00  0.00     0.027 C 
ENDBRANCH 125 131
ENDBRANCH 121 122
ENDBRANCH 120 121
ENDBRANCH 119 120
ENDBRANCH 118 119
ENDBRANCH  70 118
ENDBRANCH   1  70
TORSDOF 46
ENDMDL
MODEL 3
REMARK VINA RESULT:      -7.1      3.086     11.861
REMARK WARNING: 32 MAX_TORS EXCEEDED!!!
REMARK  46 active torsions:
REMARK  status: ('A' for Active; 'I' for Inactive)
REMARK    1  A    between atoms: C_9  and  C_13 
REMARK    2  A    between atoms: C_12  and  N_11 
REMARK       I    between atoms: N_11  and  C_14 
REMARK    3  A    between atoms: C_12  and  C_13 
REMARK    4  A    between atoms: C_12  and  C_16 
REMARK       I    between atoms: N_15  and  C_16 
REMARK    5  A    between atoms: N_15  and  C_19 
REMARK    6  A    between atoms: C_18  and  C_19 
REMARK       I    between atoms: C_18  and  N_22 
REMARK    7  A    between atoms: C_19  and  C_32 
REMARK    8  A    between atoms: C_21  and  C_20 
REMARK    9  A    between atoms: C_20  and  C_81 
REMARK   10  A    between atoms: C_21  and  N_22 
REMARK   11  A    between atoms: C_21  and  C_24 
REMARK       I    between atoms: N_23  and  C_24 
REMARK   12  A    between atoms: N_23  and  C_27 
REMARK   13  A    between atoms: C_26  and  C_27 
REMARK       I    between atoms: C_26  and  N_30 
REMARK   14  A    between atoms: C_27  and  C_90 
REMARK   15  A    between atoms: C_29  and  C_28 
REMARK   16  A    between atoms: C_28  and  C_74 
REMARK   17  A    between atoms: C_29  and  N_30 
REMARK   18  A    between atoms: C_29  and  C_35 
REMARK   19  A    between atoms: C_32  and  C_56 
REMARK       I    between atoms: N_34  and  C_35 
REMARK   20  A    between atoms: N_34  and  C_38 
REMARK   21  A    between atoms: C_37  and  C_38 
REMARK       I    between atoms: C_37  and  N_41 
REMARK   22  A    between atoms: C_38  and  C_88 
REMARK   23  A    between atoms: C_40  and  C_39 
REMARK   24  A    between atoms: C_39  and  C_71 
REMARK   25  A    between atoms: C_40  and  N_41 
REMARK   26  A    between atoms: C_40  and  C_43 
REMARK       I    between atoms: N_42  and  C_43 
REMARK   27  A    between atoms: N_42  and  C_46 
REMARK   28  A    between atoms: C_45  and  C_46 
REMARK       I    between atoms: C_45  and  N_49 
REMARK   29  A    between atoms: C_46  and  C_92 
REMARK   30  A    between atoms: C_50  and  C_63 
REMARK       I    between atoms: C_63  and  N_65 
REMARK   31  A    between atoms: N_65  and  C_66 
REMARK   32  A    between atoms: C_66  and  C_67 
REMARK       I    between atoms: C_67  and  N_68 
REMARK   33  A    between atoms: C_77  and  O_80 
REMARK   34  A    between atoms: C_88  and  C_89 
REMARK   35  A    between atoms: C_89  and  C_94 
REMARK   36  A    between atoms: C_90  and  O_91 
REMARK   37  A    between atoms: C_92  and  C_93 
REMARK   38  A    between atoms: C_93  and  C_105 
REMARK   39  A    between atoms: C_94  and  C_95 
REMARK   40  A    between atoms: C_95  and  N_96 
REMARK       I    between atoms: C_98  and  N_99 
REMARK       I    between atoms: C_98  and  N_100 
REMARK   41  A    between atoms: N_99  and  C_101 
REMARK   42  A    between atoms: N_100  and  C_103 
REMARK   43  A    between atoms: C_105  and  C_106 
REMARK   44  A    between atoms: C_106  and  N_107 
REMARK       I    between atoms: C_109  and  N_110 
REMARK       I    between atoms: C_109  and  N_113 
REMARK   45  A    between atoms: N_110  and  C_111 
REMARK   46  A    between atoms: N_113  and  C_114 
ROOT
HETATM    1  N   UNK N   1      28.021  15.067   4.096  0.00  0.00    -0.346 N 
HETATM    2  C   UNK N   1      27.663  15.879   5.113  0.00  0.00     0.241 C 
HETATM    3  O   UNK N   1      26.627  15.655   5.730  0.00  0.00    -0.271 OA
HETATM    4  H   UNK N   1      28.939  15.090   3.740  0.00  0.00     0.163 HD
ENDROOT
BRANCH   2   5
HETATM    5  C   UNK N   1      28.528  17.051   5.499  0.00  0.00     0.180 C 
BRANCH   5   6
HETATM    6  C   UNK N   1      27.616  18.177   6.012  0.00  0.00     0.073 C 
BRANCH   6   7
HETATM    7  C   UNK N   1      26.755  18.910   5.043  0.00  0.00    -0.056 A 
HETATM    8  C   UNK N   1      27.380  19.812   4.178  0.00  0.00     0.010 A 
HETATM    9  C   UNK N   1      26.640  20.503   3.219  0.00  0.00     0.037 A 
HETATM   10  C   UNK N   1      25.265  20.287   3.115  0.00  0.00     0.065 A 
HETATM   11  C   UNK N   1      24.632  19.381   3.975  0.00  0.00     0.037 A 
HETATM   12  C   UNK N   1      25.376  18.691   4.940  0.00  0.00     0.010 A 
BRANCH  10  13
HETATM   13  O   UNK N   1      24.554  20.945   2.188  0.00  0.00    -0.361 OA
HETATM   14  H   UNK N   1      23.906  21.576   2.434  0.00  0.00     0.217 HD
ENDBRANCH  10  13
ENDBRANCH   6   7
ENDBRANCH   5   6
BRANCH   5  15
HETATM   15  N   UNK N   1      29.393  16.566   6.543  0.00  0.00    -0.346 N 
HETATM   16  C   UNK N   1      30.666  17.015   6.661  0.00  0.00     0.243 C 
HETATM   17  O   UNK N   1      31.219  17.564   5.715  0.00  0.00    -0.271 OA
HETATM   18  H   UNK N   1      29.054  15.898   7.181  0.00  0.00     0.163 HD
BRANCH  16  19
HETATM   19  C   UNK N   1      31.322  17.021   8.002  0.00  0.00     0.200 C 
BRANCH  19  20
HETATM   20  N   UNK N   1      32.336  18.058   7.997  0.00  0.00    -0.344 N 
HETATM   21  C   UNK N   1      33.673  17.823   8.128  0.00  0.00     0.241 C 
HETATM   22  O   UNK N   1      34.453  18.739   7.928  0.00  0.00    -0.271 OA
HETATM   23  H   UNK N   1      32.041  18.991   7.892  0.00  0.00     0.163 HD
BRANCH  21  24
HETATM   24  C   UNK N   1      34.232  16.470   8.526  0.00  0.00     0.180 C 
BRANCH  24  25
HETATM   25  C   UNK N   1      34.926  16.590   9.902  0.00  0.00     0.074 C 
BRANCH  25  26
HETATM   26  C   UNK N   1      35.472  15.366  10.591  0.00  0.00    -0.040 A 
HETATM   27  C   UNK N   1      34.636  14.624  11.432  0.00  0.00     0.010 A 
HETATM   28  C   UNK N   1      35.152  13.551  12.162  0.00  0.00     0.018 A 
HETATM   29  C   UNK N   1      36.508  13.239  12.052  0.00  0.00     0.087 A 
HETATM   30  N   UNK N   1      37.314  13.978  11.243  0.00  0.00    -0.375 N 
HETATM   31  C   UNK N   1      36.829  15.030  10.530  0.00  0.00     0.094 A 
ATOM     32  HN  UNK N   1      38.302  13.738  11.169  1.00  0.00     0.164 HD
ENDBRANCH  25  26
ENDBRANCH  24  25
BRANCH  24  33
HETATM   33  N   UNK N   1      35.030  15.860   7.476  0.00  0.00    -0.346 N 
HETATM   34  C   UNK N   1      34.619  14.815   6.698  0.00  0.00     0.241 C 
HETATM   35  O   UNK N   1      35.377  14.381   5.848  0.00  0.00    -0.271 OA
HETATM   36  H   UNK N   1      35.931  16.224   7.315  0.00  0.00     0.163 HD
BRANCH  34  37
HETATM   37  C   UNK N   1      33.315  14.082   6.930  0.00  0.00     0.180 C 
BRANCH  37  38
HETATM   38  N   UNK N   1      33.139  13.163   5.843  0.00  0.00    -0.346 N 
HETATM   39  C   UNK N   1      32.247  13.416   4.867  0.00  0.00     0.241 C 
HETATM   40  O   UNK N   1      31.427  14.314   4.988  0.00  0.00    -0.271 OA
HETATM   41  H   UNK N   1      33.677  12.339   5.810  0.00  0.00     0.163 HD
BRANCH  39  42
HETATM   42  C   UNK N   1      32.429  12.760   3.551  0.00  0.00     0.180 C 
BRANCH  42  43
HETATM   43  N   UNK N   1      33.836  12.686   3.246  0.00  0.00    -0.348 N 
HETATM   44  C   UNK N   1      34.436  13.589   2.441  0.00  0.00     0.214 C 
HETATM   45  C   UNK N   1      35.901  13.503   2.203  0.00  0.00     0.117 C 
HETATM   46  O   UNK N   1      33.790  14.479   1.910  0.00  0.00    -0.274 OA
HETATM   47  H   UNK N   1      34.374  11.957   3.634  0.00  0.00     0.163 HD
ENDBRANCH  42  43
BRANCH  42  48
HETATM   48  C   UNK N   1      31.779  11.402   3.436  0.00  0.00     0.073 C 
BRANCH  48  49
HETATM   49  C   UNK N   1      31.358  11.262   2.017  0.00  0.00    -0.055 A 
HETATM   50  C   UNK N   1      30.621  12.288   1.402  0.00  0.00     0.008 A 
HETATM   51  C   UNK N   1      30.159  12.139   0.095  0.00  0.00     0.013 A 
HETATM   52  C   UNK N   1      30.440  10.968  -0.608  0.00  0.00    -0.026 A 
HETATM   53  C   UNK N   1      29.983  10.812  -1.918  0.00  0.00     0.012 A 
HETATM   54  C   UNK N   1      31.194   9.938   0.004  0.00  0.00    -0.025 A 
HETATM   55  C   UNK N   1      30.275   9.641  -2.623  0.00  0.00     0.001 A 
HETATM   56  C   UNK N   1      31.025   8.625  -2.020  0.00  0.00     0.001 A 
HETATM   57  C   UNK N   1      31.482   8.772  -0.707  0.00  0.00     0.012 A 
HETATM   58  C   UNK N   1      31.644  10.089   1.316  0.00  0.00     0.019 A 
ENDBRANCH  48  49
ENDBRANCH  42  48
ENDBRANCH  39  42
ENDBRANCH  37  38
BRANCH  37  59
HETATM   59  C   UNK N   1      33.112  13.410   8.284  0.00  0.00     0.073 C 
BRANCH  59  60
HETATM   60  C   UNK N   1      33.950  12.178   8.335  0.00  0.00    -0.056 A 
HETATM   61  C   UNK N   1      33.383  10.940   8.015  0.00  0.00     0.009 A 
HETATM   62  C   UNK N   1      34.184   9.798   7.958  0.00  0.00     0.024 A 
HETATM   63  C   UNK N   1      35.555   9.893   8.214  0.00  0.00     0.034 A 
HETATM   64  C   UNK N   1      36.122  11.126   8.548  0.00  0.00     0.024 A 
HETATM   65 Cl   UNK N   1      36.566   8.470   8.093  0.00  0.00    -0.084 Cl
HETATM   66  C   UNK N   1      35.321  12.269   8.606  0.00  0.00     0.009 A 
ENDBRANCH  59  60
ENDBRANCH  37  59
ENDBRANCH  34  37
ENDBRANCH  24  33
ENDBRANCH  21  24
ENDBRANCH  19  20
BRANCH  19  67
HETATM   67  C   UNK N   1      30.285  17.362   9.064  0.00  0.00     0.199 C 
BRANCH  67  68
HETATM   68  O   UNK N   1      29.701  18.609   8.826  0.00  0.00    -0.398 OA
HETATM   69  H   UNK N   1      29.468  19.362   8.259  0.00  0.00     0.209 HD
ENDBRANCH  67  68
ENDBRANCH  19  67
ENDBRANCH  16  19
ENDBRANCH   5  15
ENDBRANCH   2   5
BRANCH   1  70
HETATM   70  C   UNK N   1      27.043  14.165   3.537  0.00  0.00     0.176 C 
BRANCH  70  71
HETATM   71  C   UNK N   1      26.561  14.822   2.260  0.00  0.00     0.241 C 
HETATM   72  O   UNK N   1      27.362  15.417   1.560  0.00  0.00    -0.271 OA
HETATM   73  N   UNK N   1      25.286  14.640   1.816  0.00  0.00    -0.346 N 
HETATM   74  H   UNK N   1      25.034  14.993   0.931  0.00  0.00     0.163 HD
BRANCH  73  75
HETATM   75  C   UNK N   1      24.285  13.942   2.603  0.00  0.00     0.177 C 
BRANCH  75  76
HETATM   76  C   UNK N   1      23.599  12.781   1.896  0.00  0.00     0.038 C 
BRANCH  76  77
HETATM   77  C   UNK N   1      24.352  12.258   0.690  0.00  0.00    -0.020 C 
HETATM   78  C   UNK N   1      25.197  11.063   1.091  0.00  0.00     0.009 C 
HETATM   79  C   UNK N   1      23.344  11.812  -0.349  0.00  0.00     0.009 C 
ENDBRANCH  76  77
ENDBRANCH  75  76
BRANCH  75  80
HETATM   80  C   UNK N   1      23.380  14.838   3.415  0.00  0.00     0.241 C 
HETATM   81  N   UNK N   1      22.283  14.372   4.071  0.00  0.00    -0.346 N 
HETATM   82  H   UNK N   1      21.674  15.033   4.474  0.00  0.00     0.163 HD
HETATM   83  O   UNK N   1      23.607  16.036   3.420  0.00  0.00    -0.271 OA
BRANCH  81  84
HETATM   84  C   UNK N   1      21.952  12.970   4.219  0.00  0.00     0.176 C 
BRANCH  84  85
HETATM   85  C   UNK N   1      22.009  12.464   5.652  0.00  0.00     0.243 C 
HETATM   86  O   UNK N   1      20.984  12.510   6.307  0.00  0.00    -0.271 OA
HETATM   87  N   UNK N   1      23.194  12.130   6.257  0.00  0.00    -0.337 N 
HETATM   88  C   UNK N   1      23.317  12.257   7.688  0.00  0.00     0.179 C 
HETATM   89  C   UNK N   1      24.457  12.185   5.581  0.00  0.00     0.127 C 
HETATM   90  C   UNK N   1      24.619  13.028   7.825  0.00  0.00     0.037 C 
HETATM   91  C   UNK N   1      25.436  12.751   6.578  0.00  0.00     0.022 C 
BRANCH  88  92
HETATM   92  C   UNK N   1      23.390  10.939   8.428  0.00  0.00     0.241 C 
HETATM   93  O   UNK N   1      23.628   9.908   7.826  0.00  0.00    -0.271 OA
HETATM   94  N   UNK N   1      23.189  10.886   9.774  0.00  0.00    -0.346 N 
HETATM   95  H   UNK N   1      23.207  10.010  10.221  0.00  0.00     0.163 HD
BRANCH  94  96
HETATM   96  C   UNK N   1      22.947  12.072  10.573  0.00  0.00     0.172 C 
HETATM   97  C   UNK N   1      21.482  12.180  10.963  0.00  0.00     0.042 C 
BRANCH  96  98
HETATM   98  C   UNK N   1      23.841  12.146  11.773  0.00  0.00     0.237 C 
HETATM   99  N   UNK N   1      23.299  12.180  13.006  0.00  0.00    -0.368 N 
HETATM  100  H   UNK N   1      23.833  11.908  13.786  0.00  0.00     0.159 HD
HETATM  101  H   UNK N   1      22.368  12.476  13.125  0.00  0.00     0.159 HD
HETATM  102  O   UNK N   1      25.053  12.214  11.643  0.00  0.00    -0.271 OA
ENDBRANCH  96  98
ENDBRANCH  94  96
ENDBRANCH  88  92
ENDBRANCH  84  85
BRANCH  84 103
HETATM  103  C   UNK N   1      20.541  12.647   3.730  0.00  0.00     0.035 C 
BRANCH 103 104
HETATM  104  C   UNK N   1      19.737  13.850   3.275  0.00  0.00     0.004 C 
BRANCH 104 105
HETATM  105  C   UNK N   1      18.784  14.288   4.380  0.00  0.00     0.020 C 
BRANCH 105 106
HETATM  106  C   UNK N   1      19.146  15.658   4.946  0.00  0.00     0.138 C 
BRANCH 106 107
HETATM  107  N   UNK N   1      19.284  16.634   3.890  0.00  0.00    -0.227 N 
HETATM  108  C   UNK N   1      20.190  17.562   3.833  0.00  0.00     0.669 C 
HETATM  109  N   UNK N   1      20.177  18.443   2.723  0.00  0.00    -0.227 N 
HETATM  110  N   UNK N   1      21.183  17.754   4.846  0.00  0.00    -0.227 N 
HETATM  111  H   UNK N   1      19.507  18.311   2.014  0.00  0.00     0.177 HD
HETATM  112  H   UNK N   1      21.826  18.488   4.705  0.00  0.00     0.177 HD
ATOM    113  HN  UNK N   1      18.612  16.590   3.123  1.00  0.00     0.177 HD
BRANCH 109 114
HETATM  114  C   UNK N   1      21.118  19.526   2.601  0.00  0.00     0.133 C 
HETATM  115  C   UNK N   1      20.933  20.217   1.265  0.00  0.00     0.027 C 
ENDBRANCH 109 114
BRANCH 110 116
HETATM  116  C   UNK N   1      21.334  16.979   6.049  0.00  0.00     0.133 C 
HETATM  117  C   UNK N   1      20.800  17.772   7.223  0.00  0.00     0.027 C 
ENDBRANCH 110 116
ENDBRANCH 106 107
ENDBRANCH 105 106
ENDBRANCH 104 105
ENDBRANCH 103 104
ENDBRANCH  84 103
ENDBRANCH  81  84
ENDBRANCH  75  80
ENDBRANCH  73  75
ENDBRANCH  70  71
BRANCH  70 118
HETATM  118  C   UNK N   1      27.657  12.796   3.288  0.00  0.00     0.035 C 
BRANCH 118 119
HETATM  119  C   UNK N   1      28.373  12.293   4.525  0.00  0.00     0.004 C 
BRANCH 119 120
HETATM  120  C   UNK N   1      28.501  10.788   4.447  0.00  0.00     0.020 C 
BRANCH 120 121
HETATM  121  C   UNK N   1      27.148  10.187   4.142  0.00  0.00     0.138 C 
BRANCH 121 122
HETATM  122  N   UNK N   1      26.793   9.243   5.173  0.00  0.00    -0.227 N 
HETATM  123  C   UNK N   1      25.637   8.676   5.208  0.00  0.00     0.669 C 
HETATM  124  N   UNK N   1      25.344   7.792   6.282  0.00  0.00    -0.227 N 
HETATM  125  N   UNK N   1      24.678   8.951   4.187  0.00  0.00    -0.227 N 
HETATM  126  H   UNK N   1      25.883   7.855   7.104  0.00  0.00     0.177 HD
HETATM  127  H   UNK N   1      24.997   9.200   3.289  0.00  0.00     0.177 HD
ATOM    128  HN  UNK N   1      27.476   9.018   5.895  1.00  0.00     0.177 HD
BRANCH 124 129
HETATM  129  C   UNK N   1      24.294   6.808   6.221  0.00  0.00     0.133 C 
HETATM  130  C   UNK N   1      23.905   6.387   7.620  0.00  0.00     0.027 C 
ENDBRANCH 124 129
BRANCH 125 131
HETATM  131  C   UNK N   1      23.259   8.877   4.424  0.00  0.00     0.133 C 
HETATM  132  C   UNK N   1      22.488   9.354   3.212  0.00  0.00     0.027 C 
ENDBRANCH 125 131
ENDBRANCH 121 122
ENDBRANCH 120 121
ENDBRANCH 119 120
ENDBRANCH 118 119
ENDBRANCH  70 118
ENDBRANCH   1  70
TORSDOF 46
ENDMDL
MODEL 4
REMARK VINA RESULT:      -6.9      2.576      8.120
REMARK WARNING: 32 MAX_TORS EXCEEDED!!!
REMARK  46 active torsions:
REMARK  status: ('A' for Active; 'I' for Inactive)
REMARK    1  A    between atoms: C_9  and  C_13 
REMARK    2  A    between atoms: C_12  and  N_11 
REMARK       I    between atoms: N_11  and  C_14 
REMARK    3  A    between atoms: C_12  and  C_13 
REMARK    4  A    between atoms: C_12  and  C_16 
REMARK       I    between atoms: N_15  and  C_16 
REMARK    5  A    between atoms: N_15  and  C_19 
REMARK    6  A    between atoms: C_18  and  C_19 
REMARK       I    between atoms: C_18  and  N_22 
REMARK    7  A    between atoms: C_19  and  C_32 
REMARK    8  A    between atoms: C_21  and  C_20 
REMARK    9  A    between atoms: C_20  and  C_81 
REMARK   10  A    between atoms: C_21  and  N_22 
REMARK   11  A    between atoms: C_21  and  C_24 
REMARK       I    between atoms: N_23  and  C_24 
REMARK   12  A    between atoms: N_23  and  C_27 
REMARK   13  A    between atoms: C_26  and  C_27 
REMARK       I    between atoms: C_26  and  N_30 
REMARK   14  A    between atoms: C_27  and  C_90 
REMARK   15  A    between atoms: C_29  and  C_28 
REMARK   16  A    between atoms: C_28  and  C_74 
REMARK   17  A    between atoms: C_29  and  N_30 
REMARK   18  A    between atoms: C_29  and  C_35 
REMARK   19  A    between atoms: C_32  and  C_56 
REMARK       I    between atoms: N_34  and  C_35 
REMARK   20  A    between atoms: N_34  and  C_38 
REMARK   21  A    between atoms: C_37  and  C_38 
REMARK       I    between atoms: C_37  and  N_41 
REMARK   22  A    between atoms: C_38  and  C_88 
REMARK   23  A    between atoms: C_40  and  C_39 
REMARK   24  A    between atoms: C_39  and  C_71 
REMARK   25  A    between atoms: C_40  and  N_41 
REMARK   26  A    between atoms: C_40  and  C_43 
REMARK       I    between atoms: N_42  and  C_43 
REMARK   27  A    between atoms: N_42  and  C_46 
REMARK   28  A    between atoms: C_45  and  C_46 
REMARK       I    between atoms: C_45  and  N_49 
REMARK   29  A    between atoms: C_46  and  C_92 
REMARK   30  A    between atoms: C_50  and  C_63 
REMARK       I    between atoms: C_63  and  N_65 
REMARK   31  A    between atoms: N_65  and  C_66 
REMARK   32  A    between atoms: C_66  and  C_67 
REMARK       I    between atoms: C_67  and  N_68 
REMARK   33  A    between atoms: C_77  and  O_80 
REMARK   34  A    between atoms: C_88  and  C_89 
REMARK   35  A    between atoms: C_89  and  C_94 
REMARK   36  A    between atoms: C_90  and  O_91 
REMARK   37  A    between atoms: C_92  and  C_93 
REMARK   38  A    between atoms: C_93  and  C_105 
REMARK   39  A    between atoms: C_94  and  C_95 
REMARK   40  A    between atoms: C_95  and  N_96 
REMARK       I    between atoms: C_98  and  N_99 
REMARK       I    between atoms: C_98  and  N_100 
REMARK   41  A    between atoms: N_99  and  C_101 
REMARK   42  A    between atoms: N_100  and  C_103 
REMARK   43  A    between atoms: C_105  and  C_106 
REMARK   44  A    between atoms: C_106  and  N_107 
REMARK       I    between atoms: C_109  and  N_110 
REMARK       I    between atoms: C_109  and  N_113 
REMARK   45  A    between atoms: N_110  and  C_111 
REMARK   46  A    between atoms: N_113  and  C_114 
ROOT
HETATM    1  N   UNK N   1      28.611  12.810   3.359  0.00  0.00    -0.346 N 
HETATM    2  C   UNK N   1      28.100  13.305   2.213  0.00  0.00     0.241 C 
HETATM    3  O   UNK N   1      28.778  13.285   1.191  0.00  0.00    -0.271 OA
HETATM    4  H   UNK N   1      28.022  12.611   4.123  0.00  0.00     0.163 HD
ENDROOT
BRANCH   2   5
HETATM    5  C   UNK N   1      26.706  13.875   2.178  0.00  0.00     0.180 C 
BRANCH   5   6
HETATM    6  C   UNK N   1      25.761  12.810   1.602  0.00  0.00     0.073 C 
BRANCH   6   7
HETATM    7  C   UNK N   1      25.944  11.387   2.001  0.00  0.00    -0.056 A 
HETATM    8  C   UNK N   1      25.423  10.992   3.236  0.00  0.00     0.010 A 
HETATM    9  C   UNK N   1      25.523   9.665   3.655  0.00  0.00     0.037 A 
HETATM   10  C   UNK N   1      26.141   8.722   2.833  0.00  0.00     0.065 A 
HETATM   11  C   UNK N   1      26.662   9.109   1.592  0.00  0.00     0.037 A 
HETATM   12  C   UNK N   1      26.563  10.443   1.174  0.00  0.00     0.010 A 
BRANCH  10  13
HETATM   13  O   UNK N   1      26.231   7.445   3.232  0.00  0.00    -0.361 OA
HETATM   14  H   UNK N   1      26.849   6.859   2.840  0.00  0.00     0.217 HD
ENDBRANCH  10  13
ENDBRANCH   6   7
ENDBRANCH   5   6
BRANCH   5  15
HETATM   15  N   UNK N   1      26.377  14.177   3.547  0.00  0.00    -0.346 N 
HETATM   16  C   UNK N   1      25.579  15.227   3.860  0.00  0.00     0.243 C 
HETATM   17  O   UNK N   1      25.399  16.130   3.051  0.00  0.00    -0.271 OA
HETATM   18  H   UNK N   1      26.738  13.612   4.267  0.00  0.00     0.163 HD
BRANCH  16  19
HETATM   19  C   UNK N   1      24.762  15.182   5.108  0.00  0.00     0.200 C 
BRANCH  19  20
HETATM   20  N   UNK N   1      24.303  13.819   5.293  0.00  0.00    -0.344 N 
HETATM   21  C   UNK N   1      23.065  13.482   5.753  0.00  0.00     0.241 C 
HETATM   22  O   UNK N   1      22.715  12.315   5.699  0.00  0.00    -0.271 OA
HETATM   23  H   UNK N   1      24.926  13.089   5.070  0.00  0.00     0.163 HD
BRANCH  21  24
HETATM   24  C   UNK N   1      22.107  14.498   6.345  0.00  0.00     0.180 C 
BRANCH  24  25
HETATM   25  C   UNK N   1      22.541  14.826   7.792  0.00  0.00     0.074 C 
BRANCH  25  26
HETATM   26  C   UNK N   1      22.583  13.743   8.840  0.00  0.00    -0.040 A 
HETATM   27  C   UNK N   1      23.772  13.037   9.046  0.00  0.00     0.010 A 
HETATM   28  C   UNK N   1      23.802  11.959   9.934  0.00  0.00     0.018 A 
HETATM   29  C   UNK N   1      22.631  11.591  10.600  0.00  0.00     0.087 A 
HETATM   30  N   UNK N   1      21.477  12.276  10.378  0.00  0.00    -0.375 N 
HETATM   31  C   UNK N   1      21.429  13.322   9.511  0.00  0.00     0.094 A 
ATOM     32  HN  UNK N   1      20.630  11.998  10.873  1.00  0.00     0.164 HD
ENDBRANCH  25  26
ENDBRANCH  24  25
BRANCH  24  33
HETATM   33  N   UNK N   1      20.714  14.119   6.183  0.00  0.00    -0.346 N 
HETATM   34  C   UNK N   1      19.933  14.475   5.119  0.00  0.00     0.241 C 
HETATM   35  O   UNK N   1      18.773  14.101   5.090  0.00  0.00    -0.271 OA
HETATM   36  H   UNK N   1      20.303  13.569   6.888  0.00  0.00     0.163 HD
BRANCH  34  37
HETATM   37  C   UNK N   1      20.402  15.423   4.036  0.00  0.00     0.180 C 
BRANCH  37  38
HETATM   38  N   UNK N   1      20.256  14.747   2.780  0.00  0.00    -0.346 N 
HETATM   39  C   UNK N   1      21.325  14.215   2.158  0.00  0.00     0.241 C 
HETATM   40  O   UNK N   1      22.459  14.473   2.534  0.00  0.00    -0.271 OA
HETATM   41  H   UNK N   1      19.365  14.670   2.369  0.00  0.00     0.163 HD
BRANCH  39  42
HETATM   42  C   UNK N   1      21.107  13.128   1.176  0.00  0.00     0.180 C 
BRANCH  42  43
HETATM   43  N   UNK N   1      19.891  13.382   0.443  0.00  0.00    -0.348 N 
HETATM   44  C   UNK N   1      18.714  12.832   0.810  0.00  0.00     0.214 C 
HETATM   45  C   UNK N   1      17.478  13.172   0.057  0.00  0.00     0.117 C 
HETATM   46  O   UNK N   1      18.651  12.063   1.756  0.00  0.00    -0.274 OA
HETATM   47  H   UNK N   1      19.921  13.972  -0.345  0.00  0.00     0.163 HD
ENDBRANCH  42  43
BRANCH  42  48
HETATM   48  C   UNK N   1      22.265  12.895   0.236  0.00  0.00     0.073 C 
BRANCH  48  49
HETATM   49  C   UNK N   1      22.627  11.459   0.369  0.00  0.00    -0.055 A 
HETATM   50  C   UNK N   1      23.327  10.815  -0.665  0.00  0.00     0.008 A 
HETATM   51  C   UNK N   1      23.610   9.453  -0.584  0.00  0.00     0.013 A 
HETATM   52  C   UNK N   1      23.204   8.728   0.536  0.00  0.00    -0.026 A 
HETATM   53  C   UNK N   1      23.486   7.363   0.625  0.00  0.00     0.012 A 
HETATM   54  C   UNK N   1      22.510   9.376   1.586  0.00  0.00    -0.025 A 
HETATM   55  C   UNK N   1      23.085   6.642   1.754  0.00  0.00     0.001 A 
HETATM   56  C   UNK N   1      22.403   7.284   2.794  0.00  0.00     0.001 A 
HETATM   57  C   UNK N   1      22.114   8.649   2.710  0.00  0.00     0.012 A 
HETATM   58  C   UNK N   1      22.220  10.738   1.493  0.00  0.00     0.019 A 
ENDBRANCH  48  49
ENDBRANCH  42  48
ENDBRANCH  39  42
ENDBRANCH  37  38
BRANCH  37  59
HETATM   59  C   UNK N   1      19.791  16.820   4.007  0.00  0.00     0.073 C 
BRANCH  59  60
HETATM   60  C   UNK N   1      20.864  17.803   3.683  0.00  0.00    -0.056 A 
HETATM   61  C   UNK N   1      20.547  18.969   2.979  0.00  0.00     0.009 A 
HETATM   62  C   UNK N   1      21.525  19.943   2.763  0.00  0.00     0.024 A 
HETATM   63  C   UNK N   1      22.818  19.757   3.259  0.00  0.00     0.034 A 
HETATM   64  C   UNK N   1      23.141  18.586   3.951  0.00  0.00     0.024 A 
HETATM   65 Cl   UNK N   1      24.027  21.000   3.033  0.00  0.00    -0.084 Cl
HETATM   66  C   UNK N   1      22.165  17.611   4.166  0.00  0.00     0.009 A 
ENDBRANCH  59  60
ENDBRANCH  37  59
ENDBRANCH  34  37
ENDBRANCH  24  33
ENDBRANCH  21  24
ENDBRANCH  19  20
BRANCH  19  67
HETATM   67  C   UNK N   1      25.639  15.564   6.294  0.00  0.00     0.199 C 
BRANCH  67  68
HETATM   68  O   UNK N   1      26.945  15.095   6.135  0.00  0.00    -0.398 OA
HETATM   69  H   UNK N   1      27.868  15.186   5.849  0.00  0.00     0.209 HD
ENDBRANCH  67  68
ENDBRANCH  19  67
ENDBRANCH  16  19
ENDBRANCH   5  15
ENDBRANCH   2   5
BRANCH   1  70
HETATM   70  C   UNK N   1      30.032  12.574   3.454  0.00  0.00     0.176 C 
BRANCH  70  71
HETATM   71  C   UNK N   1      30.520  13.455   4.584  0.00  0.00     0.241 C 
HETATM   72  O   UNK N   1      29.713  13.900   5.381  0.00  0.00    -0.271 OA
HETATM   73  N   UNK N   1      31.853  13.640   4.804  0.00  0.00    -0.346 N 
HETATM   74  H   UNK N   1      32.139  14.131   5.608  0.00  0.00     0.163 HD
BRANCH  73  75
HETATM   75  C   UNK N   1      32.864  13.137   3.892  0.00  0.00     0.177 C 
BRANCH  75  76
HETATM   76  C   UNK N   1      33.526  11.832   4.315  0.00  0.00     0.038 C 
BRANCH  76  77
HETATM   77  C   UNK N   1      33.896  11.773   5.782  0.00  0.00    -0.020 C 
HETATM   78  C   UNK N   1      33.176  10.616   6.448  0.00  0.00     0.009 C 
HETATM   79  C   UNK N   1      35.389  11.541   5.891  0.00  0.00     0.009 C 
ENDBRANCH  76  77
ENDBRANCH  75  76
BRANCH  75  80
HETATM   80  C   UNK N   1      33.792  14.188   3.332  0.00  0.00     0.241 C 
HETATM   81  N   UNK N   1      34.000  15.385   3.944  0.00  0.00    -0.346 N 
HETATM   82  H   UNK N   1      34.518  16.066   3.457  0.00  0.00     0.163 HD
HETATM   83  O   UNK N   1      34.318  13.978   2.251  0.00  0.00    -0.271 OA
BRANCH  81  84
HETATM   84  C   UNK N   1      33.511  15.724   5.265  0.00  0.00     0.176 C 
BRANCH  84  85
HETATM   85  C   UNK N   1      34.548  15.579   6.369  0.00  0.00     0.243 C 
HETATM   86  O   UNK N   1      35.720  15.676   6.057  0.00  0.00    -0.271 OA
HETATM   87  N   UNK N   1      34.206  15.180   7.637  0.00  0.00    -0.337 N 
HETATM   88  C   UNK N   1      35.176  14.478   8.440  0.00  0.00     0.179 C 
HETATM   89  C   UNK N   1      32.855  14.916   8.033  0.00  0.00     0.127 C 
HETATM   90  C   UNK N   1      34.373  13.284   8.929  0.00  0.00     0.037 C 
HETATM   91  C   UNK N   1      32.912  13.687   8.904  0.00  0.00     0.022 C 
BRANCH  88  92
HETATM   92  C   UNK N   1      35.718  15.277   9.606  0.00  0.00     0.241 C 
HETATM   93  O   UNK N   1      35.162  16.300   9.961  0.00  0.00    -0.271 OA
HETATM   94  N   UNK N   1      36.833  14.867  10.271  0.00  0.00    -0.346 N 
HETATM   95  H   UNK N   1      37.181  15.426  11.002  0.00  0.00     0.163 HD
BRANCH  94  96
HETATM   96  C   UNK N   1      37.527  13.637   9.943  0.00  0.00     0.172 C 
HETATM   97  C   UNK N   1      38.924  13.921   9.416  0.00  0.00     0.042 C 
BRANCH  96  98
HETATM   98  C   UNK N   1      37.558  12.673  11.090  0.00  0.00     0.237 C 
HETATM   99  N   UNK N   1      37.589  13.143  12.353  0.00  0.00    -0.368 N 
HETATM  100  H   UNK N   1      37.290  12.573  13.097  0.00  0.00     0.159 HD
HETATM  101  H   UNK N   1      37.909  14.057  12.530  0.00  0.00     0.159 HD
HETATM  102  O   UNK N   1      37.594  11.470  10.892  0.00  0.00    -0.271 OA
ENDBRANCH  96  98
ENDBRANCH  94  96
ENDBRANCH  88  92
ENDBRANCH  84  85
BRANCH  84 103
HETATM  103  C   UNK N   1      33.021  17.168   5.355  0.00  0.00     0.035 C 
BRANCH 103 104
HETATM  104  C   UNK N   1      31.513  17.323   5.411  0.00  0.00     0.004 C 
BRANCH 104 105
HETATM  105  C   UNK N   1      31.020  17.113   6.837  0.00  0.00     0.020 C 
BRANCH 105 106
HETATM  106  C   UNK N   1      29.526  16.805   6.892  0.00  0.00     0.138 C 
BRANCH 106 107
HETATM  107  N   UNK N   1      28.772  17.770   6.125  0.00  0.00    -0.227 N 
HETATM  108  C   UNK N   1      27.950  18.648   6.614  0.00  0.00     0.669 C 
HETATM  109  N   UNK N   1      27.286  19.518   5.715  0.00  0.00    -0.227 N 
HETATM  110  N   UNK N   1      27.666  18.764   8.014  0.00  0.00    -0.227 N 
HETATM  111  H   UNK N   1      27.485  19.456   4.753  0.00  0.00     0.177 HD
HETATM  112  H   UNK N   1      27.028  19.466   8.281  0.00  0.00     0.177 HD
ATOM    113  HN  UNK N   1      28.895  17.761   5.112  1.00  0.00     0.177 HD
BRANCH 109 114
HETATM  114  C   UNK N   1      26.327  20.493   6.169  0.00  0.00     0.133 C 
HETATM  115  C   UNK N   1      27.007  21.835   6.344  0.00  0.00     0.027 C 
ENDBRANCH 109 114
BRANCH 110 116
HETATM  116  C   UNK N   1      28.222  17.956   9.065  0.00  0.00     0.133 C 
HETATM  117  C   UNK N   1      29.361  18.705   9.722  0.00  0.00     0.027 C 
ENDBRANCH 110 116
ENDBRANCH 106 107
ENDBRANCH 105 106
ENDBRANCH 104 105
ENDBRANCH 103 104
ENDBRANCH  84 103
ENDBRANCH  81  84
ENDBRANCH  75  80
ENDBRANCH  73  75
ENDBRANCH  70  71
BRANCH  70 118
HETATM  118  C   UNK N   1      30.316  11.101   3.703  0.00  0.00     0.035 C 
BRANCH 118 119
HETATM  119  C   UNK N   1      30.105  10.289   2.441  0.00  0.00     0.004 C 
BRANCH 119 120
HETATM  120  C   UNK N   1      31.449   9.953   1.835  0.00  0.00     0.020 C 
BRANCH 120 121
HETATM  121  C   UNK N   1      31.877  11.076   0.918  0.00  0.00     0.138 C 
BRANCH 121 122
HETATM  122  N   UNK N   1      30.878  11.276  -0.103  0.00  0.00    -0.227 N 
HETATM  123  C   UNK N   1      31.159  11.189  -1.357  0.00  0.00     0.669 C 
HETATM  124  N   UNK N   1      30.131  11.444  -2.305  0.00  0.00    -0.227 N 
HETATM  125  N   UNK N   1      32.484  10.851  -1.768  0.00  0.00    -0.227 N 
HETATM  126  H   UNK N   1      29.340  11.956  -2.016  0.00  0.00     0.177 HD
HETATM  127  H   UNK N   1      33.040  10.298  -1.173  0.00  0.00     0.177 HD
ATOM    128  HN  UNK N   1      29.922  11.493   0.176  1.00  0.00     0.177 HD
BRANCH 124 129
HETATM  129  C   UNK N   1      30.194  10.990  -3.670  0.00  0.00     0.133 C 
HETATM  130  C   UNK N   1      29.760   9.544  -3.750  0.00  0.00     0.027 C 
ENDBRANCH 124 129
BRANCH 125 131
HETATM  131  C   UNK N   1      33.036  11.291  -3.023  0.00  0.00     0.133 C 
HETATM  132  C   UNK N   1      33.569  12.703  -2.909  0.00  0.00     0.027 C 
ENDBRANCH 125 131
ENDBRANCH 121 122
ENDBRANCH 120 121
ENDBRANCH 119 120
ENDBRANCH 118 119
ENDBRANCH  70 118
ENDBRANCH   1  70
TORSDOF 46
ENDMDL
MODEL 5
REMARK VINA RESULT:      -6.8      3.053     10.070
REMARK WARNING: 32 MAX_TORS EXCEEDED!!!
REMARK  46 active torsions:
REMARK  status: ('A' for Active; 'I' for Inactive)
REMARK    1  A    between atoms: C_9  and  C_13 
REMARK    2  A    between atoms: C_12  and  N_11 
REMARK       I    between atoms: N_11  and  C_14 
REMARK    3  A    between atoms: C_12  and  C_13 
REMARK    4  A    between atoms: C_12  and  C_16 
REMARK       I    between atoms: N_15  and  C_16 
REMARK    5  A    between atoms: N_15  and  C_19 
REMARK    6  A    between atoms: C_18  and  C_19 
REMARK       I    between atoms: C_18  and  N_22 
REMARK    7  A    between atoms: C_19  and  C_32 
REMARK    8  A    between atoms: C_21  and  C_20 
REMARK    9  A    between atoms: C_20  and  C_81 
REMARK   10  A    between atoms: C_21  and  N_22 
REMARK   11  A    between atoms: C_21  and  C_24 
REMARK       I    between atoms: N_23  and  C_24 
REMARK   12  A    between atoms: N_23  and  C_27 
REMARK   13  A    between atoms: C_26  and  C_27 
REMARK       I    between atoms: C_26  and  N_30 
REMARK   14  A    between atoms: C_27  and  C_90 
REMARK   15  A    between atoms: C_29  and  C_28 
REMARK   16  A    between atoms: C_28  and  C_74 
REMARK   17  A    between atoms: C_29  and  N_30 
REMARK   18  A    between atoms: C_29  and  C_35 
REMARK   19  A    between atoms: C_32  and  C_56 
REMARK       I    between atoms: N_34  and  C_35 
REMARK   20  A    between atoms: N_34  and  C_38 
REMARK   21  A    between atoms: C_37  and  C_38 
REMARK       I    between atoms: C_37  and  N_41 
REMARK   22  A    between atoms: C_38  and  C_88 
REMARK   23  A    between atoms: C_40  and  C_39 
REMARK   24  A    between atoms: C_39  and  C_71 
REMARK   25  A    between atoms: C_40  and  N_41 
REMARK   26  A    between atoms: C_40  and  C_43 
REMARK       I    between atoms: N_42  and  C_43 
REMARK   27  A    between atoms: N_42  and  C_46 
REMARK   28  A    between atoms: C_45  and  C_46 
REMARK       I    between atoms: C_45  and  N_49 
REMARK   29  A    between atoms: C_46  and  C_92 
REMARK   30  A    between atoms: C_50  and  C_63 
REMARK       I    between atoms: C_63  and  N_65 
REMARK   31  A    between atoms: N_65  and  C_66 
REMARK   32  A    between atoms: C_66  and  C_67 
REMARK       I    between atoms: C_67  and  N_68 
REMARK   33  A    between atoms: C_77  and  O_80 
REMARK   34  A    between atoms: C_88  and  C_89 
REMARK   35  A    between atoms: C_89  and  C_94 
REMARK   36  A    between atoms: C_90  and  O_91 
REMARK   37  A    between atoms: C_92  and  C_93 
REMARK   38  A    between atoms: C_93  and  C_105 
REMARK   39  A    between atoms: C_94  and  C_95 
REMARK   40  A    between atoms: C_95  and  N_96 
REMARK       I    between atoms: C_98  and  N_99 
REMARK       I    between atoms: C_98  and  N_100 
REMARK   41  A    between atoms: N_99  and  C_101 
REMARK   42  A    between atoms: N_100  and  C_103 
REMARK   43  A    between atoms: C_105  and  C_106 
REMARK   44  A    between atoms: C_106  and  N_107 
REMARK       I    between atoms: C_109  and  N_110 
REMARK       I    between atoms: C_109  and  N_113 
REMARK   45  A    between atoms: N_110  and  C_111 
REMARK   46  A    between atoms: N_113  and  C_114 
ROOT
HETATM    1  N   UNK N   1      30.156  16.563   6.606  0.00  0.00    -0.346 N 
HETATM    2  C   UNK N   1      30.739  16.578   5.389  0.00  0.00     0.241 C 
HETATM    3  O   UNK N   1      30.861  17.642   4.791  0.00  0.00    -0.271 OA
HETATM    4  H   UNK N   1      30.247  15.776   7.192  0.00  0.00     0.163 HD
ENDROOT
BRANCH   2   5
HETATM    5  C   UNK N   1      31.246  15.304   4.765  0.00  0.00     0.180 C 
BRANCH   5   6
HETATM    6  C   UNK N   1      31.570  14.308   5.890  0.00  0.00     0.073 C 
BRANCH   6   7
HETATM    7  C   UNK N   1      32.888  13.614   5.885  0.00  0.00    -0.056 A 
HETATM    8  C   UNK N   1      34.019  14.380   5.594  0.00  0.00     0.010 A 
HETATM    9  C   UNK N   1      35.288  13.802   5.611  0.00  0.00     0.037 A 
HETATM   10  C   UNK N   1      35.433  12.452   5.929  0.00  0.00     0.065 A 
HETATM   11  C   UNK N   1      34.304  11.678   6.226  0.00  0.00     0.037 A 
HETATM   12  C   UNK N   1      33.030  12.259   6.205  0.00  0.00     0.010 A 
BRANCH  10  13
HETATM   13  O   UNK N   1      36.654  11.898   5.954  0.00  0.00    -0.361 OA
HETATM   14  H   UNK N   1      36.763  10.973   6.062  0.00  0.00     0.217 HD
ENDBRANCH  10  13
ENDBRANCH   6   7
ENDBRANCH   5   6
BRANCH   5  15
HETATM   15  N   UNK N   1      30.168  14.823   3.939  0.00  0.00    -0.346 N 
HETATM   16  C   UNK N   1      30.403  13.991   2.896  0.00  0.00     0.243 C 
HETATM   17  O   UNK N   1      31.529  13.899   2.419  0.00  0.00    -0.271 OA
HETATM   18  H   UNK N   1      29.246  15.103   4.137  0.00  0.00     0.163 HD
BRANCH  16  19
HETATM   19  C   UNK N   1      29.339  13.039   2.460  0.00  0.00     0.200 C 
BRANCH  19  20
HETATM   20  N   UNK N   1      28.259  13.813   1.879  0.00  0.00    -0.344 N 
HETATM   21  C   UNK N   1      26.935  13.555   2.083  0.00  0.00     0.241 C 
HETATM   22  O   UNK N   1      26.112  14.370   1.701  0.00  0.00    -0.271 OA
HETATM   23  H   UNK N   1      28.496  14.575   1.303  0.00  0.00     0.163 HD
BRANCH  21  24
HETATM   24  C   UNK N   1      26.442  12.286   2.752  0.00  0.00     0.180 C 
BRANCH  24  25
HETATM   25  C   UNK N   1      24.929  12.417   3.040  0.00  0.00     0.074 C 
BRANCH  25  26
HETATM   26  C   UNK N   1      23.918  11.827   2.090  0.00  0.00    -0.040 A 
HETATM   27  C   UNK N   1      22.979  10.910   2.574  0.00  0.00     0.010 A 
HETATM   28  C   UNK N   1      22.104  10.271   1.692  0.00  0.00     0.018 A 
HETATM   29  C   UNK N   1      22.189  10.550   0.326  0.00  0.00     0.087 A 
HETATM   30  N   UNK N   1      23.117  11.431  -0.133  0.00  0.00    -0.375 N 
HETATM   31  C   UNK N   1      23.981  12.056   0.711  0.00  0.00     0.094 A 
ATOM     32  HN  UNK N   1      23.167  11.628  -1.133  1.00  0.00     0.164 HD
ENDBRANCH  25  26
ENDBRANCH  24  25
BRANCH  24  33
HETATM   33  N   UNK N   1      27.261  11.893   3.886  0.00  0.00    -0.346 N 
HETATM   34  C   UNK N   1      27.523  10.600   4.241  0.00  0.00     0.241 C 
HETATM   35  O   UNK N   1      28.222  10.389   5.217  0.00  0.00    -0.271 OA
HETATM   36  H   UNK N   1      27.653  12.608   4.438  0.00  0.00     0.163 HD
BRANCH  34  37
HETATM   37  C   UNK N   1      26.877   9.413   3.559  0.00  0.00     0.180 C 
BRANCH  37  38
HETATM   38  N   UNK N   1      25.691   9.086   4.295  0.00  0.00    -0.346 N 
HETATM   39  C   UNK N   1      25.680   8.050   5.155  0.00  0.00     0.241 C 
HETATM   40  O   UNK N   1      26.600   7.245   5.174  0.00  0.00    -0.271 OA
HETATM   41  H   UNK N   1      24.877   9.625   4.171  0.00  0.00     0.163 HD
BRANCH  39  42
HETATM   42  C   UNK N   1      24.670   8.037   6.238  0.00  0.00     0.180 C 
BRANCH  42  43
HETATM   43  N   UNK N   1      25.147   7.219   7.326  0.00  0.00    -0.348 N 
HETATM   44  C   UNK N   1      24.358   6.299   7.921  0.00  0.00     0.214 C 
HETATM   45  C   UNK N   1      24.914   5.440   8.999  0.00  0.00     0.117 C 
HETATM   46  O   UNK N   1      23.193   6.161   7.579  0.00  0.00    -0.274 OA
HETATM   47  H   UNK N   1      26.072   7.335   7.644  0.00  0.00     0.163 HD
ENDBRANCH  42  43
BRANCH  42  48
HETATM   48  C   UNK N   1      24.266   9.407   6.730  0.00  0.00     0.073 C 
BRANCH  48  49
HETATM   49  C   UNK N   1      22.915   9.668   6.166  0.00  0.00    -0.055 A 
HETATM   50  C   UNK N   1      22.145   8.601   5.673  0.00  0.00     0.008 A 
HETATM   51  C   UNK N   1      20.907   8.841   5.078  0.00  0.00     0.013 A 
HETATM   52  C   UNK N   1      20.427  10.146   4.980  0.00  0.00    -0.026 A 
HETATM   53  C   UNK N   1      19.188  10.394   4.387  0.00  0.00     0.012 A 
HETATM   54  C   UNK N   1      21.195  11.222   5.488  0.00  0.00    -0.025 A 
HETATM   55  C   UNK N   1      18.707  11.704   4.299  0.00  0.00     0.001 A 
HETATM   56  C   UNK N   1      19.464  12.766   4.805  0.00  0.00     0.001 A 
HETATM   57  C   UNK N   1      20.708  12.527   5.397  0.00  0.00     0.012 A 
HETATM   58  C   UNK N   1      22.439  10.976   6.072  0.00  0.00     0.019 A 
ENDBRANCH  48  49
ENDBRANCH  42  48
ENDBRANCH  39  42
ENDBRANCH  37  38
BRANCH  37  59
HETATM   59  C   UNK N   1      26.608   9.520   2.062  0.00  0.00     0.073 C 
BRANCH  59  60
HETATM   60  C   UNK N   1      27.731   8.869   1.327  0.00  0.00    -0.056 A 
HETATM   61  C   UNK N   1      28.522   7.915   1.975  0.00  0.00     0.009 A 
HETATM   62  C   UNK N   1      29.507   7.225   1.264  0.00  0.00     0.024 A 
HETATM   63  C   UNK N   1      29.697   7.483  -0.097  0.00  0.00     0.034 A 
HETATM   64  C   UNK N   1      28.917   8.447  -0.743  0.00  0.00     0.024 A 
HETATM   65 Cl   UNK N   1      30.896   6.582  -0.997  0.00  0.00    -0.084 Cl
HETATM   66  C   UNK N   1      27.932   9.138  -0.032  0.00  0.00     0.009 A 
ENDBRANCH  59  60
ENDBRANCH  37  59
ENDBRANCH  34  37
ENDBRANCH  24  33
ENDBRANCH  21  24
ENDBRANCH  19  20
BRANCH  19  67
HETATM   67  C   UNK N   1      29.903  12.115   1.388  0.00  0.00     0.199 C 
BRANCH  67  68
HETATM   68  O   UNK N   1      29.709  12.639   0.108  0.00  0.00    -0.398 OA
HETATM   69  H   UNK N   1      29.789  13.336  -0.563  0.00  0.00     0.209 HD
ENDBRANCH  67  68
ENDBRANCH  19  67
ENDBRANCH  16  19
ENDBRANCH   5  15
ENDBRANCH   2   5
BRANCH   1  70
HETATM   70  C   UNK N   1      29.397  17.711   7.039  0.00  0.00     0.176 C 
BRANCH  70  71
HETATM   71  C   UNK N   1      28.076  17.166   7.538  0.00  0.00     0.241 C 
HETATM   72  O   UNK N   1      27.998  16.755   8.683  0.00  0.00    -0.271 OA
HETATM   73  N   UNK N   1      26.947  17.258   6.780  0.00  0.00    -0.346 N 
HETATM   74  H   UNK N   1      26.085  16.991   7.173  0.00  0.00     0.163 HD
BRANCH  73  75
HETATM   75  C   UNK N   1      26.974  17.738   5.409  0.00  0.00     0.177 C 
BRANCH  75  76
HETATM   76  C   UNK N   1      26.206  19.029   5.160  0.00  0.00     0.038 C 
BRANCH  76  77
HETATM   77  C   UNK N   1      27.054  20.158   4.612  0.00  0.00    -0.020 C 
HETATM   78  C   UNK N   1      26.499  20.616   3.276  0.00  0.00     0.009 C 
HETATM   79  C   UNK N   1      26.995  21.318   5.584  0.00  0.00     0.009 C 
ENDBRANCH  76  77
ENDBRANCH  75  76
BRANCH  75  80
HETATM   80  C   UNK N   1      26.806  16.666   4.359  0.00  0.00     0.241 C 
HETATM   81  N   UNK N   1      25.705  15.868   4.294  0.00  0.00    -0.346 N 
HETATM   82  H   UNK N   1      25.723  15.112   3.663  0.00  0.00     0.163 HD
HETATM   83  O   UNK N   1      27.729  16.463   3.587  0.00  0.00    -0.271 OA
BRANCH  81  84
HETATM   84  C   UNK N   1      24.509  16.059   5.087  0.00  0.00     0.176 C 
BRANCH  84  85
HETATM   85  C   UNK N   1      23.216  16.003   4.287  0.00  0.00     0.243 C 
HETATM   86  O   UNK N   1      23.256  15.488   3.186  0.00  0.00    -0.271 OA
HETATM   87  N   UNK N   1      22.080  16.655   4.697  0.00  0.00    -0.337 N 
HETATM   88  C   UNK N   1      21.128  17.102   3.711  0.00  0.00     0.179 C 
HETATM   89  C   UNK N   1      22.006  17.396   5.922  0.00  0.00     0.127 C 
HETATM   90  C   UNK N   1      20.901  18.546   4.125  0.00  0.00     0.037 C 
HETATM   91  C   UNK N   1      21.221  18.642   5.604  0.00  0.00     0.022 C 
BRANCH  88  92
HETATM   92  C   UNK N   1      19.826  16.331   3.705  0.00  0.00     0.241 C 
HETATM   93  O   UNK N   1      19.098  16.347   4.681  0.00  0.00    -0.271 OA
HETATM   94  N   UNK N   1      19.451  15.610   2.613  0.00  0.00    -0.346 N 
HETATM   95  H   UNK N   1      18.615  15.092   2.652  0.00  0.00     0.163 HD
BRANCH  94  96
HETATM   96  C   UNK N   1      20.235  15.577   1.394  0.00  0.00     0.172 C 
HETATM   97  C   UNK N   1      20.486  14.147   0.943  0.00  0.00     0.042 C 
BRANCH  96  98
HETATM   98  C   UNK N   1      19.626  16.398   0.298  0.00  0.00     0.237 C 
HETATM   99  N   UNK N   1      20.019  17.675   0.126  0.00  0.00    -0.368 N 
HETATM  100  H   UNK N   1      19.891  18.117  -0.744  0.00  0.00     0.159 HD
HETATM  101  H   UNK N   1      20.437  18.166   0.871  0.00  0.00     0.159 HD
HETATM  102  O   UNK N   1      18.751  15.934  -0.415  0.00  0.00    -0.271 OA
ENDBRANCH  96  98
ENDBRANCH  94  96
ENDBRANCH  88  92
ENDBRANCH  84  85
BRANCH  84 103
HETATM  103  C   UNK N   1      24.357  15.003   6.180  0.00  0.00     0.035 C 
BRANCH 103 104
HETATM  104  C   UNK N   1      25.471  13.974   6.226  0.00  0.00     0.004 C 
BRANCH 104 105
HETATM  105  C   UNK N   1      25.150  12.904   7.262  0.00  0.00     0.020 C 
BRANCH 105 106
HETATM  106  C   UNK N   1      24.060  13.348   8.233  0.00  0.00     0.138 C 
BRANCH 106 107
HETATM  107  N   UNK N   1      24.368  12.930   9.581  0.00  0.00    -0.227 N 
HETATM  108  C   UNK N   1      23.499  12.595  10.486  0.00  0.00     0.669 C 
HETATM  109  N   UNK N   1      23.976  12.215  11.765  0.00  0.00    -0.227 N 
HETATM  110  N   UNK N   1      22.084  12.614  10.262  0.00  0.00    -0.227 N 
HETATM  111  H   UNK N   1      24.947  12.186  11.925  0.00  0.00     0.177 HD
HETATM  112  H   UNK N   1      21.511  12.339  11.015  0.00  0.00     0.177 HD
ATOM    113  HN  UNK N   1      25.353  12.896   9.846  1.00  0.00     0.177 HD
BRANCH 109 114
HETATM  114  C   UNK N   1      23.080  11.870  12.838  0.00  0.00     0.133 C 
HETATM  115  C   UNK N   1      23.653  12.351  14.156  0.00  0.00     0.027 C 
ENDBRANCH 109 114
BRANCH 110 116
HETATM  116  C   UNK N   1      21.420  12.995   9.044  0.00  0.00     0.133 C 
HETATM  117  C   UNK N   1      20.624  14.259   9.283  0.00  0.00     0.027 C 
ENDBRANCH 110 116
ENDBRANCH 106 107
ENDBRANCH 105 106
ENDBRANCH 104 105
ENDBRANCH 103 104
ENDBRANCH  84 103
ENDBRANCH  81  84
ENDBRANCH  75  80
ENDBRANCH  73  75
ENDBRANCH  70  71
BRANCH  70 118
HETATM  118  C   UNK N   1      30.152  18.478   8.114  0.00  0.00     0.035 C 
BRANCH 118 119
HETATM  119  C   UNK N   1      31.152  17.581   8.815  0.00  0.00     0.004 C 
BRANCH 119 120
HETATM  120  C   UNK N   1      32.548  17.941   8.359  0.00  0.00     0.020 C 
BRANCH 120 121
HETATM  121  C   UNK N   1      33.429  16.716   8.436  0.00  0.00     0.138 C 
BRANCH 121 122
HETATM  122  N   UNK N   1      33.608  16.332   9.815  0.00  0.00    -0.227 N 
HETATM  123  C   UNK N   1      34.557  15.545  10.186  0.00  0.00     0.669 C 
HETATM  124  N   UNK N   1      34.641  15.176  11.556  0.00  0.00    -0.227 N 
HETATM  125  N   UNK N   1      35.492  15.054   9.224  0.00  0.00    -0.227 N 
HETATM  126  H   UNK N   1      33.839  15.274  12.120  0.00  0.00     0.177 HD
HETATM  127  H   UNK N   1      35.684  15.600   8.426  0.00  0.00     0.177 HD
ATOM    128  HN  UNK N   1      32.964  16.695  10.517  1.00  0.00     0.177 HD
BRANCH 124 129
HETATM  129  C   UNK N   1      35.846  14.665  12.157  0.00  0.00     0.133 C 
HETATM  130  C   UNK N   1      35.517  13.483  13.041  0.00  0.00     0.027 C 
ENDBRANCH 124 129
BRANCH 125 131
HETATM  131  C   UNK N   1      36.163  13.790   9.379  0.00  0.00     0.133 C 
HETATM  132  C   UNK N   1      37.543  13.837   8.760  0.00  0.00     0.027 C 
ENDBRANCH 125 131
ENDBRANCH 121 122
ENDBRANCH 120 121
ENDBRANCH 119 120
ENDBRANCH 118 119
ENDBRANCH  70 118
ENDBRANCH   1  70
TORSDOF 46
ENDMDL
MODEL 6
REMARK VINA RESULT:      -6.8      2.830      8.592
REMARK WARNING: 32 MAX_TORS EXCEEDED!!!
REMARK  46 active torsions:
REMARK  status: ('A' for Active; 'I' for Inactive)
REMARK    1  A    between atoms: C_9  and  C_13 
REMARK    2  A    between atoms: C_12  and  N_11 
REMARK       I    between atoms: N_11  and  C_14 
REMARK    3  A    between atoms: C_12  and  C_13 
REMARK    4  A    between atoms: C_12  and  C_16 
REMARK       I    between atoms: N_15  and  C_16 
REMARK    5  A    between atoms: N_15  and  C_19 
REMARK    6  A    between atoms: C_18  and  C_19 
REMARK       I    between atoms: C_18  and  N_22 
REMARK    7  A    between atoms: C_19  and  C_32 
REMARK    8  A    between atoms: C_21  and  C_20 
REMARK    9  A    between atoms: C_20  and  C_81 
REMARK   10  A    between atoms: C_21  and  N_22 
REMARK   11  A    between atoms: C_21  and  C_24 
REMARK       I    between atoms: N_23  and  C_24 
REMARK   12  A    between atoms: N_23  and  C_27 
REMARK   13  A    between atoms: C_26  and  C_27 
REMARK       I    between atoms: C_26  and  N_30 
REMARK   14  A    between atoms: C_27  and  C_90 
REMARK   15  A    between atoms: C_29  and  C_28 
REMARK   16  A    between atoms: C_28  and  C_74 
REMARK   17  A    between atoms: C_29  and  N_30 
REMARK   18  A    between atoms: C_29  and  C_35 
REMARK   19  A    between atoms: C_32  and  C_56 
REMARK       I    between atoms: N_34  and  C_35 
REMARK   20  A    between atoms: N_34  and  C_38 
REMARK   21  A    between atoms: C_37  and  C_38 
REMARK       I    between atoms: C_37  and  N_41 
REMARK   22  A    between atoms: C_38  and  C_88 
REMARK   23  A    between atoms: C_40  and  C_39 
REMARK   24  A    between atoms: C_39  and  C_71 
REMARK   25  A    between atoms: C_40  and  N_41 
REMARK   26  A    between atoms: C_40  and  C_43 
REMARK       I    between atoms: N_42  and  C_43 
REMARK   27  A    between atoms: N_42  and  C_46 
REMARK   28  A    between atoms: C_45  and  C_46 
REMARK       I    between atoms: C_45  and  N_49 
REMARK   29  A    between atoms: C_46  and  C_92 
REMARK   30  A    between atoms: C_50  and  C_63 
REMARK       I    between atoms: C_63  and  N_65 
REMARK   31  A    between atoms: N_65  and  C_66 
REMARK   32  A    between atoms: C_66  and  C_67 
REMARK       I    between atoms: C_67  and  N_68 
REMARK   33  A    between atoms: C_77  and  O_80 
REMARK   34  A    between atoms: C_88  and  C_89 
REMARK   35  A    between atoms: C_89  and  C_94 
REMARK   36  A    between atoms: C_90  and  O_91 
REMARK   37  A    between atoms: C_92  and  C_93 
REMARK   38  A    between atoms: C_93  and  C_105 
REMARK   39  A    between atoms: C_94  and  C_95 
REMARK   40  A    between atoms: C_95  and  N_96 
REMARK       I    between atoms: C_98  and  N_99 
REMARK       I    between atoms: C_98  and  N_100 
REMARK   41  A    between atoms: N_99  and  C_101 
REMARK   42  A    between atoms: N_100  and  C_103 
REMARK   43  A    between atoms: C_105  and  C_106 
REMARK   44  A    between atoms: C_106  and  N_107 
REMARK       I    between atoms: C_109  and  N_110 
REMARK       I    between atoms: C_109  and  N_113 
REMARK   45  A    between atoms: N_110  and  C_111 
REMARK   46  A    between atoms: N_113  and  C_114 
ROOT
HETATM    1  N   UNK N   1      29.040  12.794   2.590  0.00  0.00    -0.346 N 
HETATM    2  C   UNK N   1      28.157  13.786   2.353  0.00  0.00     0.241 C 
HETATM    3  O   UNK N   1      28.555  14.855   1.901  0.00  0.00    -0.271 OA
HETATM    4  H   UNK N   1      28.726  11.872   2.736  0.00  0.00     0.163 HD
ENDROOT
BRANCH   2   5
HETATM    5  C   UNK N   1      26.690  13.590   2.631  0.00  0.00     0.180 C 
BRANCH   5   6
HETATM    6  C   UNK N   1      26.349  12.106   2.416  0.00  0.00     0.073 C 
BRANCH   6   7
HETATM    7  C   UNK N   1      25.089  11.747   1.709  0.00  0.00    -0.056 A 
HETATM    8  C   UNK N   1      24.456  10.559   2.081  0.00  0.00     0.010 A 
HETATM    9  C   UNK N   1      23.252  10.182   1.488  0.00  0.00     0.037 A 
HETATM   10  C   UNK N   1      22.668  11.000   0.521  0.00  0.00     0.065 A 
HETATM   11  C   UNK N   1      23.294  12.195   0.144  0.00  0.00     0.037 A 
HETATM   12  C   UNK N   1      24.505  12.571   0.739  0.00  0.00     0.010 A 
BRANCH  10  13
HETATM   13  O   UNK N   1      21.506  10.642  -0.045  0.00  0.00    -0.361 OA
HETATM   14  H   UNK N   1      21.229   9.746  -0.054  0.00  0.00     0.217 HD
ENDBRANCH  10  13
ENDBRANCH   6   7
ENDBRANCH   5   6
BRANCH   5  15
HETATM   15  N   UNK N   1      26.502  13.972   4.007  0.00  0.00    -0.346 N 
HETATM   16  C   UNK N   1      25.381  14.620   4.407  0.00  0.00     0.243 C 
HETATM   17  O   UNK N   1      24.671  15.192   3.588  0.00  0.00    -0.271 OA
HETATM   18  H   UNK N   1      27.200  13.760   4.667  0.00  0.00     0.163 HD
BRANCH  16  19
HETATM   19  C   UNK N   1      24.905  14.464   5.814  0.00  0.00     0.200 C 
BRANCH  19  20
HETATM   20  N   UNK N   1      24.974  13.056   6.155  0.00  0.00    -0.344 N 
HETATM   21  C   UNK N   1      23.908  12.316   6.573  0.00  0.00     0.241 C 
HETATM   22  O   UNK N   1      24.031  11.105   6.658  0.00  0.00    -0.271 OA
HETATM   23  H   UNK N   1      25.846  12.606   6.079  0.00  0.00     0.163 HD
BRANCH  21  24
HETATM   24  C   UNK N   1      22.577  12.937   6.952  0.00  0.00     0.180 C 
BRANCH  24  25
HETATM   25  C   UNK N   1      22.736  13.714   8.278  0.00  0.00     0.074 C 
BRANCH  25  26
HETATM   26  C   UNK N   1      23.210  13.010   9.523  0.00  0.00    -0.040 A 
HETATM   27  C   UNK N   1      22.267  12.502  10.422  0.00  0.00     0.010 A 
HETATM   28  C   UNK N   1      22.684  11.942  11.633  0.00  0.00     0.018 A 
HETATM   29  C   UNK N   1      24.046  11.911  11.936  0.00  0.00     0.087 A 
HETATM   30  N   UNK N   1      24.951  12.423  11.061  0.00  0.00    -0.375 N 
HETATM   31  C   UNK N   1      24.562  12.978   9.881  0.00  0.00     0.094 A 
ATOM     32  HN  UNK N   1      25.944  12.391  11.293  1.00  0.00     0.164 HD
ENDBRANCH  25  26
ENDBRANCH  24  25
BRANCH  24  33
HETATM   33  N   UNK N   1      21.481  11.984   6.914  0.00  0.00    -0.346 N 
HETATM   34  C   UNK N   1      20.548  11.915   5.918  0.00  0.00     0.241 C 
HETATM   35  O   UNK N   1      19.668  11.074   5.994  0.00  0.00    -0.271 OA
HETATM   36  H   UNK N   1      21.404  11.344   7.659  0.00  0.00     0.163 HD
BRANCH  34  37
HETATM   37  C   UNK N   1      20.476  12.919   4.788  0.00  0.00     0.180 C 
BRANCH  37  38
HETATM   38  N   UNK N   1      20.842  14.197   5.325  0.00  0.00    -0.346 N 
HETATM   39  C   UNK N   1      19.963  15.217   5.330  0.00  0.00     0.241 C 
HETATM   40  O   UNK N   1      18.919  15.145   4.697  0.00  0.00    -0.271 OA
HETATM   41  H   UNK N   1      21.744  14.331   5.694  0.00  0.00     0.163 HD
BRANCH  39  42
HETATM   42  C   UNK N   1      20.157  16.317   6.303  0.00  0.00     0.180 C 
BRANCH  42  43
HETATM   43  N   UNK N   1      19.405  16.036   7.500  0.00  0.00    -0.348 N 
HETATM   44  C   UNK N   1      19.115  17.001   8.399  0.00  0.00     0.214 C 
HETATM   45  C   UNK N   1      18.287  16.672   9.589  0.00  0.00     0.117 C 
HETATM   46  O   UNK N   1      19.523  18.142   8.244  0.00  0.00    -0.274 OA
HETATM   47  H   UNK N   1      19.094  15.116   7.666  0.00  0.00     0.163 HD
ENDBRANCH  42  43
BRANCH  42  48
HETATM   48  C   UNK N   1      21.602  16.612   6.630  0.00  0.00     0.073 C 
BRANCH  48  49
HETATM   49  C   UNK N   1      22.049  17.639   5.651  0.00  0.00    -0.055 A 
HETATM   50  C   UNK N   1      21.097  18.419   4.973  0.00  0.00     0.008 A 
HETATM   51  C   UNK N   1      21.499  19.336   4.002  0.00  0.00     0.013 A 
HETATM   52  C   UNK N   1      22.853  19.485   3.711  0.00  0.00    -0.026 A 
HETATM   53  C   UNK N   1      23.263  20.402   2.741  0.00  0.00     0.012 A 
HETATM   54  C   UNK N   1      23.816  18.710   4.401  0.00  0.00    -0.025 A 
HETATM   55  C   UNK N   1      24.624  20.554   2.458  0.00  0.00     0.001 A 
HETATM   56  C   UNK N   1      25.576  19.792   3.144  0.00  0.00     0.001 A 
HETATM   57  C   UNK N   1      25.173  18.869   4.114  0.00  0.00     0.012 A 
HETATM   58  C   UNK N   1      23.406  17.786   5.364  0.00  0.00     0.019 A 
ENDBRANCH  48  49
ENDBRANCH  42  48
ENDBRANCH  39  42
ENDBRANCH  37  38
BRANCH  37  59
HETATM   59  C   UNK N   1      21.241  12.598   3.508  0.00  0.00     0.073 C 
BRANCH  59  60
HETATM   60  C   UNK N   1      20.756  13.499   2.424  0.00  0.00    -0.056 A 
HETATM   61  C   UNK N   1      19.535  13.233   1.796  0.00  0.00     0.009 A 
HETATM   62  C   UNK N   1      19.024  14.130   0.854  0.00  0.00     0.024 A 
HETATM   63  C   UNK N   1      19.729  15.296   0.545  0.00  0.00     0.034 A 
HETATM   64  C   UNK N   1      20.957  15.557   1.161  0.00  0.00     0.024 A 
HETATM   65 Cl   UNK N   1      19.063  16.443  -0.597  0.00  0.00    -0.084 Cl
HETATM   66  C   UNK N   1      21.469  14.661   2.102  0.00  0.00     0.009 A 
ENDBRANCH  59  60
ENDBRANCH  37  59
ENDBRANCH  34  37
ENDBRANCH  24  33
ENDBRANCH  21  24
ENDBRANCH  19  20
BRANCH  19  67
HETATM   67  C   UNK N   1      25.833  15.235   6.743  0.00  0.00     0.199 C 
BRANCH  67  68
HETATM   68  O   UNK N   1      26.278  16.421   6.154  0.00  0.00    -0.398 OA
HETATM   69  H   UNK N   1      26.707  17.291   6.178  0.00  0.00     0.209 HD
ENDBRANCH  67  68
ENDBRANCH  19  67
ENDBRANCH  16  19
ENDBRANCH   5  15
ENDBRANCH   2   5
BRANCH   1  70
HETATM   70  C   UNK N   1      30.450  13.100   2.630  0.00  0.00     0.176 C 
BRANCH  70  71
HETATM   71  C   UNK N   1      30.809  13.197   4.097  0.00  0.00     0.241 C 
HETATM   72  O   UNK N   1      30.175  12.545   4.908  0.00  0.00    -0.271 OA
HETATM   73  N   UNK N   1      31.910  13.888   4.506  0.00  0.00    -0.346 N 
HETATM   74  H   UNK N   1      32.176  13.845   5.453  0.00  0.00     0.163 HD
BRANCH  73  75
HETATM   75  C   UNK N   1      32.707  14.685   3.590  0.00  0.00     0.177 C 
BRANCH  75  76
HETATM   76  C   UNK N   1      33.973  14.010   3.077  0.00  0.00     0.038 C 
BRANCH  76  77
HETATM   77  C   UNK N   1      34.679  13.153   4.107  0.00  0.00    -0.020 C 
HETATM   78  C   UNK N   1      34.499  11.686   3.766  0.00  0.00     0.009 C 
HETATM   79  C   UNK N   1      36.157  13.481   4.073  0.00  0.00     0.009 C 
ENDBRANCH  76  77
ENDBRANCH  75  76
BRANCH  75  80
HETATM   80  C   UNK N   1      32.852  16.138   3.976  0.00  0.00     0.241 C 
HETATM   81  N   UNK N   1      32.891  16.553   5.271  0.00  0.00    -0.346 N 
HETATM   82  H   UNK N   1      32.860  17.522   5.443  0.00  0.00     0.163 HD
HETATM   83  O   UNK N   1      32.861  16.973   3.087  0.00  0.00    -0.271 OA
BRANCH  81  84
HETATM   84  C   UNK N   1      32.978  15.666   6.412  0.00  0.00     0.176 C 
BRANCH  84  85
HETATM   85  C   UNK N   1      34.396  15.426   6.909  0.00  0.00     0.243 C 
HETATM   86  O   UNK N   1      35.284  16.100   6.423  0.00  0.00    -0.271 OA
HETATM   87  N   UNK N   1      34.706  14.379   7.740  0.00  0.00    -0.337 N 
HETATM   88  C   UNK N   1      36.031  13.814   7.698  0.00  0.00     0.179 C 
HETATM   89  C   UNK N   1      33.723  13.463   8.240  0.00  0.00     0.127 C 
HETATM   90  C   UNK N   1      35.736  12.328   7.583  0.00  0.00     0.037 C 
HETATM   91  C   UNK N   1      34.360  12.099   8.178  0.00  0.00     0.022 C 
BRANCH  88  92
HETATM   92  C   UNK N   1      36.874  14.104   8.921  0.00  0.00     0.241 C 
HETATM   93  O   UNK N   1      36.359  14.545   9.931  0.00  0.00    -0.271 OA
HETATM   94  N   UNK N   1      38.217  13.880   8.908  0.00  0.00    -0.346 N 
HETATM   95  H   UNK N   1      38.743  14.112   9.707  0.00  0.00     0.163 HD
BRANCH  94  96
HETATM   96  C   UNK N   1      38.902  13.312   7.763  0.00  0.00     0.172 C 
HETATM   97  C   UNK N   1      39.769  14.352   7.073  0.00  0.00     0.042 C 
BRANCH  96  98
HETATM   98  C   UNK N   1      39.689  12.087   8.116  0.00  0.00     0.237 C 
HETATM   99  N   UNK N   1      39.044  10.969   8.503  0.00  0.00    -0.368 N 
HETATM  100  H   UNK N   1      39.487  10.094   8.426  0.00  0.00     0.159 HD
HETATM  101  H   UNK N   1      38.129  11.029   8.861  0.00  0.00     0.159 HD
HETATM  102  O   UNK N   1      40.909  12.103   8.093  0.00  0.00    -0.271 OA
ENDBRANCH  96  98
ENDBRANCH  94  96
ENDBRANCH  88  92
ENDBRANCH  84  85
BRANCH  84 103
HETATM  103  C   UNK N   1      32.207  16.191   7.622  0.00  0.00     0.035 C 
BRANCH 103 104
HETATM  104  C   UNK N   1      32.429  17.661   7.924  0.00  0.00     0.004 C 
BRANCH 104 105
HETATM  105  C   UNK N   1      31.334  18.174   8.852  0.00  0.00     0.020 C 
BRANCH 105 106
HETATM  106  C   UNK N   1      29.972  17.568   8.528  0.00  0.00     0.138 C 
BRANCH 106 107
HETATM  107  N   UNK N   1      28.930  18.566   8.609  0.00  0.00    -0.227 N 
HETATM  108  C   UNK N   1      28.209  18.987   7.615  0.00  0.00     0.669 C 
HETATM  109  N   UNK N   1      27.231  19.980   7.870  0.00  0.00    -0.227 N 
HETATM  110  N   UNK N   1      28.370  18.516   6.272  0.00  0.00    -0.227 N 
HETATM  111  H   UNK N   1      27.103  20.301   8.793  0.00  0.00     0.177 HD
HETATM  112  H   UNK N   1      27.770  18.900   5.591  0.00  0.00     0.177 HD
ATOM    113  HN  UNK N   1      28.746  18.976   9.525  1.00  0.00     0.177 HD
BRANCH 109 114
HETATM  114  C   UNK N   1      26.417  20.534   6.819  0.00  0.00     0.133 C 
HETATM  115  C   UNK N   1      27.131  21.712   6.188  0.00  0.00     0.027 C 
ENDBRANCH 109 114
BRANCH 110 116
HETATM  116  C   UNK N   1      29.322  17.537   5.821  0.00  0.00     0.133 C 
HETATM  117  C   UNK N   1      29.339  17.515   4.308  0.00  0.00     0.027 C 
ENDBRANCH 110 116
ENDBRANCH 106 107
ENDBRANCH 105 106
ENDBRANCH 104 105
ENDBRANCH 103 104
ENDBRANCH  84 103
ENDBRANCH  81  84
ENDBRANCH  75  80
ENDBRANCH  73  75
ENDBRANCH  70  71
BRANCH  70 118
HETATM  118  C   UNK N   1      31.252  12.028   1.907  0.00  0.00     0.035 C 
BRANCH 118 119
HETATM  119  C   UNK N   1      30.569  10.679   2.016  0.00  0.00     0.004 C 
BRANCH 119 120
HETATM  120  C   UNK N   1      31.433   9.749   2.839  0.00  0.00     0.020 C 
BRANCH 120 121
HETATM  121  C   UNK N   1      30.712   9.405   4.122  0.00  0.00     0.138 C 
BRANCH 121 122
HETATM  122  N   UNK N   1      29.288   9.520   3.925  0.00  0.00    -0.227 N 
HETATM  123  C   UNK N   1      28.451   8.766   4.547  0.00  0.00     0.669 C 
HETATM  124  N   UNK N   1      27.065   8.907   4.266  0.00  0.00    -0.227 N 
HETATM  125  N   UNK N   1      28.924   7.804   5.490  0.00  0.00    -0.227 N 
HETATM  126  H   UNK N   1      26.798   9.342   3.423  0.00  0.00     0.177 HD
HETATM  127  H   UNK N   1      29.767   7.981   5.969  0.00  0.00     0.177 HD
ATOM    128  HN  UNK N   1      28.934  10.220   3.274  1.00  0.00     0.177 HD
BRANCH 124 129
HETATM  129  C   UNK N   1      26.033   8.443   5.157  0.00  0.00     0.133 C 
HETATM  130  C   UNK N   1      24.867   7.908   4.357  0.00  0.00     0.027 C 
ENDBRANCH 124 129
BRANCH 125 131
HETATM  131  C   UNK N   1      28.212   6.583   5.768  0.00  0.00     0.133 C 
HETATM  132  C   UNK N   1      28.420   5.577   4.657  0.00  0.00     0.027 C 
ENDBRANCH 125 131
ENDBRANCH 121 122
ENDBRANCH 120 121
ENDBRANCH 119 120
ENDBRANCH 118 119
ENDBRANCH  70 118
ENDBRANCH   1  70
TORSDOF 46
ENDMDL
MODEL 7
REMARK VINA RESULT:      -6.8      2.605      7.522
REMARK WARNING: 32 MAX_TORS EXCEEDED!!!
REMARK  46 active torsions:
REMARK  status: ('A' for Active; 'I' for Inactive)
REMARK    1  A    between atoms: C_9  and  C_13 
REMARK    2  A    between atoms: C_12  and  N_11 
REMARK       I    between atoms: N_11  and  C_14 
REMARK    3  A    between atoms: C_12  and  C_13 
REMARK    4  A    between atoms: C_12  and  C_16 
REMARK       I    between atoms: N_15  and  C_16 
REMARK    5  A    between atoms: N_15  and  C_19 
REMARK    6  A    between atoms: C_18  and  C_19 
REMARK       I    between atoms: C_18  and  N_22 
REMARK    7  A    between atoms: C_19  and  C_32 
REMARK    8  A    between atoms: C_21  and  C_20 
REMARK    9  A    between atoms: C_20  and  C_81 
REMARK   10  A    between atoms: C_21  and  N_22 
REMARK   11  A    between atoms: C_21  and  C_24 
REMARK       I    between atoms: N_23  and  C_24 
REMARK   12  A    between atoms: N_23  and  C_27 
REMARK   13  A    between atoms: C_26  and  C_27 
REMARK       I    between atoms: C_26  and  N_30 
REMARK   14  A    between atoms: C_27  and  C_90 
REMARK   15  A    between atoms: C_29  and  C_28 
REMARK   16  A    between atoms: C_28  and  C_74 
REMARK   17  A    between atoms: C_29  and  N_30 
REMARK   18  A    between atoms: C_29  and  C_35 
REMARK   19  A    between atoms: C_32  and  C_56 
REMARK       I    between atoms: N_34  and  C_35 
REMARK   20  A    between atoms: N_34  and  C_38 
REMARK   21  A    between atoms: C_37  and  C_38 
REMARK       I    between atoms: C_37  and  N_41 
REMARK   22  A    between atoms: C_38  and  C_88 
REMARK   23  A    between atoms: C_40  and  C_39 
REMARK   24  A    between atoms: C_39  and  C_71 
REMARK   25  A    between atoms: C_40  and  N_41 
REMARK   26  A    between atoms: C_40  and  C_43 
REMARK       I    between atoms: N_42  and  C_43 
REMARK   27  A    between atoms: N_42  and  C_46 
REMARK   28  A    between atoms: C_45  and  C_46 
REMARK       I    between atoms: C_45  and  N_49 
REMARK   29  A    between atoms: C_46  and  C_92 
REMARK   30  A    between atoms: C_50  and  C_63 
REMARK       I    between atoms: C_63  and  N_65 
REMARK   31  A    between atoms: N_65  and  C_66 
REMARK   32  A    between atoms: C_66  and  C_67 
REMARK       I    between atoms: C_67  and  N_68 
REMARK   33  A    between atoms: C_77  and  O_80 
REMARK   34  A    between atoms: C_88  and  C_89 
REMARK   35  A    between atoms: C_89  and  C_94 
REMARK   36  A    between atoms: C_90  and  O_91 
REMARK   37  A    between atoms: C_92  and  C_93 
REMARK   38  A    between atoms: C_93  and  C_105 
REMARK   39  A    between atoms: C_94  and  C_95 
REMARK   40  A    between atoms: C_95  and  N_96 
REMARK       I    between atoms: C_98  and  N_99 
REMARK       I    between atoms: C_98  and  N_100 
REMARK   41  A    between atoms: N_99  and  C_101 
REMARK   42  A    between atoms: N_100  and  C_103 
REMARK   43  A    between atoms: C_105  and  C_106 
REMARK   44  A    between atoms: C_106  and  N_107 
REMARK       I    between atoms: C_109  and  N_110 
REMARK       I    between atoms: C_109  and  N_113 
REMARK   45  A    between atoms: N_110  and  C_111 
REMARK   46  A    between atoms: N_113  and  C_114 
ROOT
HETATM    1  N   UNK N   1      30.294  13.434   3.786  0.00  0.00    -0.346 N 
HETATM    2  C   UNK N   1      29.352  13.997   4.571  0.00  0.00     0.241 C 
HETATM    3  O   UNK N   1      29.654  14.381   5.696  0.00  0.00    -0.271 OA
HETATM    4  H   UNK N   1      30.137  13.326   2.819  0.00  0.00     0.163 HD
ENDROOT
BRANCH   2   5
HETATM    5  C   UNK N   1      27.939  14.163   4.076  0.00  0.00     0.180 C 
BRANCH   5   6
HETATM    6  C   UNK N   1      27.725  13.207   2.891  0.00  0.00     0.073 C 
BRANCH   6   7
HETATM    7  C   UNK N   1      26.435  13.250   2.149  0.00  0.00    -0.056 A 
HETATM    8  C   UNK N   1      25.788  14.484   2.053  0.00  0.00     0.010 A 
HETATM    9  C   UNK N   1      24.596  14.605   1.339  0.00  0.00     0.037 A 
HETATM   10  C   UNK N   1      24.049  13.488   0.707  0.00  0.00     0.065 A 
HETATM   11  C   UNK N   1      24.693  12.248   0.796  0.00  0.00     0.037 A 
HETATM   12  C   UNK N   1      25.888  12.128   1.516  0.00  0.00     0.010 A 
BRANCH  10  13
HETATM   13  O   UNK N   1      22.906  13.605   0.014  0.00  0.00    -0.361 OA
HETATM   14  H   UNK N   1      22.655  12.957  -0.616  0.00  0.00     0.217 HD
ENDBRANCH  10  13
ENDBRANCH   6   7
ENDBRANCH   5   6
BRANCH   5  15
HETATM   15  N   UNK N   1      27.096  13.809   5.188  0.00  0.00    -0.346 N 
HETATM   16  C   UNK N   1      26.358  14.746   5.832  0.00  0.00     0.243 C 
HETATM   17  O   UNK N   1      26.635  15.935   5.723  0.00  0.00    -0.271 OA
HETATM   18  H   UNK N   1      27.055  12.872   5.486  0.00  0.00     0.163 HD
BRANCH  16  19
HETATM   19  C   UNK N   1      25.089  14.345   6.508  0.00  0.00     0.200 C 
BRANCH  19  20
HETATM   20  N   UNK N   1      25.357  14.233   7.929  0.00  0.00    -0.344 N 
HETATM   21  C   UNK N   1      24.777  13.310   8.748  0.00  0.00     0.241 C 
HETATM   22  O   UNK N   1      25.204  13.180   9.883  0.00  0.00    -0.271 OA
HETATM   23  H   UNK N   1      26.000  14.862   8.328  0.00  0.00     0.163 HD
BRANCH  21  24
HETATM   24  C   UNK N   1      23.609  12.446   8.311  0.00  0.00     0.180 C 
BRANCH  24  25
HETATM   25  C   UNK N   1      22.332  12.900   9.054  0.00  0.00     0.074 C 
BRANCH  25  26
HETATM   26  C   UNK N   1      21.412  13.921   8.437  0.00  0.00    -0.040 A 
HETATM   27  C   UNK N   1      21.010  13.763   7.107  0.00  0.00     0.010 A 
HETATM   28  C   UNK N   1      20.246  14.754   6.483  0.00  0.00     0.018 A 
HETATM   29  C   UNK N   1      19.903  15.902   7.199  0.00  0.00     0.087 A 
HETATM   30  N   UNK N   1      20.314  16.051   8.487  0.00  0.00    -0.375 N 
HETATM   31  C   UNK N   1      21.064  15.100   9.106  0.00  0.00     0.094 A 
ATOM     32  HN  UNK N   1      20.054  16.893   9.000  1.00  0.00     0.164 HD
ENDBRANCH  25  26
ENDBRANCH  24  25
BRANCH  24  33
HETATM   33  N   UNK N   1      23.902  11.025   8.386  0.00  0.00    -0.346 N 
HETATM   34  C   UNK N   1      23.699  10.137   7.366  0.00  0.00     0.241 C 
HETATM   35  O   UNK N   1      23.979   8.964   7.544  0.00  0.00    -0.271 OA
HETATM   36  H   UNK N   1      24.270  10.676   9.230  0.00  0.00     0.163 HD
BRANCH  34  37
HETATM   37  C   UNK N   1      23.020  10.518   6.068  0.00  0.00     0.180 C 
BRANCH  37  38
HETATM   38  N   UNK N   1      23.719   9.855   5.006  0.00  0.00    -0.346 N 
HETATM   39  C   UNK N   1      24.877  10.352   4.530  0.00  0.00     0.241 C 
HETATM   40  O   UNK N   1      25.248  11.475   4.840  0.00  0.00    -0.271 OA
HETATM   41  H   UNK N   1      23.350   9.028   4.621  0.00  0.00     0.163 HD
BRANCH  39  42
HETATM   42  C   UNK N   1      25.809   9.437   3.832  0.00  0.00     0.180 C 
BRANCH  42  43
HETATM   43  N   UNK N   1      26.970   9.216   4.658  0.00  0.00    -0.348 N 
HETATM   44  C   UNK N   1      28.221   9.414   4.191  0.00  0.00     0.214 C 
HETATM   45  C   UNK N   1      29.383   9.230   5.100  0.00  0.00     0.117 C 
HETATM   46  O   UNK N   1      28.409   9.749   3.031  0.00  0.00    -0.274 OA
HETATM   47  H   UNK N   1      26.847   8.912   5.587  0.00  0.00     0.163 HD
ENDBRANCH  42  43
BRANCH  42  48
HETATM   48  C   UNK N   1      25.192   8.126   3.406  0.00  0.00     0.073 C 
BRANCH  48  49
HETATM   49  C   UNK N   1      24.854   8.275   1.965  0.00  0.00    -0.055 A 
HETATM   50  C   UNK N   1      25.880   8.439   1.019  0.00  0.00     0.008 A 
HETATM   51  C   UNK N   1      25.574   8.650  -0.324  0.00  0.00     0.013 A 
HETATM   52  C   UNK N   1      24.241   8.689  -0.732  0.00  0.00    -0.026 A 
HETATM   53  C   UNK N   1      23.926   8.899  -2.076  0.00  0.00     0.012 A 
HETATM   54  C   UNK N   1      23.205   8.512   0.217  0.00  0.00    -0.025 A 
HETATM   55  C   UNK N   1      22.589   8.929  -2.482  0.00  0.00     0.001 A 
HETATM   56  C   UNK N   1      21.565   8.748  -1.545  0.00  0.00     0.001 A 
HETATM   57  C   UNK N   1      21.872   8.542  -0.197  0.00  0.00     0.012 A 
HETATM   58  C   UNK N   1      23.518   8.312   1.562  0.00  0.00     0.019 A 
ENDBRANCH  48  49
ENDBRANCH  42  48
ENDBRANCH  39  42
ENDBRANCH  37  38
BRANCH  37  59
HETATM   59  C   UNK N   1      21.512  10.313   5.974  0.00  0.00     0.073 C 
BRANCH  59  60
HETATM   60  C   UNK N   1      21.062  10.703   4.607  0.00  0.00    -0.056 A 
HETATM   61  C   UNK N   1      21.443  11.941   4.079  0.00  0.00     0.009 A 
HETATM   62  C   UNK N   1      21.115  12.270   2.761  0.00  0.00     0.024 A 
HETATM   63  C   UNK N   1      20.412  11.358   1.968  0.00  0.00     0.034 A 
HETATM   64  C   UNK N   1      20.018  10.126   2.498  0.00  0.00     0.024 A 
HETATM   65 Cl   UNK N   1      20.046  11.750   0.303  0.00  0.00    -0.084 Cl
HETATM   66  C   UNK N   1      20.345   9.797   3.816  0.00  0.00     0.009 A 
ENDBRANCH  59  60
ENDBRANCH  37  59
ENDBRANCH  34  37
ENDBRANCH  24  33
ENDBRANCH  21  24
ENDBRANCH  19  20
BRANCH  19  67
HETATM   67  C   UNK N   1      24.044  15.433   6.297  0.00  0.00     0.199 C 
BRANCH  67  68
HETATM   68  O   UNK N   1      23.753  15.606   4.941  0.00  0.00    -0.398 OA
HETATM   69  H   UNK N   1      23.190  15.900   4.208  0.00  0.00     0.209 HD
ENDBRANCH  67  68
ENDBRANCH  19  67
ENDBRANCH  16  19
ENDBRANCH   5  15
ENDBRANCH   2   5
BRANCH   1  70
HETATM   70  C   UNK N   1      31.534  12.992   4.378  0.00  0.00     0.176 C 
BRANCH  70  71
HETATM   71  C   UNK N   1      31.848  11.662   3.727  0.00  0.00     0.241 C 
HETATM   72  O   UNK N   1      31.216  11.318   2.743  0.00  0.00    -0.271 OA
HETATM   73  N   UNK N   1      32.913  10.915   4.135  0.00  0.00    -0.346 N 
HETATM   74  H   UNK N   1      33.154  10.108   3.624  0.00  0.00     0.163 HD
BRANCH  73  75
HETATM   75  C   UNK N   1      33.705  11.270   5.300  0.00  0.00     0.177 C 
BRANCH  75  76
HETATM   76  C   UNK N   1      35.151  10.794   5.269  0.00  0.00     0.038 C 
BRANCH  76  77
HETATM   77  C   UNK N   1      36.041  11.578   4.327  0.00  0.00    -0.020 C 
HETATM   78  C   UNK N   1      36.358  12.934   4.929  0.00  0.00     0.009 C 
HETATM   79  C   UNK N   1      37.336  10.815   4.143  0.00  0.00     0.009 C 
ENDBRANCH  76  77
ENDBRANCH  75  76
BRANCH  75  80
HETATM   80  C   UNK N   1      32.993  11.110   6.622  0.00  0.00     0.241 C 
HETATM   81  N   UNK N   1      33.118  12.008   7.636  0.00  0.00    -0.346 N 
HETATM   82  H   UNK N   1      32.726  11.773   8.509  0.00  0.00     0.163 HD
HETATM   83  O   UNK N   1      32.340  10.096   6.808  0.00  0.00    -0.271 OA
BRANCH  81  84
HETATM   84  C   UNK N   1      33.786  13.288   7.518  0.00  0.00     0.176 C 
BRANCH  84  85
HETATM   85  C   UNK N   1      32.927  14.478   7.917  0.00  0.00     0.243 C 
HETATM   86  O   UNK N   1      31.911  14.254   8.548  0.00  0.00    -0.271 OA
HETATM   87  N   UNK N   1      33.175  15.743   7.446  0.00  0.00    -0.337 N 
HETATM   88  C   UNK N   1      32.082  16.673   7.313  0.00  0.00     0.179 C 
HETATM   89  C   UNK N   1      34.279  16.051   6.585  0.00  0.00     0.127 C 
HETATM   90  C   UNK N   1      32.278  17.190   5.898  0.00  0.00     0.037 C 
HETATM   91  C   UNK N   1      33.747  17.018   5.559  0.00  0.00     0.022 C 
BRANCH  88  92
HETATM   92  C   UNK N   1      32.105  17.811   8.311  0.00  0.00     0.241 C 
HETATM   93  O   UNK N   1      33.113  18.478   8.460  0.00  0.00    -0.271 OA
HETATM   94  N   UNK N   1      31.004  18.104   9.056  0.00  0.00    -0.346 N 
HETATM   95  H   UNK N   1      31.061  18.827   9.721  0.00  0.00     0.163 HD
BRANCH  94  96
HETATM   96  C   UNK N   1      29.750  17.392   8.907  0.00  0.00     0.172 C 
HETATM   97  C   UNK N   1      29.210  16.947  10.256  0.00  0.00     0.042 C 
BRANCH  96  98
HETATM   98  C   UNK N   1      28.731  18.179   8.141  0.00  0.00     0.237 C 
HETATM   99  N   UNK N   1      27.691  18.735   8.793  0.00  0.00    -0.368 N 
HETATM  100  H   UNK N   1      27.210  19.496   8.396  0.00  0.00     0.159 HD
HETATM  101  H   UNK N   1      27.414  18.381   9.670  0.00  0.00     0.159 HD
HETATM  102  O   UNK N   1      28.813  18.290   6.929  0.00  0.00    -0.271 OA
ENDBRANCH  96  98
ENDBRANCH  94  96
ENDBRANCH  88  92
ENDBRANCH  84  85
BRANCH  84 103
HETATM  103  C   UNK N   1      35.036  13.379   8.391  0.00  0.00     0.035 C 
BRANCH 103 104
HETATM  104  C   UNK N   1      35.565  12.044   8.880  0.00  0.00     0.004 C 
BRANCH 104 105
HETATM  105  C   UNK N   1      36.596  12.263   9.981  0.00  0.00     0.020 C 
BRANCH 105 106
HETATM  106  C   UNK N   1      35.979  12.186  11.374  0.00  0.00     0.138 C 
BRANCH 106 107
HETATM  107  N   UNK N   1      36.496  13.232  12.226  0.00  0.00    -0.227 N 
HETATM  108  C   UNK N   1      36.451  13.241  13.523  0.00  0.00     0.669 C 
HETATM  109  N   UNK N   1      37.002  14.354  14.205  0.00  0.00    -0.227 N 
HETATM  110  N   UNK N   1      35.853  12.194  14.296  0.00  0.00    -0.227 N 
HETATM  111  H   UNK N   1      37.428  15.072  13.683  0.00  0.00     0.177 HD
HETATM  112  H   UNK N   1      35.874  12.297  15.276  0.00  0.00     0.177 HD
ATOM    113  HN  UNK N   1      36.932  14.034  11.769  1.00  0.00     0.177 HD
BRANCH 109 114
HETATM  114  C   UNK N   1      36.958  14.464  15.640  0.00  0.00     0.133 C 
HETATM  115  C   UNK N   1      37.440  15.838  16.062  0.00  0.00     0.027 C 
ENDBRANCH 109 114
BRANCH 110 116
HETATM  116  C   UNK N   1      35.225  11.007  13.780  0.00  0.00     0.133 C 
HETATM  117  C   UNK N   1      33.841  10.873  14.378  0.00  0.00     0.027 C 
ENDBRANCH 110 116
ENDBRANCH 106 107
ENDBRANCH 105 106
ENDBRANCH 104 105
ENDBRANCH 103 104
ENDBRANCH  84 103
ENDBRANCH  81  84
ENDBRANCH  75  80
ENDBRANCH  73  75
ENDBRANCH  70  71
BRANCH  70 118
HETATM  118  C   UNK N   1      32.632  14.020   4.155  0.00  0.00     0.035 C 
BRANCH 118 119
HETATM  119  C   UNK N   1      32.766  14.356   2.684  0.00  0.00     0.004 C 
BRANCH 119 120
HETATM  120  C   UNK N   1      34.222  14.268   2.284  0.00  0.00     0.020 C 
BRANCH 120 121
HETATM  121  C   UNK N   1      34.379  13.233   1.194  0.00  0.00     0.138 C 
BRANCH 121 122
HETATM  122  N   UNK N   1      33.083  12.721   0.822  0.00  0.00    -0.227 N 
HETATM  123  C   UNK N   1      32.908  12.018  -0.243  0.00  0.00     0.669 C 
HETATM  124  N   UNK N   1      31.593  11.588  -0.568  0.00  0.00    -0.227 N 
HETATM  125  N   UNK N   1      34.023  11.697  -1.075  0.00  0.00    -0.227 N 
HETATM  126  H   UNK N   1      30.829  12.062  -0.164  0.00  0.00     0.177 HD
HETATM  127  H   UNK N   1      34.917  11.627  -0.667  0.00  0.00     0.177 HD
ATOM    128  HN  UNK N   1      32.282  12.921   1.419  1.00  0.00     0.177 HD
BRANCH 124 129
HETATM  129  C   UNK N   1      31.326  10.490  -1.461  0.00  0.00     0.133 C 
HETATM  130  C   UNK N   1      30.241  10.877  -2.440  0.00  0.00     0.027 C 
ENDBRANCH 124 129
BRANCH 125 131
HETATM  131  C   UNK N   1      33.887  11.471  -2.491  0.00  0.00     0.133 C 
HETATM  132  C   UNK N   1      33.875  12.784  -3.244  0.00  0.00     0.027 C 
ENDBRANCH 125 131
ENDBRANCH 121 122
ENDBRANCH 120 121
ENDBRANCH 119 120
ENDBRANCH 118 119
ENDBRANCH  70 118
ENDBRANCH   1  70
TORSDOF 46
ENDMDL
MODEL 8
REMARK VINA RESULT:      -6.7      3.047      8.143
REMARK WARNING: 32 MAX_TORS EXCEEDED!!!
REMARK  46 active torsions:
REMARK  status: ('A' for Active; 'I' for Inactive)
REMARK    1  A    between atoms: C_9  and  C_13 
REMARK    2  A    between atoms: C_12  and  N_11 
REMARK       I    between atoms: N_11  and  C_14 
REMARK    3  A    between atoms: C_12  and  C_13 
REMARK    4  A    between atoms: C_12  and  C_16 
REMARK       I    between atoms: N_15  and  C_16 
REMARK    5  A    between atoms: N_15  and  C_19 
REMARK    6  A    between atoms: C_18  and  C_19 
REMARK       I    between atoms: C_18  and  N_22 
REMARK    7  A    between atoms: C_19  and  C_32 
REMARK    8  A    between atoms: C_21  and  C_20 
REMARK    9  A    between atoms: C_20  and  C_81 
REMARK   10  A    between atoms: C_21  and  N_22 
REMARK   11  A    between atoms: C_21  and  C_24 
REMARK       I    between atoms: N_23  and  C_24 
REMARK   12  A    between atoms: N_23  and  C_27 
REMARK   13  A    between atoms: C_26  and  C_27 
REMARK       I    between atoms: C_26  and  N_30 
REMARK   14  A    between atoms: C_27  and  C_90 
REMARK   15  A    between atoms: C_29  and  C_28 
REMARK   16  A    between atoms: C_28  and  C_74 
REMARK   17  A    between atoms: C_29  and  N_30 
REMARK   18  A    between atoms: C_29  and  C_35 
REMARK   19  A    between atoms: C_32  and  C_56 
REMARK       I    between atoms: N_34  and  C_35 
REMARK   20  A    between atoms: N_34  and  C_38 
REMARK   21  A    between atoms: C_37  and  C_38 
REMARK       I    between atoms: C_37  and  N_41 
REMARK   22  A    between atoms: C_38  and  C_88 
REMARK   23  A    between atoms: C_40  and  C_39 
REMARK   24  A    between atoms: C_39  and  C_71 
REMARK   25  A    between atoms: C_40  and  N_41 
REMARK   26  A    between atoms: C_40  and  C_43 
REMARK       I    between atoms: N_42  and  C_43 
REMARK   27  A    between atoms: N_42  and  C_46 
REMARK   28  A    between atoms: C_45  and  C_46 
REMARK       I    between atoms: C_45  and  N_49 
REMARK   29  A    between atoms: C_46  and  C_92 
REMARK   30  A    between atoms: C_50  and  C_63 
REMARK       I    between atoms: C_63  and  N_65 
REMARK   31  A    between atoms: N_65  and  C_66 
REMARK   32  A    between atoms: C_66  and  C_67 
REMARK       I    between atoms: C_67  and  N_68 
REMARK   33  A    between atoms: C_77  and  O_80 
REMARK   34  A    between atoms: C_88  and  C_89 
REMARK   35  A    between atoms: C_89  and  C_94 
REMARK   36  A    between atoms: C_90  and  O_91 
REMARK   37  A    between atoms: C_92  and  C_93 
REMARK   38  A    between atoms: C_93  and  C_105 
REMARK   39  A    between atoms: C_94  and  C_95 
REMARK   40  A    between atoms: C_95  and  N_96 
REMARK       I    between atoms: C_98  and  N_99 
REMARK       I    between atoms: C_98  and  N_100 
REMARK   41  A    between atoms: N_99  and  C_101 
REMARK   42  A    between atoms: N_100  and  C_103 
REMARK   43  A    between atoms: C_105  and  C_106 
REMARK   44  A    between atoms: C_106  and  N_107 
REMARK       I    between atoms: C_109  and  N_110 
REMARK       I    between atoms: C_109  and  N_113 
REMARK   45  A    between atoms: N_110  and  C_111 
REMARK   46  A    between atoms: N_113  and  C_114 
ROOT
HETATM    1  N   UNK N   1      28.336  12.899   3.699  0.00  0.00    -0.346 N 
HETATM    2  C   UNK N   1      27.852  13.412   2.549  0.00  0.00     0.241 C 
HETATM    3  O   UNK N   1      28.594  13.529   1.579  0.00  0.00    -0.271 OA
HETATM    4  H   UNK N   1      27.722  12.591   4.405  0.00  0.00     0.163 HD
ENDROOT
BRANCH   2   5
HETATM    5  C   UNK N   1      26.410  13.835   2.445  0.00  0.00     0.180 C 
BRANCH   5   6
HETATM    6  C   UNK N   1      25.606  12.672   1.841  0.00  0.00     0.073 C 
BRANCH   6   7
HETATM    7  C   UNK N   1      26.023  11.273   2.136  0.00  0.00    -0.056 A 
HETATM    8  C   UNK N   1      25.643  10.733   3.367  0.00  0.00     0.010 A 
HETATM    9  C   UNK N   1      25.965   9.416   3.692  0.00  0.00     0.037 A 
HETATM   10  C   UNK N   1      26.665   8.626   2.778  0.00  0.00     0.065 A 
HETATM   11  C   UNK N   1      27.045   9.159   1.540  0.00  0.00     0.037 A 
HETATM   12  C   UNK N   1      26.724  10.484   1.217  0.00  0.00     0.010 A 
BRANCH  10  13
HETATM   13  O   UNK N   1      26.968   7.357   3.087  0.00  0.00    -0.361 OA
HETATM   14  H   UNK N   1      26.376   6.825   3.583  0.00  0.00     0.217 HD
ENDBRANCH  10  13
ENDBRANCH   6   7
ENDBRANCH   5   6
BRANCH   5  15
HETATM   15  N   UNK N   1      25.990  14.112   3.795  0.00  0.00    -0.346 N 
HETATM   16  C   UNK N   1      25.359  15.270   4.107  0.00  0.00     0.243 C 
HETATM   17  O   UNK N   1      25.430  16.236   3.356  0.00  0.00    -0.271 OA
HETATM   18  H   UNK N   1      26.164  13.450   4.501  0.00  0.00     0.163 HD
BRANCH  16  19
HETATM   19  C   UNK N   1      24.413  15.303   5.262  0.00  0.00     0.200 C 
BRANCH  19  20
HETATM   20  N   UNK N   1      23.906  13.959   5.462  0.00  0.00    -0.344 N 
HETATM   21  C   UNK N   1      22.627  13.670   5.837  0.00  0.00     0.241 C 
HETATM   22  O   UNK N   1      22.252  12.511   5.800  0.00  0.00    -0.271 OA
HETATM   23  H   UNK N   1      24.524  13.207   5.316  0.00  0.00     0.163 HD
BRANCH  21  24
HETATM   24  C   UNK N   1      21.654  14.732   6.314  0.00  0.00     0.180 C 
BRANCH  24  25
HETATM   25  C   UNK N   1      22.013  15.141   7.760  0.00  0.00     0.074 C 
BRANCH  25  26
HETATM   26  C   UNK N   1      21.795  14.180   8.901  0.00  0.00    -0.040 A 
HETATM   27  C   UNK N   1      22.828  13.313   9.270  0.00  0.00     0.010 A 
HETATM   28  C   UNK N   1      22.610  12.342  10.252  0.00  0.00     0.018 A 
HETATM   29  C   UNK N   1      21.350  12.243  10.845  0.00  0.00     0.087 A 
HETATM   30  N   UNK N   1      20.350  13.082  10.465  0.00  0.00    -0.375 N 
HETATM   31  C   UNK N   1      20.543  14.027   9.507  0.00  0.00     0.094 A 
ATOM     32  HN  UNK N   1      19.435  13.001  10.909  1.00  0.00     0.164 HD
ENDBRANCH  25  26
ENDBRANCH  24  25
BRANCH  24  33
HETATM   33  N   UNK N   1      20.266  14.360   6.096  0.00  0.00    -0.346 N 
HETATM   34  C   UNK N   1      19.546  14.673   4.977  0.00  0.00     0.241 C 
HETATM   35  O   UNK N   1      18.384  14.311   4.906  0.00  0.00    -0.271 OA
HETATM   36  H   UNK N   1      19.812  13.850   6.805  0.00  0.00     0.163 HD
BRANCH  34  37
HETATM   37  C   UNK N   1      20.083  15.561   3.876  0.00  0.00     0.180 C 
BRANCH  37  38
HETATM   38  N   UNK N   1      20.047  14.806   2.657  0.00  0.00    -0.346 N 
HETATM   39  C   UNK N   1      21.166  14.237   2.169  0.00  0.00     0.241 C 
HETATM   40  O   UNK N   1      22.262  14.521   2.628  0.00  0.00    -0.271 OA
HETATM   41  H   UNK N   1      19.196  14.701   2.174  0.00  0.00     0.163 HD
BRANCH  39  42
HETATM   42  C   UNK N   1      21.032  13.089   1.243  0.00  0.00     0.180 C 
BRANCH  42  43
HETATM   43  N   UNK N   1      19.779  13.188   0.537  0.00  0.00    -0.348 N 
HETATM   44  C   UNK N   1      18.795  12.277   0.705  0.00  0.00     0.214 C 
HETATM   45  C   UNK N   1      17.500  12.456  -0.001  0.00  0.00     0.117 C 
HETATM   46  O   UNK N   1      18.957  11.312   1.436  0.00  0.00    -0.274 OA
HETATM   47  H   UNK N   1      19.637  13.938  -0.085  0.00  0.00     0.163 HD
ENDBRANCH  42  43
BRANCH  42  48
HETATM   48  C   UNK N   1      22.183  12.927   0.280  0.00  0.00     0.073 C 
BRANCH  48  49
HETATM   49  C   UNK N   1      22.649  11.522   0.421  0.00  0.00    -0.055 A 
HETATM   50  C   UNK N   1      23.344  10.906  -0.633  0.00  0.00     0.008 A 
HETATM   51  C   UNK N   1      23.725   9.568  -0.541  0.00  0.00     0.013 A 
HETATM   52  C   UNK N   1      23.422   8.841   0.609  0.00  0.00    -0.026 A 
HETATM   53  C   UNK N   1      23.801   7.501   0.709  0.00  0.00     0.012 A 
HETATM   54  C   UNK N   1      22.734   9.462   1.679  0.00  0.00    -0.025 A 
HETATM   55  C   UNK N   1      23.503   6.778   1.868  0.00  0.00     0.001 A 
HETATM   56  C   UNK N   1      22.828   7.393   2.928  0.00  0.00     0.001 A 
HETATM   57  C   UNK N   1      22.441   8.733   2.833  0.00  0.00     0.012 A 
HETATM   58  C   UNK N   1      22.346  10.799   1.576  0.00  0.00     0.019 A 
ENDBRANCH  48  49
ENDBRANCH  42  48
ENDBRANCH  39  42
ENDBRANCH  37  38
BRANCH  37  59
HETATM   59  C   UNK N   1      19.454  16.940   3.711  0.00  0.00     0.073 C 
BRANCH  59  60
HETATM   60  C   UNK N   1      20.544  17.953   3.614  0.00  0.00    -0.056 A 
HETATM   61  C   UNK N   1      21.798  17.679   4.170  0.00  0.00     0.009 A 
HETATM   62  C   UNK N   1      22.853  18.576   3.991  0.00  0.00     0.024 A 
HETATM   63  C   UNK N   1      22.658  19.745   3.250  0.00  0.00     0.034 A 
HETATM   64  C   UNK N   1      21.402  20.029   2.706  0.00  0.00     0.024 A 
HETATM   65 Cl   UNK N   1      23.994  20.843   2.984  0.00  0.00    -0.084 Cl
HETATM   66  C   UNK N   1      20.346  19.132   2.884  0.00  0.00     0.009 A 
ENDBRANCH  59  60
ENDBRANCH  37  59
ENDBRANCH  34  37
ENDBRANCH  24  33
ENDBRANCH  21  24
ENDBRANCH  19  20
BRANCH  19  67
HETATM   67  C   UNK N   1      25.169  15.727   6.514  0.00  0.00     0.199 C 
BRANCH  67  68
HETATM   68  O   UNK N   1      26.542  15.828   6.274  0.00  0.00    -0.398 OA
HETATM   69  H   UNK N   1      27.466  15.912   6.557  0.00  0.00     0.209 HD
ENDBRANCH  67  68
ENDBRANCH  19  67
ENDBRANCH  16  19
ENDBRANCH   5  15
ENDBRANCH   2   5
BRANCH   1  70
HETATM   70  C   UNK N   1      29.765  12.807   3.883  0.00  0.00     0.176 C 
BRANCH  70  71
HETATM   71  C   UNK N   1      30.104  13.808   4.967  0.00  0.00     0.241 C 
HETATM   72  O   UNK N   1      29.208  14.455   5.480  0.00  0.00    -0.271 OA
HETATM   73  N   UNK N   1      31.368  13.895   5.471  0.00  0.00    -0.346 N 
HETATM   74  H   UNK N   1      31.533  14.480   6.246  0.00  0.00     0.163 HD
BRANCH  73  75
HETATM   75  C   UNK N   1      32.479  13.152   4.904  0.00  0.00     0.177 C 
BRANCH  75  76
HETATM   76  C   UNK N   1      33.187  12.209   5.868  0.00  0.00     0.038 C 
BRANCH  76  77
HETATM   77  C   UNK N   1      33.693  10.933   5.227  0.00  0.00    -0.020 C 
HETATM   78  C   UNK N   1      35.209  10.949   5.178  0.00  0.00     0.009 C 
HETATM   79  C   UNK N   1      33.247   9.761   6.076  0.00  0.00     0.009 C 
ENDBRANCH  76  77
ENDBRANCH  75  76
BRANCH  75  80
HETATM   80  C   UNK N   1      33.380  13.955   3.996  0.00  0.00     0.241 C 
HETATM   81  N   UNK N   1      34.088  15.033   4.431  0.00  0.00    -0.346 N 
HETATM   82  H   UNK N   1      34.553  15.579   3.756  0.00  0.00     0.163 HD
HETATM   83  O   UNK N   1      33.414  13.665   2.812  0.00  0.00    -0.271 OA
BRANCH  81  84
HETATM   84  C   UNK N   1      34.206  15.428   5.820  0.00  0.00     0.176 C 
BRANCH  84  85
HETATM   85  C   UNK N   1      35.486  14.957   6.494  0.00  0.00     0.243 C 
HETATM   86  O   UNK N   1      36.489  14.882   5.810  0.00  0.00    -0.271 OA
HETATM   87  N   UNK N   1      35.492  14.465   7.775  0.00  0.00    -0.337 N 
HETATM   88  C   UNK N   1      36.494  13.502   8.157  0.00  0.00     0.179 C 
HETATM   89  C   UNK N   1      34.314  14.398   8.590  0.00  0.00     0.127 C 
HETATM   90  C   UNK N   1      35.656  12.418   8.813  0.00  0.00     0.037 C 
HETATM   91  C   UNK N   1      34.384  13.077   9.311  0.00  0.00     0.022 C 
BRANCH  88  92
HETATM   92  C   UNK N   1      37.538  14.033   9.116  0.00  0.00     0.241 C 
HETATM   93  O   UNK N   1      37.206  14.481  10.198  0.00  0.00    -0.271 OA
HETATM   94  N   UNK N   1      38.858  14.018   8.784  0.00  0.00    -0.346 N 
HETATM   95  H   UNK N   1      39.509  14.403   9.415  0.00  0.00     0.163 HD
BRANCH  94  96
HETATM   96  C   UNK N   1      39.342  13.459   7.537  0.00  0.00     0.172 C 
HETATM   97  C   UNK N   1      40.281  14.425   6.832  0.00  0.00     0.042 C 
BRANCH  96  98
HETATM   98  C   UNK N   1      39.976  12.114   7.721  0.00  0.00     0.237 C 
HETATM   99  N   UNK N   1      39.211  11.005   7.667  0.00  0.00    -0.368 N 
HETATM  100  H   UNK N   1      39.621  10.134   7.462  0.00  0.00     0.159 HD
HETATM  101  H   UNK N   1      38.242  11.067   7.832  0.00  0.00     0.159 HD
HETATM  102  O   UNK N   1      41.169  12.014   7.955  0.00  0.00    -0.271 OA
ENDBRANCH  96  98
ENDBRANCH  94  96
ENDBRANCH  88  92
ENDBRANCH  84  85
BRANCH  84 103
HETATM  103  C   UNK N   1      34.186  16.944   6.000  0.00  0.00     0.035 C 
BRANCH 103 104
HETATM  104  C   UNK N   1      32.800  17.557   6.058  0.00  0.00     0.004 C 
BRANCH 104 105
HETATM  105  C   UNK N   1      32.246  17.462   7.474  0.00  0.00     0.020 C 
BRANCH 105 106
HETATM  106  C   UNK N   1      30.830  16.894   7.505  0.00  0.00     0.138 C 
BRANCH 106 107
HETATM  107  N   UNK N   1      30.119  17.216   6.289  0.00  0.00    -0.227 N 
HETATM  108  C   UNK N   1      29.010  17.887   6.217  0.00  0.00     0.669 C 
HETATM  109  N   UNK N   1      28.442  18.108   4.938  0.00  0.00    -0.227 N 
HETATM  110  N   UNK N   1      28.322  18.393   7.367  0.00  0.00    -0.227 N 
HETATM  111  H   UNK N   1      28.914  17.776   4.141  0.00  0.00     0.177 HD
HETATM  112  H   UNK N   1      27.488  18.892   7.203  0.00  0.00     0.177 HD
ATOM    113  HN  UNK N   1      30.522  16.887   5.411  1.00  0.00     0.177 HD
BRANCH 109 114
HETATM  114  C   UNK N   1      27.193  18.806   4.772  0.00  0.00     0.133 C 
HETATM  115  C   UNK N   1      27.416  20.067   3.962  0.00  0.00     0.027 C 
ENDBRANCH 109 114
BRANCH 110 116
HETATM  116  C   UNK N   1      28.732  18.245   8.738  0.00  0.00     0.133 C 
HETATM  117  C   UNK N   1      27.828  17.242   9.423  0.00  0.00     0.027 C 
ENDBRANCH 110 116
ENDBRANCH 106 107
ENDBRANCH 105 106
ENDBRANCH 104 105
ENDBRANCH 103 104
ENDBRANCH  84 103
ENDBRANCH  81  84
ENDBRANCH  75  80
ENDBRANCH  73  75
ENDBRANCH  70  71
BRANCH  70 118
HETATM  118  C   UNK N   1      30.167  11.389   4.258  0.00  0.00     0.035 C 
BRANCH 118 119
HETATM  119  C   UNK N   1      30.238  10.505   3.029  0.00  0.00     0.004 C 
BRANCH 119 120
HETATM  120  C   UNK N   1      30.251   9.055   3.459  0.00  0.00     0.020 C 
BRANCH 120 121
HETATM  121  C   UNK N   1      29.686   8.944   4.856  0.00  0.00     0.138 C 
BRANCH 121 122
HETATM  122  N   UNK N   1      29.330   7.573   5.129  0.00  0.00    -0.227 N 
HETATM  123  C   UNK N   1      29.609   7.008   6.251  0.00  0.00     0.669 C 
HETATM  124  N   UNK N   1      29.268   5.639   6.429  0.00  0.00    -0.227 N 
HETATM  125  N   UNK N   1      30.259   7.752   7.282  0.00  0.00    -0.227 N 
HETATM  126  H   UNK N   1      29.109   5.086   5.629  0.00  0.00     0.177 HD
HETATM  127  H   UNK N   1      30.120   8.726   7.325  0.00  0.00     0.177 HD
ATOM    128  HN  UNK N   1      28.844   7.036   4.412  1.00  0.00     0.177 HD
BRANCH 124 129
HETATM  129  C   UNK N   1      29.145   5.024   7.726  0.00  0.00     0.133 C 
HETATM  130  C   UNK N   1      29.795   3.659   7.710  0.00  0.00     0.027 C 
ENDBRANCH 124 129
BRANCH 125 131
HETATM  131  C   UNK N   1      31.111   7.129   8.262  0.00  0.00     0.133 C 
HETATM  132  C   UNK N   1      30.883   7.732   9.631  0.00  0.00     0.027 C 
ENDBRANCH 125 131
ENDBRANCH 121 122
ENDBRANCH 120 121
ENDBRANCH 119 120
ENDBRANCH 118 119
ENDBRANCH  70 118
ENDBRANCH   1  70
TORSDOF 46
ENDMDL
MODEL 9
REMARK VINA RESULT:      -6.7      3.718     12.563
REMARK WARNING: 32 MAX_TORS EXCEEDED!!!
REMARK  46 active torsions:
REMARK  status: ('A' for Active; 'I' for Inactive)
REMARK    1  A    between atoms: C_9  and  C_13 
REMARK    2  A    between atoms: C_12  and  N_11 
REMARK       I    between atoms: N_11  and  C_14 
REMARK    3  A    between atoms: C_12  and  C_13 
REMARK    4  A    between atoms: C_12  and  C_16 
REMARK       I    between atoms: N_15  and  C_16 
REMARK    5  A    between atoms: N_15  and  C_19 
REMARK    6  A    between atoms: C_18  and  C_19 
REMARK       I    between atoms: C_18  and  N_22 
REMARK    7  A    between atoms: C_19  and  C_32 
REMARK    8  A    between atoms: C_21  and  C_20 
REMARK    9  A    between atoms: C_20  and  C_81 
REMARK   10  A    between atoms: C_21  and  N_22 
REMARK   11  A    between atoms: C_21  and  C_24 
REMARK       I    between atoms: N_23  and  C_24 
REMARK   12  A    between atoms: N_23  and  C_27 
REMARK   13  A    between atoms: C_26  and  C_27 
REMARK       I    between atoms: C_26  and  N_30 
REMARK   14  A    between atoms: C_27  and  C_90 
REMARK   15  A    between atoms: C_29  and  C_28 
REMARK   16  A    between atoms: C_28  and  C_74 
REMARK   17  A    between atoms: C_29  and  N_30 
REMARK   18  A    between atoms: C_29  and  C_35 
REMARK   19  A    between atoms: C_32  and  C_56 
REMARK       I    between atoms: N_34  and  C_35 
REMARK   20  A    between atoms: N_34  and  C_38 
REMARK   21  A    between atoms: C_37  and  C_38 
REMARK       I    between atoms: C_37  and  N_41 
REMARK   22  A    between atoms: C_38  and  C_88 
REMARK   23  A    between atoms: C_40  and  C_39 
REMARK   24  A    between atoms: C_39  and  C_71 
REMARK   25  A    between atoms: C_40  and  N_41 
REMARK   26  A    between atoms: C_40  and  C_43 
REMARK       I    between atoms: N_42  and  C_43 
REMARK   27  A    between atoms: N_42  and  C_46 
REMARK   28  A    between atoms: C_45  and  C_46 
REMARK       I    between atoms: C_45  and  N_49 
REMARK   29  A    between atoms: C_46  and  C_92 
REMARK   30  A    between atoms: C_50  and  C_63 
REMARK       I    between atoms: C_63  and  N_65 
REMARK   31  A    between atoms: N_65  and  C_66 
REMARK   32  A    between atoms: C_66  and  C_67 
REMARK       I    between atoms: C_67  and  N_68 
REMARK   33  A    between atoms: C_77  and  O_80 
REMARK   34  A    between atoms: C_88  and  C_89 
REMARK   35  A    between atoms: C_89  and  C_94 
REMARK   36  A    between atoms: C_90  and  O_91 
REMARK   37  A    between atoms: C_92  and  C_93 
REMARK   38  A    between atoms: C_93  and  C_105 
REMARK   39  A    between atoms: C_94  and  C_95 
REMARK   40  A    between atoms: C_95  and  N_96 
REMARK       I    between atoms: C_98  and  N_99 
REMARK       I    between atoms: C_98  and  N_100 
REMARK   41  A    between atoms: N_99  and  C_101 
REMARK   42  A    between atoms: N_100  and  C_103 
REMARK   43  A    between atoms: C_105  and  C_106 
REMARK   44  A    between atoms: C_106  and  N_107 
REMARK       I    between atoms: C_109  and  N_110 
REMARK       I    between atoms: C_109  and  N_113 
REMARK   45  A    between atoms: N_110  and  C_111 
REMARK   46  A    between atoms: N_113  and  C_114 
ROOT
HETATM    1  N   UNK N   1      31.941  15.013   4.134  0.00  0.00    -0.346 N 
HETATM    2  C   UNK N   1      31.996  15.064   5.481  0.00  0.00     0.241 C 
HETATM    3  O   UNK N   1      31.320  14.284   6.144  0.00  0.00    -0.271 OA
HETATM    4  H   UNK N   1      32.627  15.464   3.590  0.00  0.00     0.163 HD
ENDROOT
BRANCH   2   5
HETATM    5  C   UNK N   1      32.883  16.065   6.175  0.00  0.00     0.180 C 
BRANCH   5   6
HETATM    6  C   UNK N   1      32.120  17.394   6.288  0.00  0.00     0.073 C 
BRANCH   6   7
HETATM    7  C   UNK N   1      30.867  17.444   7.091  0.00  0.00    -0.056 A 
HETATM    8  C   UNK N   1      30.980  17.777   8.443  0.00  0.00     0.010 A 
HETATM    9  C   UNK N   1      29.844  17.881   9.244  0.00  0.00     0.037 A 
HETATM   10  C   UNK N   1      28.582  17.661   8.692  0.00  0.00     0.065 A 
HETATM   11  C   UNK N   1      28.459  17.331   7.337  0.00  0.00     0.037 A 
HETATM   12  C   UNK N   1      29.602  17.223   6.534  0.00  0.00     0.010 A 
BRANCH  10  13
HETATM   13  O   UNK N   1      27.488  17.768   9.461  0.00  0.00    -0.361 OA
HETATM   14  H   UNK N   1      26.686  18.109   9.114  0.00  0.00     0.217 HD
ENDBRANCH  10  13
ENDBRANCH   6   7
ENDBRANCH   5   6
BRANCH   5  15
HETATM   15  N   UNK N   1      33.150  15.507   7.476  0.00  0.00    -0.346 N 
HETATM   16  C   UNK N   1      34.421  15.325   7.912  0.00  0.00     0.243 C 
HETATM   17  O   UNK N   1      35.351  15.303   7.114  0.00  0.00    -0.271 OA
HETATM   18  H   UNK N   1      32.398  15.253   8.057  0.00  0.00     0.163 HD
BRANCH  16  19
HETATM   19  C   UNK N   1      34.707  15.356   9.377  0.00  0.00     0.200 C 
BRANCH  19  20
HETATM   20  N   UNK N   1      36.138  15.201   9.554  0.00  0.00    -0.344 N 
HETATM   21  C   UNK N   1      36.745  14.029   9.897  0.00  0.00     0.241 C 
HETATM   22  O   UNK N   1      37.961  13.959   9.842  0.00  0.00    -0.271 OA
HETATM   23  H   UNK N   1      36.708  15.991   9.418  0.00  0.00     0.163 HD
BRANCH  21  24
HETATM   24  C   UNK N   1      35.970  12.809  10.358  0.00  0.00     0.180 C 
BRANCH  24  25
HETATM   25  C   UNK N   1      35.240  13.138  11.681  0.00  0.00     0.074 C 
BRANCH  25  26
HETATM   26  C   UNK N   1      36.024  13.517  12.911  0.00  0.00    -0.040 A 
HETATM   27  C   UNK N   1      36.464  12.512  13.778  0.00  0.00     0.010 A 
HETATM   28  C   UNK N   1      37.097  12.849  14.977  0.00  0.00     0.018 A 
HETATM   29  C   UNK N   1      37.271  14.196  15.301  0.00  0.00     0.087 A 
HETATM   30  N   UNK N   1      36.825  15.164  14.456  0.00  0.00    -0.375 N 
HETATM   31  C   UNK N   1      36.200  14.853  13.289  0.00  0.00     0.094 A 
ATOM     32  HN  UNK N   1      36.961  16.144  14.704  1.00  0.00     0.164 HD
ENDBRANCH  25  26
ENDBRANCH  24  25
BRANCH  24  33
HETATM   33  N   UNK N   1      36.779  11.602  10.376  0.00  0.00    -0.346 N 
HETATM   34  C   UNK N   1      36.278  10.332  10.307  0.00  0.00     0.241 C 
HETATM   35  O   UNK N   1      37.054   9.392  10.334  0.00  0.00    -0.271 OA
HETATM   36  H   UNK N   1      37.756  11.706  10.444  0.00  0.00     0.163 HD
BRANCH  34  37
HETATM   37  C   UNK N   1      34.795  10.031  10.331  0.00  0.00     0.180 C 
BRANCH  37  38
HETATM   38  N   UNK N   1      34.376   9.825   8.975  0.00  0.00    -0.346 N 
HETATM   39  C   UNK N   1      33.450  10.626   8.413  0.00  0.00     0.241 C 
HETATM   40  O   UNK N   1      32.799  11.402   9.096  0.00  0.00    -0.271 OA
HETATM   41  H   UNK N   1      34.769   9.092   8.449  0.00  0.00     0.163 HD
BRANCH  39  42
HETATM   42  C   UNK N   1      33.404  10.730   6.936  0.00  0.00     0.180 C 
BRANCH  42  43
HETATM   43  N   UNK N   1      32.064  10.455   6.479  0.00  0.00    -0.348 N 
HETATM   44  C   UNK N   1      31.681   9.212   6.114  0.00  0.00     0.214 C 
HETATM   45  C   UNK N   1      30.272   8.969   5.706  0.00  0.00     0.117 C 
HETATM   46  O   UNK N   1      32.476   8.286   6.120  0.00  0.00    -0.274 OA
HETATM   47  H   UNK N   1      31.413  11.191   6.432  0.00  0.00     0.163 HD
ENDBRANCH  42  43
BRANCH  42  48
HETATM   48  C   UNK N   1      33.901  12.047   6.389  0.00  0.00     0.073 C 
BRANCH  48  49
HETATM   49  C   UNK N   1      34.862  11.710   5.306  0.00  0.00    -0.055 A 
HETATM   50  C   UNK N   1      34.998  10.378   4.881  0.00  0.00     0.008 A 
HETATM   51  C   UNK N   1      35.945  10.038   3.916  0.00  0.00     0.013 A 
HETATM   52  C   UNK N   1      36.755  11.029   3.363  0.00  0.00    -0.026 A 
HETATM   53  C   UNK N   1      37.705  10.697   2.395  0.00  0.00     0.012 A 
HETATM   54  C   UNK N   1      36.612  12.375   3.779  0.00  0.00    -0.025 A 
HETATM   55  C   UNK N   1      38.509  11.695   1.837  0.00  0.00     0.001 A 
HETATM   56  C   UNK N   1      38.364  13.026   2.245  0.00  0.00     0.001 A 
HETATM   57  C   UNK N   1      37.418  13.366   3.217  0.00  0.00     0.012 A 
HETATM   58  C   UNK N   1      35.669  12.706   4.754  0.00  0.00     0.019 A 
ENDBRANCH  48  49
ENDBRANCH  42  48
ENDBRANCH  39  42
ENDBRANCH  37  38
BRANCH  37  59
HETATM   59  C   UNK N   1      34.315   8.915  11.252  0.00  0.00     0.073 C 
BRANCH  59  60
HETATM   60  C   UNK N   1      34.497   9.352  12.666  0.00  0.00    -0.056 A 
HETATM   61  C   UNK N   1      33.625  10.297  13.217  0.00  0.00     0.009 A 
HETATM   62  C   UNK N   1      33.723  10.633  14.569  0.00  0.00     0.024 A 
HETATM   63  C   UNK N   1      34.687  10.020  15.374  0.00  0.00     0.034 A 
HETATM   64  C   UNK N   1      35.569   9.086  14.822  0.00  0.00     0.024 A 
HETATM   65 Cl   UNK N   1      34.775  10.404  17.078  0.00  0.00    -0.084 Cl
HETATM   66  C   UNK N   1      35.473   8.750  13.470  0.00  0.00     0.009 A 
ENDBRANCH  59  60
ENDBRANCH  37  59
ENDBRANCH  34  37
ENDBRANCH  24  33
ENDBRANCH  21  24
ENDBRANCH  19  20
BRANCH  19  67
HETATM   67  C   UNK N   1      34.293  16.710   9.938  0.00  0.00     0.199 C 
BRANCH  67  68
HETATM   68  O   UNK N   1      34.492  17.732   9.007  0.00  0.00    -0.398 OA
HETATM   69  H   UNK N   1      34.355  18.156   8.145  0.00  0.00     0.209 HD
ENDBRANCH  67  68
ENDBRANCH  19  67
ENDBRANCH  16  19
ENDBRANCH   5  15
ENDBRANCH   2   5
BRANCH   1  70
HETATM   70  C   UNK N   1      30.865  14.290   3.499  0.00  0.00     0.176 C 
BRANCH  70  71
HETATM   71  C   UNK N   1      29.985  15.343   2.858  0.00  0.00     0.241 C 
HETATM   72  O   UNK N   1      30.498  16.353   2.409  0.00  0.00    -0.271 OA
HETATM   73  N   UNK N   1      28.657  15.116   2.652  0.00  0.00    -0.346 N 
HETATM   74  H   UNK N   1      28.135  15.775   2.139  0.00  0.00     0.163 HD
BRANCH  73  75
HETATM   75  C   UNK N   1      27.986  13.934   3.163  0.00  0.00     0.177 C 
BRANCH  75  76
HETATM   76  C   UNK N   1      27.370  13.030   2.102  0.00  0.00     0.038 C 
BRANCH  76  77
HETATM   77  C   UNK N   1      28.172  11.779   1.813  0.00  0.00    -0.020 C 
HETATM   78  C   UNK N   1      28.525  11.082   3.114  0.00  0.00     0.009 C 
HETATM   79  C   UNK N   1      27.320  10.845   0.979  0.00  0.00     0.009 C 
ENDBRANCH  76  77
ENDBRANCH  75  76
BRANCH  75  80
HETATM   80  C   UNK N   1      27.142  14.166   4.393  0.00  0.00     0.241 C 
HETATM   81  N   UNK N   1      26.018  14.933   4.379  0.00  0.00    -0.346 N 
HETATM   82  H   UNK N   1      25.593  15.140   5.242  0.00  0.00     0.163 HD
HETATM   83  O   UNK N   1      27.528  13.704   5.454  0.00  0.00    -0.271 OA
BRANCH  81  84
HETATM   84  C   UNK N   1      25.405  15.463   3.178  0.00  0.00     0.176 C 
BRANCH  84  85
HETATM   85  C   UNK N   1      23.902  15.243   3.098  0.00  0.00     0.243 C 
HETATM   86  O   UNK N   1      23.252  15.419   4.111  0.00  0.00    -0.271 OA
HETATM   87  N   UNK N   1      23.306  14.699   1.988  0.00  0.00    -0.337 N 
HETATM   88  C   UNK N   1      22.081  13.955   2.137  0.00  0.00     0.179 C 
HETATM   89  C   UNK N   1      24.037  14.341   0.808  0.00  0.00     0.127 C 
HETATM   90  C   UNK N   1      22.387  12.685   1.361  0.00  0.00     0.037 C 
HETATM   91  C   UNK N   1      23.456  13.031   0.343  0.00  0.00     0.022 C 
BRANCH  88  92
HETATM   92  C   UNK N   1      20.857  14.648   1.578  0.00  0.00     0.241 C 
HETATM   93  O   UNK N   1      20.919  15.244   0.518  0.00  0.00    -0.271 OA
HETATM   94  N   UNK N   1      19.673  14.616   2.249  0.00  0.00    -0.346 N 
HETATM   95  H   UNK N   1      18.904  15.105   1.876  0.00  0.00     0.163 HD
BRANCH  94  96
HETATM   96  C   UNK N   1      19.500  13.888   3.491  0.00  0.00     0.172 C 
HETATM   97  C   UNK N   1      18.895  14.777   4.566  0.00  0.00     0.042 C 
BRANCH  96  98
HETATM   98  C   UNK N   1      18.711  12.628   3.313  0.00  0.00     0.237 C 
HETATM   99  N   UNK N   1      18.330  12.250   2.077  0.00  0.00    -0.368 N 
HETATM  100  H   UNK N   1      18.110  11.308   1.896  0.00  0.00     0.159 HD
HETATM  101  H   UNK N   1      18.275  12.917   1.354  0.00  0.00     0.159 HD
HETATM  102  O   UNK N   1      18.377  11.960   4.278  0.00  0.00    -0.271 OA
ENDBRANCH  96  98
ENDBRANCH  94  96
ENDBRANCH  88  92
ENDBRANCH  84  85
BRANCH  84 103
HETATM  103  C   UNK N   1      25.603  16.970   3.036  0.00  0.00     0.035 C 
BRANCH 103 104
HETATM  104  C   UNK N   1      25.932  17.691   4.330  0.00  0.00     0.004 C 
BRANCH 104 105
HETATM  105  C   UNK N   1      25.302  19.079   4.328  0.00  0.00     0.020 C 
BRANCH 105 106
HETATM  106  C   UNK N   1      23.794  19.030   4.556  0.00  0.00     0.138 C 
BRANCH 106 107
HETATM  107  N   UNK N   1      23.460  18.086   5.598  0.00  0.00    -0.227 N 
HETATM  108  C   UNK N   1      22.280  17.593   5.821  0.00  0.00     0.669 C 
HETATM  109  N   UNK N   1      22.127  16.680   6.894  0.00  0.00    -0.227 N 
HETATM  110  N   UNK N   1      21.123  17.946   5.053  0.00  0.00    -0.227 N 
HETATM  111  H   UNK N   1      22.918  16.421   7.419  0.00  0.00     0.177 HD
HETATM  112  H   UNK N   1      20.274  17.513   5.304  0.00  0.00     0.177 HD
ATOM    113  HN  UNK N   1      24.216  17.781   6.212  1.00  0.00     0.177 HD
BRANCH 109 114
HETATM  114  C   UNK N   1      20.846  16.119   7.237  0.00  0.00     0.133 C 
HETATM  115  C   UNK N   1      20.852  15.682   8.688  0.00  0.00     0.027 C 
ENDBRANCH 109 114
BRANCH 110 116
HETATM  116  C   UNK N   1      21.082  18.870   3.952  0.00  0.00     0.133 C 
HETATM  117  C   UNK N   1      20.862  18.103   2.665  0.00  0.00     0.027 C 
ENDBRANCH 110 116
ENDBRANCH 106 107
ENDBRANCH 105 106
ENDBRANCH 104 105
ENDBRANCH 103 104
ENDBRANCH  84 103
ENDBRANCH  81  84
ENDBRANCH  75  80
ENDBRANCH  73  75
ENDBRANCH  70  71
BRANCH  70 118
HETATM  118  C   UNK N   1      31.412  13.297   2.485  0.00  0.00     0.035 C 
BRANCH 118 119
HETATM  119  C   UNK N   1      32.918  13.418   2.368  0.00  0.00     0.004 C 
BRANCH 119 120
HETATM  120  C   UNK N   1      33.472  12.155   1.748  0.00  0.00     0.020 C 
BRANCH 120 121
HETATM  121  C   UNK N   1      33.616  12.354   0.256  0.00  0.00     0.138 C 
BRANCH 121 122
HETATM  122  N   UNK N   1      34.960  12.027  -0.150  0.00  0.00    -0.227 N 
HETATM  123  C   UNK N   1      35.714  12.874  -0.759  0.00  0.00     0.669 C 
HETATM  124  N   UNK N   1      37.011  12.462  -1.169  0.00  0.00    -0.227 N 
HETATM  125  N   UNK N   1      35.235  14.194  -1.018  0.00  0.00    -0.227 N 
HETATM  126  H   UNK N   1      37.194  11.498  -1.252  0.00  0.00     0.177 HD
HETATM  127  H   UNK N   1      34.567  14.586  -0.410  0.00  0.00     0.177 HD
ATOM    128  HN  UNK N   1      35.324  11.096   0.051  1.00  0.00     0.177 HD
BRANCH 124 129
HETATM  129  C   UNK N   1      38.069  13.392  -1.470  0.00  0.00     0.133 C 
HETATM  130  C   UNK N   1      39.279  12.643  -1.981  0.00  0.00     0.027 C 
ENDBRANCH 124 129
BRANCH 125 131
HETATM  131  C   UNK N   1      35.696  14.974  -2.138  0.00  0.00     0.133 C 
HETATM  132  C   UNK N   1      34.914  14.631  -3.388  0.00  0.00     0.027 C 
ENDBRANCH 125 131
ENDBRANCH 121 122
ENDBRANCH 120 121
ENDBRANCH 119 120
ENDBRANCH 118 119
ENDBRANCH  70 118
ENDBRANCH   1  70
TORSDOF 46
ENDMDL
