MODEL 1
REMARK VINA RESULT:      -5.8      0.000      0.000
REMARK  9 active torsions:
REMARK  status: ('A' for Active; 'I' for Inactive)
REMARK    1  A    between atoms: C_21  and  C_5 
REMARK    2  A    between atoms: C_19  and  C_16 
REMARK    3  A    between atoms: C_22  and  C_16 
REMARK    4  A    between atoms: C_18  and  C_17 
REMARK    5  A    between atoms: N_23  and  C_17 
REMARK    6  A    between atoms: C_22  and  C_18 
REMARK    7  A    between atoms: C_22  and  C_20 
REMARK    8  A    between atoms: O_25  and  C_21 
REMARK    9  A    between atoms: C_22  and  O_25 
ROOT
HETATM    1  C   UNK N   1      27.821  23.853  -5.503  0.00  0.00     0.106 C 
ENDROOT
BRANCH   1   2
HETATM    2  C   UNK N   1      26.537  24.064  -4.646  0.00  0.00     0.082 C 
BRANCH   2   3
HETATM    3  C   UNK N   1      26.086  25.487  -4.514  0.00  0.00    -0.055 A 
HETATM    4  C   UNK N   1      26.478  26.276  -3.425  0.00  0.00     0.007 A 
HETATM    5  C   UNK N   1      26.095  27.619  -3.362  0.00  0.00     0.001 A 
HETATM    6  C   UNK N   1      25.322  28.175  -4.386  0.00  0.00     0.000 A 
HETATM    7  C   UNK N   1      24.922  27.387  -5.468  0.00  0.00     0.001 A 
HETATM    8  C   UNK N   1      25.305  26.046  -5.532  0.00  0.00     0.007 A 
ENDBRANCH   2   3
ENDBRANCH   1   2
BRANCH   1   9
HETATM    9  C   UNK N   1      27.451  22.946  -6.749  0.00  0.00     0.050 C 
HETATM   10  C   UNK N   1      25.983  22.539  -6.730  0.00  0.00     0.015 C 
BRANCH   9  11
HETATM   11  C   UNK N   1      27.753  23.498  -8.154  0.00  0.00     0.279 C 
BRANCH  11  12
HETATM   12  N   UNK N   1      26.529  23.934  -8.834  0.00  0.00     0.080 N 
HETATM   13  C   UNK N   1      26.546  23.383 -10.174  0.00  0.00     0.309 C 
HETATM   14  C   UNK N   1      26.542  25.383  -8.989  0.00  0.00     0.309 C 
ENDBRANCH  11  12
ENDBRANCH   9  11
ENDBRANCH   1   9
BRANCH   1  15
HETATM   15  C   UNK N   1      28.885  23.180  -4.627  0.00  0.00    -0.022 A 
HETATM   16  C   UNK N   1      28.975  23.447  -3.250  0.00  0.00     0.010 A 
HETATM   17  C   UNK N   1      29.916  22.776  -2.460  0.00  0.00     0.001 A 
HETATM   18  C   UNK N   1      30.773  21.832  -3.032  0.00  0.00     0.000 A 
HETATM   19  C   UNK N   1      30.698  21.559  -4.397  0.00  0.00     0.001 A 
HETATM   20  C   UNK N   1      29.761  22.227  -5.187  0.00  0.00     0.010 A 
ENDBRANCH   1  15
BRANCH   1  21
HETATM   21  O   UNK N   1      28.334  25.085  -5.939  0.00  0.00    -0.304 OA
BRANCH  21  22
HETATM   22  C   UNK N   1      29.628  25.502  -5.756  0.00  0.00     0.259 C 
HETATM   23  O   UNK N   1      30.519  25.127  -6.505  0.00  0.00    -0.265 OA
BRANCH  22  24
HETATM   24  C   UNK N   1      29.943  26.462  -4.646  0.00  0.00     0.106 C 
HETATM   25  C   UNK N   1      31.256  26.125  -3.950  0.00  0.00     0.015 C 
ENDBRANCH  22  24
ENDBRANCH  21  22
ENDBRANCH   1  21
TORSDOF 9
ENDMDL
MODEL 2
REMARK VINA RESULT:      -5.4      1.492      3.327
REMARK  9 active torsions:
REMARK  status: ('A' for Active; 'I' for Inactive)
REMARK    1  A    between atoms: C_21  and  C_5 
REMARK    2  A    between atoms: C_19  and  C_16 
REMARK    3  A    between atoms: C_22  and  C_16 
REMARK    4  A    between atoms: C_18  and  C_17 
REMARK    5  A    between atoms: N_23  and  C_17 
REMARK    6  A    between atoms: C_22  and  C_18 
REMARK    7  A    between atoms: C_22  and  C_20 
REMARK    8  A    between atoms: O_25  and  C_21 
REMARK    9  A    between atoms: C_22  and  O_25 
ROOT
HETATM    1  C   UNK N   1      28.167  24.003  -5.753  0.00  0.00     0.106 C 
ENDROOT
BRANCH   1   2
HETATM    2  C   UNK N   1      27.069  24.136  -4.655  0.00  0.00     0.082 C 
BRANCH   2   3
HETATM    3  C   UNK N   1      26.402  25.475  -4.580  0.00  0.00    -0.055 A 
HETATM    4  C   UNK N   1      26.781  26.424  -3.622  0.00  0.00     0.007 A 
HETATM    5  C   UNK N   1      26.186  27.689  -3.619  0.00  0.00     0.001 A 
HETATM    6  C   UNK N   1      25.212  28.007  -4.570  0.00  0.00     0.000 A 
HETATM    7  C   UNK N   1      24.826  27.059  -5.520  0.00  0.00     0.001 A 
HETATM    8  C   UNK N   1      25.421  25.795  -5.525  0.00  0.00     0.007 A 
ENDBRANCH   2   3
ENDBRANCH   1   2
BRANCH   1   9
HETATM    9  C   UNK N   1      28.262  25.377  -6.538  0.00  0.00     0.050 C 
HETATM   10  C   UNK N   1      29.538  26.134  -6.191  0.00  0.00     0.015 C 
BRANCH   9  11
HETATM   11  C   UNK N   1      28.162  25.334  -8.073  0.00  0.00     0.279 C 
BRANCH  11  12
HETATM   12  N   UNK N   1      27.345  26.438  -8.590  0.00  0.00     0.080 N 
HETATM   13  C   UNK N   1      26.136  25.870  -9.149  0.00  0.00     0.309 C 
HETATM   14  C   UNK N   1      28.039  27.088  -9.694  0.00  0.00     0.309 C 
ENDBRANCH  11  12
ENDBRANCH   9  11
ENDBRANCH   1   9
BRANCH   1  15
HETATM   15  C   UNK N   1      27.777  22.857  -6.694  0.00  0.00    -0.022 A 
HETATM   16  C   UNK N   1      28.735  21.950  -7.179  0.00  0.00     0.010 A 
HETATM   17  C   UNK N   1      28.346  20.876  -7.990  0.00  0.00     0.001 A 
HETATM   18  C   UNK N   1      27.001  20.694  -8.322  0.00  0.00     0.000 A 
HETATM   19  C   UNK N   1      26.040  21.588  -7.851  0.00  0.00     0.001 A 
HETATM   20  C   UNK N   1      26.425  22.659  -7.045  0.00  0.00     0.010 A 
ENDBRANCH   1  15
BRANCH   1  21
HETATM   21  O   UNK N   1      29.408  23.689  -5.178  0.00  0.00    -0.304 OA
BRANCH  21  22
HETATM   22  C   UNK N   1      29.646  23.598  -3.830  0.00  0.00     0.259 C 
HETATM   23  O   UNK N   1      29.836  24.602  -3.158  0.00  0.00    -0.265 OA
BRANCH  22  24
HETATM   24  C   UNK N   1      29.634  22.251  -3.169  0.00  0.00     0.106 C 
HETATM   25  C   UNK N   1      30.452  21.223  -3.941  0.00  0.00     0.015 C 
ENDBRANCH  22  24
ENDBRANCH  21  22
ENDBRANCH   1  21
TORSDOF 9
ENDMDL
MODEL 3
REMARK VINA RESULT:      -5.3     11.671     13.709
REMARK  9 active torsions:
REMARK  status: ('A' for Active; 'I' for Inactive)
REMARK    1  A    between atoms: C_21  and  C_5 
REMARK    2  A    between atoms: C_19  and  C_16 
REMARK    3  A    between atoms: C_22  and  C_16 
REMARK    4  A    between atoms: C_18  and  C_17 
REMARK    5  A    between atoms: N_23  and  C_17 
REMARK    6  A    between atoms: C_22  and  C_18 
REMARK    7  A    between atoms: C_22  and  C_20 
REMARK    8  A    between atoms: O_25  and  C_21 
REMARK    9  A    between atoms: C_22  and  O_25 
ROOT
HETATM    1  C   UNK N   1      27.431  17.192   5.118  0.00  0.00     0.106 C 
ENDROOT
BRANCH   1   2
HETATM    2  C   UNK N   1      27.370  16.772   6.617  0.00  0.00     0.082 C 
BRANCH   2   3
HETATM    3  C   UNK N   1      28.480  17.303   7.472  0.00  0.00    -0.055 A 
HETATM    4  C   UNK N   1      29.812  16.930   7.250  0.00  0.00     0.007 A 
HETATM    5  C   UNK N   1      30.832  17.493   8.022  0.00  0.00     0.001 A 
HETATM    6  C   UNK N   1      30.525  18.426   9.016  0.00  0.00     0.000 A 
HETATM    7  C   UNK N   1      29.197  18.792   9.245  0.00  0.00     0.001 A 
HETATM    8  C   UNK N   1      28.176  18.232   8.474  0.00  0.00     0.007 A 
ENDBRANCH   2   3
ENDBRANCH   1   2
BRANCH   1   9
HETATM    9  C   UNK N   1      25.958  17.177   4.531  0.00  0.00     0.050 C 
HETATM   10  C   UNK N   1      25.928  16.639   3.106  0.00  0.00     0.015 C 
BRANCH   9  11
HETATM   11  C   UNK N   1      24.877  16.423   5.326  0.00  0.00     0.279 C 
BRANCH  11  12
HETATM   12  N   UNK N   1      23.530  16.880   4.967  0.00  0.00     0.080 N 
HETATM   13  C   UNK N   1      23.510  18.325   5.070  0.00  0.00     0.309 C 
HETATM   14  C   UNK N   1      22.567  16.388   5.944  0.00  0.00     0.309 C 
ENDBRANCH  11  12
ENDBRANCH   9  11
ENDBRANCH   1   9
BRANCH   1  15
HETATM   15  C   UNK N   1      28.331  16.199   4.371  0.00  0.00    -0.022 A 
HETATM   16  C   UNK N   1      29.294  16.636   3.447  0.00  0.00     0.010 A 
HETATM   17  C   UNK N   1      30.144  15.716   2.822  0.00  0.00     0.001 A 
HETATM   18  C   UNK N   1      30.044  14.353   3.113  0.00  0.00     0.000 A 
HETATM   19  C   UNK N   1      29.090  13.903   4.025  0.00  0.00     0.001 A 
HETATM   20  C   UNK N   1      28.242  14.819   4.648  0.00  0.00     0.010 A 
ENDBRANCH   1  15
BRANCH   1  21
HETATM   21  O   UNK N   1      27.992  18.471   4.983  0.00  0.00    -0.304 OA
BRANCH  21  22
HETATM   22  C   UNK N   1      27.283  19.610   4.697  0.00  0.00     0.259 C 
HETATM   23  O   UNK N   1      27.198  20.022   3.548  0.00  0.00    -0.265 OA
BRANCH  22  24
HETATM   24  C   UNK N   1      26.575  20.336   5.803  0.00  0.00     0.106 C 
HETATM   25  C   UNK N   1      27.403  21.490   6.356  0.00  0.00     0.015 C 
ENDBRANCH  22  24
ENDBRANCH  21  22
ENDBRANCH   1  21
TORSDOF 9
ENDMDL
MODEL 4
REMARK VINA RESULT:      -5.3      1.995      5.990
REMARK  9 active torsions:
REMARK  status: ('A' for Active; 'I' for Inactive)
REMARK    1  A    between atoms: C_21  and  C_5 
REMARK    2  A    between atoms: C_19  and  C_16 
REMARK    3  A    between atoms: C_22  and  C_16 
REMARK    4  A    between atoms: C_18  and  C_17 
REMARK    5  A    between atoms: N_23  and  C_17 
REMARK    6  A    between atoms: C_22  and  C_18 
REMARK    7  A    between atoms: C_22  and  C_20 
REMARK    8  A    between atoms: O_25  and  C_21 
REMARK    9  A    between atoms: C_22  and  O_25 
ROOT
HETATM    1  C   UNK N   1      28.088  24.960  -5.434  0.00  0.00     0.106 C 
ENDROOT
BRANCH   1   2
HETATM    2  C   UNK N   1      27.985  23.850  -4.345  0.00  0.00     0.082 C 
BRANCH   2   3
HETATM    3  C   UNK N   1      29.261  23.118  -4.060  0.00  0.00    -0.055 A 
HETATM    4  C   UNK N   1      29.999  23.368  -2.896  0.00  0.00     0.007 A 
HETATM    5  C   UNK N   1      31.150  22.623  -2.625  0.00  0.00     0.001 A 
HETATM    6  C   UNK N   1      31.567  21.629  -3.516  0.00  0.00     0.000 A 
HETATM    7  C   UNK N   1      30.838  21.385  -4.682  0.00  0.00     0.001 A 
HETATM    8  C   UNK N   1      29.686  22.128  -4.953  0.00  0.00     0.007 A 
ENDBRANCH   2   3
ENDBRANCH   1   2
BRANCH   1   9
HETATM    9  C   UNK N   1      29.619  25.301  -5.663  0.00  0.00     0.050 C 
HETATM   10  C   UNK N   1      29.995  25.231  -7.138  0.00  0.00     0.015 C 
BRANCH   9  11
HETATM   11  C   UNK N   1      30.144  26.643  -5.123  0.00  0.00     0.279 C 
BRANCH  11  12
HETATM   12  N   UNK N   1      31.257  26.448  -4.188  0.00  0.00     0.080 N 
HETATM   13  C   UNK N   1      31.074  27.368  -3.083  0.00  0.00     0.309 C 
HETATM   14  C   UNK N   1      32.510  26.826  -4.829  0.00  0.00     0.309 C 
ENDBRANCH  11  12
ENDBRANCH   9  11
ENDBRANCH   1   9
BRANCH   1  15
HETATM   15  C   UNK N   1      27.317  26.193  -4.946  0.00  0.00    -0.022 A 
HETATM   16  C   UNK N   1      27.028  27.264  -5.808  0.00  0.00     0.010 A 
HETATM   17  C   UNK N   1      26.271  28.352  -5.355  0.00  0.00     0.001 A 
HETATM   18  C   UNK N   1      25.794  28.382  -4.043  0.00  0.00     0.000 A 
HETATM   19  C   UNK N   1      26.076  27.328  -3.174  0.00  0.00     0.001 A 
HETATM   20  C   UNK N   1      26.830  26.243  -3.623  0.00  0.00     0.010 A 
ENDBRANCH   1  15
BRANCH   1  21
HETATM   21  O   UNK N   1      27.504  24.531  -6.636  0.00  0.00    -0.304 OA
BRANCH  21  22
HETATM   22  C   UNK N   1      26.446  23.663  -6.726  0.00  0.00     0.259 C 
HETATM   23  O   UNK N   1      25.329  23.996  -6.355  0.00  0.00    -0.265 OA
BRANCH  22  24
HETATM   24  C   UNK N   1      26.658  22.302  -7.322  0.00  0.00     0.106 C 
HETATM   25  C   UNK N   1      27.934  22.229  -8.151  0.00  0.00     0.015 C 
ENDBRANCH  22  24
ENDBRANCH  21  22
ENDBRANCH   1  21
TORSDOF 9
ENDMDL
MODEL 5
REMARK VINA RESULT:      -5.3     13.562     16.603
REMARK  9 active torsions:
REMARK  status: ('A' for Active; 'I' for Inactive)
REMARK    1  A    between atoms: C_21  and  C_5 
REMARK    2  A    between atoms: C_19  and  C_16 
REMARK    3  A    between atoms: C_22  and  C_16 
REMARK    4  A    between atoms: C_18  and  C_17 
REMARK    5  A    between atoms: N_23  and  C_17 
REMARK    6  A    between atoms: C_22  and  C_18 
REMARK    7  A    between atoms: C_22  and  C_20 
REMARK    8  A    between atoms: O_25  and  C_21 
REMARK    9  A    between atoms: C_22  and  O_25 
ROOT
HETATM    1  C   UNK N   1      32.521  15.361   6.927  0.00  0.00     0.106 C 
ENDROOT
BRANCH   1   2
HETATM    2  C   UNK N   1      31.815  14.073   6.407  0.00  0.00     0.082 C 
BRANCH   2   3
HETATM    3  C   UNK N   1      32.134  13.700   4.991  0.00  0.00    -0.055 A 
HETATM    4  C   UNK N   1      33.356  13.105   4.654  0.00  0.00     0.007 A 
HETATM    5  C   UNK N   1      33.598  12.708   3.336  0.00  0.00     0.001 A 
HETATM    6  C   UNK N   1      32.622  12.905   2.354  0.00  0.00     0.000 A 
HETATM    7  C   UNK N   1      31.406  13.506   2.687  0.00  0.00     0.001 A 
HETATM    8  C   UNK N   1      31.162  13.902   4.004  0.00  0.00     0.007 A 
ENDBRANCH   2   3
ENDBRANCH   1   2
BRANCH   1   9
HETATM    9  C   UNK N   1      33.367  14.987   8.214  0.00  0.00     0.050 C 
HETATM   10  C   UNK N   1      32.793  13.770   8.928  0.00  0.00     0.015 C 
BRANCH   9  11
HETATM   11  C   UNK N   1      34.876  14.739   8.033  0.00  0.00     0.279 C 
BRANCH  11  12
HETATM   12  N   UNK N   1      35.669  15.554   8.959  0.00  0.00     0.080 N 
HETATM   13  C   UNK N   1      36.209  14.673   9.974  0.00  0.00     0.309 C 
HETATM   14  C   UNK N   1      34.800  16.493   9.655  0.00  0.00     0.309 C 
ENDBRANCH  11  12
ENDBRANCH   9  11
ENDBRANCH   1   9
BRANCH   1  15
HETATM   15  C   UNK N   1      31.446  16.404   7.259  0.00  0.00    -0.022 A 
HETATM   16  C   UNK N   1      30.284  16.531   6.479  0.00  0.00     0.010 A 
HETATM   17  C   UNK N   1      29.289  17.450   6.836  0.00  0.00     0.001 A 
HETATM   18  C   UNK N   1      29.441  18.248   7.973  0.00  0.00     0.000 A 
HETATM   19  C   UNK N   1      30.591  18.136   8.754  0.00  0.00     0.001 A 
HETATM   20  C   UNK N   1      31.583  17.222   8.400  0.00  0.00     0.010 A 
ENDBRANCH   1  15
BRANCH   1  21
HETATM   21  O   UNK N   1      33.358  15.901   5.939  0.00  0.00    -0.304 OA
BRANCH  21  22
HETATM   22  C   UNK N   1      33.539  17.242   5.713  0.00  0.00     0.259 C 
HETATM   23  O   UNK N   1      34.268  17.906   6.437  0.00  0.00    -0.265 OA
BRANCH  22  24
HETATM   24  C   UNK N   1      32.863  17.890   4.541  0.00  0.00     0.106 C 
HETATM   25  C   UNK N   1      32.824  16.977   3.321  0.00  0.00     0.015 C 
ENDBRANCH  22  24
ENDBRANCH  21  22
ENDBRANCH   1  21
TORSDOF 9
ENDMDL
MODEL 6
REMARK VINA RESULT:      -5.3     10.894     13.712
REMARK  9 active torsions:
REMARK  status: ('A' for Active; 'I' for Inactive)
REMARK    1  A    between atoms: C_21  and  C_5 
REMARK    2  A    between atoms: C_19  and  C_16 
REMARK    3  A    between atoms: C_22  and  C_16 
REMARK    4  A    between atoms: C_18  and  C_17 
REMARK    5  A    between atoms: N_23  and  C_17 
REMARK    6  A    between atoms: C_22  and  C_18 
REMARK    7  A    between atoms: C_22  and  C_20 
REMARK    8  A    between atoms: O_25  and  C_21 
REMARK    9  A    between atoms: C_22  and  O_25 
ROOT
HETATM    1  C   UNK N   1      28.322  17.561   5.327  0.00  0.00     0.106 C 
ENDROOT
BRANCH   1   2
HETATM    2  C   UNK N   1      29.678  18.323   5.227  0.00  0.00     0.082 C 
BRANCH   2   3
HETATM    3  C   UNK N   1      30.889  17.452   5.087  0.00  0.00    -0.055 A 
HETATM    4  C   UNK N   1      31.633  17.426   3.900  0.00  0.00     0.007 A 
HETATM    5  C   UNK N   1      32.796  16.654   3.822  0.00  0.00     0.001 A 
HETATM    6  C   UNK N   1      33.216  15.907   4.927  0.00  0.00     0.000 A 
HETATM    7  C   UNK N   1      32.470  15.925   6.108  0.00  0.00     0.001 A 
HETATM    8  C   UNK N   1      31.309  16.697   6.188  0.00  0.00     0.007 A 
ENDBRANCH   2   3
ENDBRANCH   1   2
BRANCH   1   9
HETATM    9  C   UNK N   1      28.467  16.175   4.572  0.00  0.00     0.050 C 
HETATM   10  C   UNK N   1      27.651  15.081   5.247  0.00  0.00     0.015 C 
BRANCH   9  11
HETATM   11  C   UNK N   1      28.125  16.137   3.071  0.00  0.00     0.279 C 
BRANCH  11  12
HETATM   12  N   UNK N   1      27.314  14.963   2.734  0.00  0.00     0.080 N 
HETATM   13  C   UNK N   1      28.116  14.096   1.895  0.00  0.00     0.309 C 
HETATM   14  C   UNK N   1      26.171  15.370   1.927  0.00  0.00     0.309 C 
ENDBRANCH  11  12
ENDBRANCH   9  11
ENDBRANCH   1   9
BRANCH   1  15
HETATM   15  C   UNK N   1      27.230  18.427   4.686  0.00  0.00    -0.022 A 
HETATM   16  C   UNK N   1      27.545  19.606   3.991  0.00  0.00     0.010 A 
HETATM   17  C   UNK N   1      26.536  20.349   3.364  0.00  0.00     0.001 A 
HETATM   18  C   UNK N   1      25.207  19.922   3.422  0.00  0.00     0.000 A 
HETATM   19  C   UNK N   1      24.879  18.756   4.112  0.00  0.00     0.001 A 
HETATM   20  C   UNK N   1      25.882  18.015   4.738  0.00  0.00     0.010 A 
ENDBRANCH   1  15
BRANCH   1  21
HETATM   21  O   UNK N   1      27.973  17.346   6.669  0.00  0.00    -0.304 OA
BRANCH  21  22
HETATM   22  C   UNK N   1      28.237  18.215   7.696  0.00  0.00     0.259 C 
HETATM   23  O   UNK N   1      27.790  19.354   7.683  0.00  0.00    -0.265 OA
BRANCH  22  24
HETATM   24  C   UNK N   1      29.052  17.749   8.867  0.00  0.00     0.106 C 
HETATM   25  C   UNK N   1      30.211  18.689   9.173  0.00  0.00     0.015 C 
ENDBRANCH  22  24
ENDBRANCH  21  22
ENDBRANCH   1  21
TORSDOF 9
ENDMDL
MODEL 7
REMARK VINA RESULT:      -5.2      2.005      5.244
REMARK  9 active torsions:
REMARK  status: ('A' for Active; 'I' for Inactive)
REMARK    1  A    between atoms: C_21  and  C_5 
REMARK    2  A    between atoms: C_19  and  C_16 
REMARK    3  A    between atoms: C_22  and  C_16 
REMARK    4  A    between atoms: C_18  and  C_17 
REMARK    5  A    between atoms: N_23  and  C_17 
REMARK    6  A    between atoms: C_22  and  C_18 
REMARK    7  A    between atoms: C_22  and  C_20 
REMARK    8  A    between atoms: O_25  and  C_21 
REMARK    9  A    between atoms: C_22  and  O_25 
ROOT
HETATM    1  C   UNK N   1      27.847  25.121  -5.031  0.00  0.00     0.106 C 
ENDROOT
BRANCH   1   2
HETATM    2  C   UNK N   1      26.704  24.079  -5.222  0.00  0.00     0.082 C 
BRANCH   2   3
HETATM    3  C   UNK N   1      26.517  23.588  -6.625  0.00  0.00    -0.055 A 
HETATM    4  C   UNK N   1      27.103  22.393  -7.061  0.00  0.00     0.007 A 
HETATM    5  C   UNK N   1      26.857  21.926  -8.356  0.00  0.00     0.001 A 
HETATM    6  C   UNK N   1      26.027  22.653  -9.216  0.00  0.00     0.000 A 
HETATM    7  C   UNK N   1      25.450  23.850  -8.785  0.00  0.00     0.001 A 
HETATM    8  C   UNK N   1      25.694  24.315  -7.491  0.00  0.00     0.007 A 
ENDBRANCH   2   3
ENDBRANCH   1   2
BRANCH   1   9
HETATM    9  C   UNK N   1      28.847  24.576  -3.929  0.00  0.00     0.050 C 
HETATM   10  C   UNK N   1      28.133  23.694  -2.911  0.00  0.00     0.015 C 
BRANCH   9  11
HETATM   11  C   UNK N   1      30.090  23.804  -4.406  0.00  0.00     0.279 C 
BRANCH  11  12
HETATM   12  N   UNK N   1      30.067  22.411  -3.947  0.00  0.00     0.080 N 
HETATM   13  C   UNK N   1      31.276  22.176  -3.183  0.00  0.00     0.309 C 
HETATM   14  C   UNK N   1      30.129  21.514  -5.095  0.00  0.00     0.309 C 
ENDBRANCH  11  12
ENDBRANCH   9  11
ENDBRANCH   1   9
BRANCH   1  15
HETATM   15  C   UNK N   1      27.223  26.453  -4.599  0.00  0.00    -0.022 A 
HETATM   16  C   UNK N   1      25.914  26.804  -4.971  0.00  0.00     0.010 A 
HETATM   17  C   UNK N   1      25.345  27.999  -4.516  0.00  0.00     0.001 A 
HETATM   18  C   UNK N   1      26.072  28.854  -3.683  0.00  0.00     0.000 A 
HETATM   19  C   UNK N   1      27.374  28.522  -3.309  0.00  0.00     0.001 A 
HETATM   20  C   UNK N   1      27.943  27.332  -3.763  0.00  0.00     0.010 A 
ENDBRANCH   1  15
BRANCH   1  21
HETATM   21  O   UNK N   1      28.530  25.333  -6.239  0.00  0.00    -0.304 OA
BRANCH  21  22
HETATM   22  C   UNK N   1      29.060  26.534  -6.638  0.00  0.00     0.259 C 
HETATM   23  O   UNK N   1      30.158  26.896  -6.239  0.00  0.00    -0.265 OA
BRANCH  22  24
HETATM   24  C   UNK N   1      28.298  27.392  -7.604  0.00  0.00     0.106 C 
HETATM   25  C   UNK N   1      28.273  28.855  -7.179  0.00  0.00     0.015 C 
ENDBRANCH  22  24
ENDBRANCH  21  22
ENDBRANCH   1  21
TORSDOF 9
ENDMDL
MODEL 8
REMARK VINA RESULT:      -5.2      2.191      3.334
REMARK  9 active torsions:
REMARK  status: ('A' for Active; 'I' for Inactive)
REMARK    1  A    between atoms: C_21  and  C_5 
REMARK    2  A    between atoms: C_19  and  C_16 
REMARK    3  A    between atoms: C_22  and  C_16 
REMARK    4  A    between atoms: C_18  and  C_17 
REMARK    5  A    between atoms: N_23  and  C_17 
REMARK    6  A    between atoms: C_22  and  C_18 
REMARK    7  A    between atoms: C_22  and  C_20 
REMARK    8  A    between atoms: O_25  and  C_21 
REMARK    9  A    between atoms: C_22  and  O_25 
ROOT
HETATM    1  C   UNK N   1      27.004  25.102  -7.580  0.00  0.00     0.106 C 
ENDROOT
BRANCH   1   2
HETATM    2  C   UNK N   1      26.219  26.439  -7.734  0.00  0.00     0.082 C 
BRANCH   2   3
HETATM    3  C   UNK N   1      26.253  27.339  -6.537  0.00  0.00    -0.055 A 
HETATM    4  C   UNK N   1      25.271  27.262  -5.541  0.00  0.00     0.007 A 
HETATM    5  C   UNK N   1      25.365  28.070  -4.404  0.00  0.00     0.001 A 
HETATM    6  C   UNK N   1      26.438  28.954  -4.260  0.00  0.00     0.000 A 
HETATM    7  C   UNK N   1      27.414  29.038  -5.256  0.00  0.00     0.001 A 
HETATM    8  C   UNK N   1      27.322  28.231  -6.392  0.00  0.00     0.007 A 
ENDBRANCH   2   3
ENDBRANCH   1   2
BRANCH   1   9
HETATM    9  C   UNK N   1      26.173  23.946  -8.276  0.00  0.00     0.050 C 
HETATM   10  C   UNK N   1      25.275  24.489  -9.381  0.00  0.00     0.015 C 
BRANCH   9  11
HETATM   11  C   UNK N   1      26.952  22.756  -8.865  0.00  0.00     0.279 C 
BRANCH  11  12
HETATM   12  N   UNK N   1      26.868  21.576  -7.998  0.00  0.00     0.080 N 
HETATM   13  C   UNK N   1      27.940  20.675  -8.371  0.00  0.00     0.309 C 
HETATM   14  C   UNK N   1      25.625  20.862  -8.258  0.00  0.00     0.309 C 
ENDBRANCH  11  12
ENDBRANCH   9  11
ENDBRANCH   1   9
BRANCH   1  15
HETATM   15  C   UNK N   1      27.194  24.819  -6.084  0.00  0.00    -0.022 A 
HETATM   16  C   UNK N   1      28.384  25.161  -5.419  0.00  0.00     0.010 A 
HETATM   17  C   UNK N   1      28.511  24.948  -4.041  0.00  0.00     0.001 A 
HETATM   18  C   UNK N   1      27.455  24.395  -3.313  0.00  0.00     0.000 A 
HETATM   19  C   UNK N   1      26.269  24.047  -3.959  0.00  0.00     0.001 A 
HETATM   20  C   UNK N   1      26.141  24.258  -5.332  0.00  0.00     0.010 A 
ENDBRANCH   1  15
BRANCH   1  21
HETATM   21  O   UNK N   1      28.275  25.202  -8.166  0.00  0.00    -0.304 OA
BRANCH  21  22
HETATM   22  C   UNK N   1      28.595  26.042  -9.202  0.00  0.00     0.259 C 
HETATM   23  O   UNK N   1      28.174  25.833 -10.331  0.00  0.00    -0.265 OA
BRANCH  22  24
HETATM   24  C   UNK N   1      29.441  27.253  -8.935  0.00  0.00     0.106 C 
HETATM   25  C   UNK N   1      30.512  26.987  -7.884  0.00  0.00     0.015 C 
ENDBRANCH  22  24
ENDBRANCH  21  22
ENDBRANCH   1  21
TORSDOF 9
ENDMDL
MODEL 9
REMARK VINA RESULT:      -5.2      1.731      5.130
REMARK  9 active torsions:
REMARK  status: ('A' for Active; 'I' for Inactive)
REMARK    1  A    between atoms: C_21  and  C_5 
REMARK    2  A    between atoms: C_19  and  C_16 
REMARK    3  A    between atoms: C_22  and  C_16 
REMARK    4  A    between atoms: C_18  and  C_17 
REMARK    5  A    between atoms: N_23  and  C_17 
REMARK    6  A    between atoms: C_22  and  C_18 
REMARK    7  A    between atoms: C_22  and  C_20 
REMARK    8  A    between atoms: O_25  and  C_21 
REMARK    9  A    between atoms: C_22  and  O_25 
ROOT
HETATM    1  C   UNK N   1      28.018  25.060  -4.890  0.00  0.00     0.106 C 
ENDROOT
BRANCH   1   2
HETATM    2  C   UNK N   1      29.047  25.120  -6.059  0.00  0.00     0.082 C 
BRANCH   2   3
HETATM    3  C   UNK N   1      30.452  24.752  -5.690  0.00  0.00    -0.055 A 
HETATM    4  C   UNK N   1      30.975  23.488  -5.990  0.00  0.00     0.007 A 
HETATM    5  C   UNK N   1      32.309  23.196  -5.692  0.00  0.00     0.001 A 
HETATM    6  C   UNK N   1      33.122  24.165  -5.095  0.00  0.00     0.000 A 
HETATM    7  C   UNK N   1      32.599  25.424  -4.788  0.00  0.00     0.001 A 
HETATM    8  C   UNK N   1      31.267  25.717  -5.086  0.00  0.00     0.007 A 
ENDBRANCH   2   3
ENDBRANCH   1   2
BRANCH   1   9
HETATM    9  C   UNK N   1      26.940  23.948  -5.225  0.00  0.00     0.050 C 
HETATM   10  C   UNK N   1      25.522  24.498  -5.141  0.00  0.00     0.015 C 
BRANCH   9  11
HETATM   11  C   UNK N   1      27.064  23.211  -6.571  0.00  0.00     0.279 C 
BRANCH  11  12
HETATM   12  N   UNK N   1      25.950  23.538  -7.467  0.00  0.00     0.080 N 
HETATM   13  C   UNK N   1      25.436  22.296  -8.007  0.00  0.00     0.309 C 
HETATM   14  C   UNK N   1      26.443  24.304  -8.605  0.00  0.00     0.309 C 
ENDBRANCH  11  12
ENDBRANCH   9  11
ENDBRANCH   1   9
BRANCH   1  15
HETATM   15  C   UNK N   1      27.361  26.440  -4.750  0.00  0.00    -0.022 A 
HETATM   16  C   UNK N   1      26.717  26.827  -3.563  0.00  0.00     0.010 A 
HETATM   17  C   UNK N   1      26.176  28.112  -3.437  0.00  0.00     0.001 A 
HETATM   18  C   UNK N   1      26.274  29.024  -4.492  0.00  0.00     0.000 A 
HETATM   19  C   UNK N   1      26.906  28.653  -5.678  0.00  0.00     0.001 A 
HETATM   20  C   UNK N   1      27.445  27.372  -5.805  0.00  0.00     0.010 A 
ENDBRANCH   1  15
BRANCH   1  21
HETATM   21  O   UNK N   1      28.661  24.762  -3.679  0.00  0.00    -0.304 OA
BRANCH  21  22
HETATM   22  C   UNK N   1      28.383  23.672  -2.893  0.00  0.00     0.259 C 
HETATM   23  O   UNK N   1      27.358  23.627  -2.227  0.00  0.00    -0.265 OA
BRANCH  22  24
HETATM   24  C   UNK N   1      29.331  22.509  -2.882  0.00  0.00     0.106 C 
HETATM   25  C   UNK N   1      30.708  22.894  -2.354  0.00  0.00     0.015 C 
ENDBRANCH  22  24
ENDBRANCH  21  22
ENDBRANCH   1  21
TORSDOF 9
ENDMDL
