REMARK  4 active torsions:
REMARK  status: ('A' for Active; 'I' for Inactive)
REMARK    1  A    between atoms: Fe_1  and  Fe_1 
REMARK    2  A    between atoms: Fe_2  and  Fe_2 
REMARK    3  A    between atoms: Fe_3  and  Fe_3 
REMARK    4  A    between atoms: Fe_4  and  Fe_4 
ROOT
HETATM    1 Fe   UNK N   1      -5.211  -4.318   0.000  0.00  0.00     0.000 Fe
ENDROOT
TORSDOF 4
