MODEL 1
REMARK VINA RESULT:      -7.2      0.000      0.000
REMARK  9 active torsions:
REMARK  status: ('A' for Active; 'I' for Inactive)
REMARK    1  A    between atoms: C_5  and  C_9 
REMARK    2  A    between atoms: C_9  and  C_8 
REMARK    3  A    between atoms: C_9  and  N_14 
REMARK    4  A    between atoms: N_17  and  C_21 
REMARK    5  A    between atoms: C_21  and  C_22 
REMARK    6  A    between atoms: C_22  and  O_23 
REMARK    7  A    between atoms: O_23  and  C_24 
REMARK    8  A    between atoms: C_24  and  C_25 
REMARK    9  A    between atoms: C_25  and  O_26 
ROOT
HETATM    1  N   UNK N   1      36.305  12.939  13.086  0.00  0.00     0.104 N 
HETATM    2  C   UNK N   1      35.728  14.271  13.010  0.00  0.00     0.293 C 
HETATM    3  C   UNK N   1      34.801  14.306  11.797  0.00  0.00     0.147 C 
HETATM    4  N   UNK N   1      35.445  13.808  10.567  0.00  0.00    -0.407 N 
HETATM    5  C   UNK N   1      36.488  12.771  10.682  0.00  0.00     0.147 C 
HETATM    6  C   UNK N   1      37.263  12.849  11.995  0.00  0.00     0.293 C 
ENDROOT
BRANCH   1   7
HETATM    7  C   UNK N   1      36.945  12.532  14.355  0.00  0.00     0.289 C 
BRANCH   7   8
HETATM    8  C   UNK N   1      36.585  13.425  15.540  0.00  0.00    -0.021 A 
HETATM    9  C   UNK N   1      35.599  13.059  16.472  0.00  0.00     0.010 A 
HETATM   10  C   UNK N   1      35.297  13.895  17.552  0.00  0.00     0.001 A 
HETATM   11  C   UNK N   1      35.981  15.103  17.715  0.00  0.00     0.000 A 
HETATM   12  C   UNK N   1      36.971  15.472  16.802  0.00  0.00     0.001 A 
HETATM   13  C   UNK N   1      37.273  14.637  15.722  0.00  0.00     0.010 A 
ENDBRANCH   7   8
BRANCH   7  14
HETATM   14  C   UNK N   1      36.656  11.055  14.595  0.00  0.00    -0.021 A 
HETATM   15  C   UNK N   1      37.568  10.253  15.298  0.00  0.00     0.011 A 
HETATM   16  C   UNK N   1      37.306   8.891  15.491  0.00  0.00     0.024 A 
HETATM   17  C   UNK N   1      36.136   8.320  14.977  0.00  0.00     0.034 A 
HETATM   18  C   UNK N   1      35.225   9.109  14.276  0.00  0.00     0.024 A 
HETATM   19 Cl   UNK N   1      35.809   6.616  15.202  0.00  0.00    -0.084 Cl
HETATM   20  C   UNK N   1      35.482  10.465  14.087  0.00  0.00     0.011 A 
ENDBRANCH   7  14
ENDBRANCH   1   7
BRANCH   4  21
HETATM   21  C   UNK N   1      35.734  14.858   9.592  0.00  0.00     0.143 C 
BRANCH  21  22
HETATM   22  C   UNK N   1      34.899  16.130   9.775  0.00  0.00     0.187 C 
BRANCH  22  23
HETATM   23  O   UNK N   1      33.836  16.193   8.869  0.00  0.00    -0.379 OA
BRANCH  23  24
HETATM   24  C   UNK N   1      33.478  17.544   8.786  0.00  0.00     0.277 C 
BRANCH  24  25
HETATM   25  C   UNK N   1      34.450  18.294   7.925  0.00  0.00     0.164 C 
HETATM   26  O   UNK N   1      34.513  18.085   6.726  0.00  0.00    -0.648 OA
BRANCH  25  27
HETATM   27  O   UNK N   1      35.257  19.215   8.485  0.00  0.00    -0.775 OA
HETATM   28  H   UNK N   1      35.145  20.145   8.469  0.00  0.00     0.167 HD
ENDBRANCH  25  27
ENDBRANCH  24  25
ENDBRANCH  23  24
ENDBRANCH  22  23
ENDBRANCH  21  22
ENDBRANCH   4  21
TORSDOF 9
ENDMDL
MODEL 2
REMARK VINA RESULT:      -7.0      8.578     12.728
REMARK  9 active torsions:
REMARK  status: ('A' for Active; 'I' for Inactive)
REMARK    1  A    between atoms: C_5  and  C_9 
REMARK    2  A    between atoms: C_9  and  C_8 
REMARK    3  A    between atoms: C_9  and  N_14 
REMARK    4  A    between atoms: N_17  and  C_21 
REMARK    5  A    between atoms: C_21  and  C_22 
REMARK    6  A    between atoms: C_22  and  O_23 
REMARK    7  A    between atoms: O_23  and  C_24 
REMARK    8  A    between atoms: C_24  and  C_25 
REMARK    9  A    between atoms: C_25  and  O_26 
ROOT
HETATM    1  N   UNK N   1      28.986  16.539   4.977  0.00  0.00     0.104 N 
HETATM    2  C   UNK N   1      29.993  17.578   4.837  0.00  0.00     0.293 C 
HETATM    3  C   UNK N   1      31.256  16.927   4.278  0.00  0.00     0.147 C 
HETATM    4  N   UNK N   1      31.665  15.726   5.031  0.00  0.00    -0.407 N 
HETATM    5  C   UNK N   1      30.624  14.905   5.678  0.00  0.00     0.147 C 
HETATM    6  C   UNK N   1      29.405  15.719   6.104  0.00  0.00     0.293 C 
ENDROOT
BRANCH   1   7
HETATM    7  C   UNK N   1      27.579  16.956   5.152  0.00  0.00     0.289 C 
BRANCH   7   8
HETATM    8  C   UNK N   1      27.396  18.467   5.272  0.00  0.00    -0.021 A 
HETATM    9  C   UNK N   1      27.034  19.260   4.169  0.00  0.00     0.010 A 
HETATM   10  C   UNK N   1      26.865  20.641   4.313  0.00  0.00     0.001 A 
HETATM   11  C   UNK N   1      27.052  21.244   5.560  0.00  0.00     0.000 A 
HETATM   12  C   UNK N   1      27.400  20.465   6.665  0.00  0.00     0.001 A 
HETATM   13  C   UNK N   1      27.569  19.084   6.522  0.00  0.00     0.010 A 
ENDBRANCH   7   8
BRANCH   7  14
HETATM   14  C   UNK N   1      26.743  16.327   4.044  0.00  0.00    -0.021 A 
HETATM   15  C   UNK N   1      25.358  16.162   4.199  0.00  0.00     0.011 A 
HETATM   16  C   UNK N   1      24.602  15.559   3.186  0.00  0.00     0.024 A 
HETATM   17  C   UNK N   1      25.226  15.110   2.016  0.00  0.00     0.034 A 
HETATM   18  C   UNK N   1      26.601  15.269   1.854  0.00  0.00     0.024 A 
HETATM   19 Cl   UNK N   1      24.289  14.343   0.753  0.00  0.00    -0.084 Cl
HETATM   20  C   UNK N   1      27.353  15.873   2.859  0.00  0.00     0.011 A 
ENDBRANCH   7  14
ENDBRANCH   1   7
BRANCH   4  21
HETATM   21  C   UNK N   1      32.873  15.921   5.830  0.00  0.00     0.143 C 
BRANCH  21  22
HETATM   22  C   UNK N   1      33.863  16.929   5.235  0.00  0.00     0.187 C 
BRANCH  22  23
HETATM   23  O   UNK N   1      34.197  17.935   6.147  0.00  0.00    -0.379 OA
BRANCH  23  24
HETATM   24  C   UNK N   1      33.637  17.550   7.371  0.00  0.00     0.277 C 
BRANCH  24  25
HETATM   25  C   UNK N   1      34.469  18.053   8.512  0.00  0.00     0.164 C 
HETATM   26  O   UNK N   1      35.182  19.033   8.380  0.00  0.00    -0.648 OA
BRANCH  25  27
HETATM   27  O   UNK N   1      34.419  17.419   9.698  0.00  0.00    -0.775 OA
HETATM   28  H   UNK N   1      34.018  16.592   9.878  0.00  0.00     0.167 HD
ENDBRANCH  25  27
ENDBRANCH  24  25
ENDBRANCH  23  24
ENDBRANCH  22  23
ENDBRANCH  21  22
ENDBRANCH   4  21
TORSDOF 9
ENDMDL
MODEL 3
REMARK VINA RESULT:      -6.7      2.091      4.154
REMARK  9 active torsions:
REMARK  status: ('A' for Active; 'I' for Inactive)
REMARK    1  A    between atoms: C_5  and  C_9 
REMARK    2  A    between atoms: C_9  and  C_8 
REMARK    3  A    between atoms: C_9  and  N_14 
REMARK    4  A    between atoms: N_17  and  C_21 
REMARK    5  A    between atoms: C_21  and  C_22 
REMARK    6  A    between atoms: C_22  and  O_23 
REMARK    7  A    between atoms: O_23  and  C_24 
REMARK    8  A    between atoms: C_24  and  C_25 
REMARK    9  A    between atoms: C_25  and  O_26 
ROOT
HETATM    1  N   UNK N   1      36.271  11.950  13.058  0.00  0.00     0.104 N 
HETATM    2  C   UNK N   1      37.195  11.809  11.945  0.00  0.00     0.293 C 
HETATM    3  C   UNK N   1      37.451  13.202  11.375  0.00  0.00     0.147 C 
HETATM    4  N   UNK N   1      36.208  13.946  11.095  0.00  0.00    -0.407 N 
HETATM    5  C   UNK N   1      35.021  13.686  11.932  0.00  0.00     0.147 C 
HETATM    6  C   UNK N   1      34.975  12.259  12.472  0.00  0.00     0.293 C 
ENDROOT
BRANCH   1   7
HETATM    7  C   UNK N   1      36.141  10.818  14.000  0.00  0.00     0.289 C 
BRANCH   7   8
HETATM    8  C   UNK N   1      37.338   9.870  13.990  0.00  0.00    -0.021 A 
HETATM    9  C   UNK N   1      38.540  10.185  14.647  0.00  0.00     0.010 A 
HETATM   10  C   UNK N   1      39.616   9.291  14.626  0.00  0.00     0.001 A 
HETATM   11  C   UNK N   1      39.500   8.071  13.954  0.00  0.00     0.000 A 
HETATM   12  C   UNK N   1      38.307   7.742  13.308  0.00  0.00     0.001 A 
HETATM   13  C   UNK N   1      37.231   8.635  13.328  0.00  0.00     0.010 A 
ENDBRANCH   7   8
BRANCH   7  14
HETATM   14  C   UNK N   1      35.814  11.370  15.382  0.00  0.00    -0.021 A 
HETATM   15  C   UNK N   1      35.878  12.749  15.635  0.00  0.00     0.011 A 
HETATM   16  C   UNK N   1      35.601  13.245  16.916  0.00  0.00     0.024 A 
HETATM   17  C   UNK N   1      35.266  12.365  17.953  0.00  0.00     0.034 A 
HETATM   18  C   UNK N   1      35.201  10.994  17.710  0.00  0.00     0.024 A 
HETATM   19 Cl   UNK N   1      34.933  12.976  19.558  0.00  0.00    -0.084 Cl
HETATM   20  C   UNK N   1      35.472  10.501  16.436  0.00  0.00     0.011 A 
ENDBRANCH   7  14
ENDBRANCH   1   7
BRANCH   4  21
HETATM   21  C   UNK N   1      35.927  14.097   9.668  0.00  0.00     0.143 C 
BRANCH  21  22
HETATM   22  C   UNK N   1      34.809  15.095   9.351  0.00  0.00     0.187 C 
BRANCH  22  23
HETATM   23  O   UNK N   1      35.216  16.418   9.555  0.00  0.00    -0.379 OA
BRANCH  23  24
HETATM   24  C   UNK N   1      34.162  17.221   9.100  0.00  0.00     0.277 C 
BRANCH  24  25
HETATM   25  C   UNK N   1      34.666  18.259   8.143  0.00  0.00     0.164 C 
HETATM   26  O   UNK N   1      35.286  19.229   8.544  0.00  0.00    -0.648 OA
BRANCH  25  27
HETATM   27  O   UNK N   1      34.438  18.111   6.825  0.00  0.00    -0.775 OA
HETATM   28  H   UNK N   1      33.608  18.000   6.406  0.00  0.00     0.167 HD
ENDBRANCH  25  27
ENDBRANCH  24  25
ENDBRANCH  23  24
ENDBRANCH  22  23
ENDBRANCH  21  22
ENDBRANCH   4  21
TORSDOF 9
ENDMDL
MODEL 4
REMARK VINA RESULT:      -6.5     13.484     15.799
REMARK  9 active torsions:
REMARK  status: ('A' for Active; 'I' for Inactive)
REMARK    1  A    between atoms: C_5  and  C_9 
REMARK    2  A    between atoms: C_9  and  C_8 
REMARK    3  A    between atoms: C_9  and  N_14 
REMARK    4  A    between atoms: N_17  and  C_21 
REMARK    5  A    between atoms: C_21  and  C_22 
REMARK    6  A    between atoms: C_22  and  O_23 
REMARK    7  A    between atoms: O_23  and  C_24 
REMARK    8  A    between atoms: C_24  and  C_25 
REMARK    9  A    between atoms: C_25  and  O_26 
ROOT
HETATM    1  N   UNK N   1      22.075  14.031   6.795  0.00  0.00     0.104 N 
HETATM    2  C   UNK N   1      22.045  15.064   7.817  0.00  0.00     0.293 C 
HETATM    3  C   UNK N   1      20.976  16.078   7.420  0.00  0.00     0.147 C 
HETATM    4  N   UNK N   1      21.116  16.548   6.029  0.00  0.00    -0.407 N 
HETATM    5  C   UNK N   1      21.687  15.631   5.024  0.00  0.00     0.147 C 
HETATM    6  C   UNK N   1      22.683  14.640   5.621  0.00  0.00     0.293 C 
ENDROOT
BRANCH   1   7
HETATM    7  C   UNK N   1      22.757  12.759   7.113  0.00  0.00     0.289 C 
BRANCH   7   8
HETATM    8  C   UNK N   1      22.976  12.537   8.609  0.00  0.00    -0.021 A 
HETATM    9  C   UNK N   1      24.260  12.543   9.179  0.00  0.00     0.010 A 
HETATM   10  C   UNK N   1      24.428  12.345  10.554  0.00  0.00     0.001 A 
HETATM   11  C   UNK N   1      23.313  12.144  11.373  0.00  0.00     0.000 A 
HETATM   12  C   UNK N   1      22.031  12.148  10.819  0.00  0.00     0.001 A 
HETATM   13  C   UNK N   1      21.864  12.346   9.446  0.00  0.00     0.010 A 
ENDBRANCH   7   8
BRANCH   7  14
HETATM   14  C   UNK N   1      22.008  11.620   6.432  0.00  0.00    -0.021 A 
HETATM   15  C   UNK N   1      22.647  10.398   6.175  0.00  0.00     0.011 A 
HETATM   16  C   UNK N   1      21.959   9.365   5.524  0.00  0.00     0.024 A 
HETATM   17  C   UNK N   1      20.632   9.552   5.119  0.00  0.00     0.034 A 
HETATM   18  C   UNK N   1      19.990  10.764   5.369  0.00  0.00     0.024 A 
HETATM   19 Cl   UNK N   1      19.772   8.273   4.292  0.00  0.00    -0.084 Cl
HETATM   20  C   UNK N   1      20.672  11.789   6.020  0.00  0.00     0.011 A 
ENDBRANCH   7  14
ENDBRANCH   1   7
BRANCH   4  21
HETATM   21  C   UNK N   1      21.577  17.931   5.923  0.00  0.00     0.143 C 
BRANCH  21  22
HETATM   22  C   UNK N   1      21.696  18.445   4.485  0.00  0.00     0.187 C 
BRANCH  22  23
HETATM   23  O   UNK N   1      21.058  19.678   4.315  0.00  0.00    -0.379 OA
BRANCH  23  24
HETATM   24  C   UNK N   1      20.546  19.672   3.011  0.00  0.00     0.277 C 
BRANCH  24  25
HETATM   25  C   UNK N   1      21.272  20.667   2.156  0.00  0.00     0.164 C 
HETATM   26  O   UNK N   1      21.345  20.517   0.949  0.00  0.00    -0.648 OA
BRANCH  25  27
HETATM   27  O   UNK N   1      21.840  21.744   2.730  0.00  0.00    -0.775 OA
HETATM   28  H   UNK N   1      22.430  21.749   3.458  0.00  0.00     0.167 HD
ENDBRANCH  25  27
ENDBRANCH  24  25
ENDBRANCH  23  24
ENDBRANCH  22  23
ENDBRANCH  21  22
ENDBRANCH   4  21
TORSDOF 9
ENDMDL
MODEL 5
REMARK VINA RESULT:      -6.4      9.010     14.092
REMARK  9 active torsions:
REMARK  status: ('A' for Active; 'I' for Inactive)
REMARK    1  A    between atoms: C_5  and  C_9 
REMARK    2  A    between atoms: C_9  and  C_8 
REMARK    3  A    between atoms: C_9  and  N_14 
REMARK    4  A    between atoms: N_17  and  C_21 
REMARK    5  A    between atoms: C_21  and  C_22 
REMARK    6  A    between atoms: C_22  and  O_23 
REMARK    7  A    between atoms: O_23  and  C_24 
REMARK    8  A    between atoms: C_24  and  C_25 
REMARK    9  A    between atoms: C_25  and  O_26 
ROOT
HETATM    1  N   UNK N   1      27.517  18.223   5.721  0.00  0.00     0.104 N 
HETATM    2  C   UNK N   1      28.208  17.055   6.245  0.00  0.00     0.293 C 
HETATM    3  C   UNK N   1      27.830  16.915   7.717  0.00  0.00     0.147 C 
HETATM    4  N   UNK N   1      28.005  18.167   8.478  0.00  0.00    -0.407 N 
HETATM    5  C   UNK N   1      27.826  19.453   7.779  0.00  0.00     0.147 C 
HETATM    6  C   UNK N   1      28.185  19.381   6.297  0.00  0.00     0.293 C 
ENDROOT
BRANCH   1   7
HETATM    7  C   UNK N   1      27.423  18.372   4.254  0.00  0.00     0.289 C 
BRANCH   7   8
HETATM    8  C   UNK N   1      27.746  17.094   3.483  0.00  0.00    -0.021 A 
HETATM    9  C   UNK N   1      29.070  16.708   3.209  0.00  0.00     0.010 A 
HETATM   10  C   UNK N   1      29.333  15.526   2.508  0.00  0.00     0.001 A 
HETATM   11  C   UNK N   1      28.278  14.716   2.080  0.00  0.00     0.000 A 
HETATM   12  C   UNK N   1      26.960  15.083   2.357  0.00  0.00     0.001 A 
HETATM   13  C   UNK N   1      26.696  16.264   3.057  0.00  0.00     0.010 A 
ENDBRANCH   7   8
BRANCH   7  14
HETATM   14  C   UNK N   1      26.061  18.963   3.911  0.00  0.00    -0.021 A 
HETATM   15  C   UNK N   1      24.888  18.414   4.451  0.00  0.00     0.011 A 
HETATM   16  C   UNK N   1      23.638  18.946   4.109  0.00  0.00     0.024 A 
HETATM   17  C   UNK N   1      23.553  20.024   3.219  0.00  0.00     0.034 A 
HETATM   18  C   UNK N   1      24.713  20.574   2.677  0.00  0.00     0.024 A 
HETATM   19 Cl   UNK N   1      21.994  20.684   2.776  0.00  0.00    -0.084 Cl
HETATM   20  C   UNK N   1      25.957  20.048   3.020  0.00  0.00     0.011 A 
ENDBRANCH   7  14
ENDBRANCH   1   7
BRANCH   4  21
HETATM   21  C   UNK N   1      29.131  18.131   9.410  0.00  0.00     0.143 C 
BRANCH  21  22
HETATM   22  C   UNK N   1      30.323  17.302   8.921  0.00  0.00     0.187 C 
BRANCH  22  23
HETATM   23  O   UNK N   1      31.342  18.105   8.400  0.00  0.00    -0.379 OA
BRANCH  23  24
HETATM   24  C   UNK N   1      32.366  17.231   8.016  0.00  0.00     0.277 C 
BRANCH  24  25
HETATM   25  C   UNK N   1      33.697  17.743   8.480  0.00  0.00     0.164 C 
HETATM   26  O   UNK N   1      34.338  18.523   7.799  0.00  0.00    -0.648 OA
BRANCH  25  27
HETATM   27  O   UNK N   1      34.182  17.341   9.670  0.00  0.00    -0.775 OA
HETATM   28  H   UNK N   1      34.745  17.826  10.241  0.00  0.00     0.167 HD
ENDBRANCH  25  27
ENDBRANCH  24  25
ENDBRANCH  23  24
ENDBRANCH  22  23
ENDBRANCH  21  22
ENDBRANCH   4  21
TORSDOF 9
ENDMDL
MODEL 6
REMARK VINA RESULT:      -6.4      9.867     12.852
REMARK  9 active torsions:
REMARK  status: ('A' for Active; 'I' for Inactive)
REMARK    1  A    between atoms: C_5  and  C_9 
REMARK    2  A    between atoms: C_9  and  C_8 
REMARK    3  A    between atoms: C_9  and  N_14 
REMARK    4  A    between atoms: N_17  and  C_21 
REMARK    5  A    between atoms: C_21  and  C_22 
REMARK    6  A    between atoms: C_22  and  O_23 
REMARK    7  A    between atoms: O_23  and  C_24 
REMARK    8  A    between atoms: C_24  and  C_25 
REMARK    9  A    between atoms: C_25  and  O_26 
ROOT
HETATM    1  N   UNK N   1      27.800  16.242   5.446  0.00  0.00     0.104 N 
HETATM    2  C   UNK N   1      26.408  16.450   5.810  0.00  0.00     0.293 C 
HETATM    3  C   UNK N   1      25.987  15.291   6.710  0.00  0.00     0.147 C 
HETATM    4  N   UNK N   1      26.317  13.971   6.141  0.00  0.00    -0.407 N 
HETATM    5  C   UNK N   1      27.502  13.849   5.271  0.00  0.00     0.147 C 
HETATM    6  C   UNK N   1      27.811  15.132   4.504  0.00  0.00     0.293 C 
ENDROOT
BRANCH   1   7
HETATM    7  C   UNK N   1      28.549  17.386   4.886  0.00  0.00     0.289 C 
BRANCH   7   8
HETATM    8  C   UNK N   1      27.898  18.741   5.161  0.00  0.00    -0.021 A 
HETATM    9  C   UNK N   1      27.904  19.320   6.441  0.00  0.00     0.010 A 
HETATM   10  C   UNK N   1      27.307  20.566   6.660  0.00  0.00     0.001 A 
HETATM   11  C   UNK N   1      26.703  21.248   5.600  0.00  0.00     0.000 A 
HETATM   12  C   UNK N   1      26.701  20.688   4.321  0.00  0.00     0.001 A 
HETATM   13  C   UNK N   1      27.297  19.443   4.102  0.00  0.00     0.010 A 
ENDBRANCH   7   8
BRANCH   7  14
HETATM   14  C   UNK N   1      29.995  17.299   5.356  0.00  0.00    -0.021 A 
HETATM   15  C   UNK N   1      31.052  17.544   4.465  0.00  0.00     0.011 A 
HETATM   16  C   UNK N   1      32.380  17.436   4.899  0.00  0.00     0.024 A 
HETATM   17  C   UNK N   1      32.659  17.075   6.223  0.00  0.00     0.034 A 
HETATM   18  C   UNK N   1      31.615  16.828   7.113  0.00  0.00     0.024 A 
HETATM   19 Cl   UNK N   1      34.315  16.923   6.768  0.00  0.00    -0.084 Cl
HETATM   20  C   UNK N   1      30.295  16.940   6.684  0.00  0.00     0.011 A 
ENDBRANCH   7  14
ENDBRANCH   1   7
BRANCH   4  21
HETATM   21  C   UNK N   1      25.147  13.221   5.686  0.00  0.00     0.143 C 
BRANCH  21  22
HETATM   22  C   UNK N   1      24.014  13.143   6.715  0.00  0.00     0.187 C 
BRANCH  22  23
HETATM   23  O   UNK N   1      24.392  12.428   7.856  0.00  0.00    -0.379 OA
BRANCH  23  24
HETATM   24  C   UNK N   1      23.967  13.192   8.950  0.00  0.00     0.277 C 
BRANCH  24  25
HETATM   25  C   UNK N   1      24.811  12.902  10.154  0.00  0.00     0.164 C 
HETATM   26  O   UNK N   1      24.582  11.934  10.859  0.00  0.00    -0.648 OA
BRANCH  25  27
HETATM   27  O   UNK N   1      25.840  13.717  10.454  0.00  0.00    -0.775 OA
HETATM   28  H   UNK N   1      26.154  14.438   9.945  0.00  0.00     0.167 HD
ENDBRANCH  25  27
ENDBRANCH  24  25
ENDBRANCH  23  24
ENDBRANCH  22  23
ENDBRANCH  21  22
ENDBRANCH   4  21
TORSDOF 9
ENDMDL
MODEL 7
REMARK VINA RESULT:      -6.2      6.802     12.303
REMARK  9 active torsions:
REMARK  status: ('A' for Active; 'I' for Inactive)
REMARK    1  A    between atoms: C_5  and  C_9 
REMARK    2  A    between atoms: C_9  and  C_8 
REMARK    3  A    between atoms: C_9  and  N_14 
REMARK    4  A    between atoms: N_17  and  C_21 
REMARK    5  A    between atoms: C_21  and  C_22 
REMARK    6  A    between atoms: C_22  and  O_23 
REMARK    7  A    between atoms: O_23  and  C_24 
REMARK    8  A    between atoms: C_24  and  C_25 
REMARK    9  A    between atoms: C_25  and  O_26 
ROOT
HETATM    1  N   UNK N   1      30.688  17.000   5.429  0.00  0.00     0.104 N 
HETATM    2  C   UNK N   1      30.773  15.574   5.700  0.00  0.00     0.293 C 
HETATM    3  C   UNK N   1      31.631  15.390   6.949  0.00  0.00     0.147 C 
HETATM    4  N   UNK N   1      32.914  16.113   6.878  0.00  0.00    -0.407 N 
HETATM    5  C   UNK N   1      32.980  17.367   6.104  0.00  0.00     0.147 C 
HETATM    6  C   UNK N   1      31.998  17.397   4.935  0.00  0.00     0.293 C 
ENDROOT
BRANCH   1   7
HETATM    7  C   UNK N   1      29.636  17.468   4.503  0.00  0.00     0.289 C 
BRANCH   7   8
HETATM    8  C   UNK N   1      28.856  16.337   3.836  0.00  0.00    -0.021 A 
HETATM    9  C   UNK N   1      27.667  15.831   4.389  0.00  0.00     0.010 A 
HETATM   10  C   UNK N   1      26.970  14.800   3.750  0.00  0.00     0.001 A 
HETATM   11  C   UNK N   1      27.450  14.269   2.550  0.00  0.00     0.000 A 
HETATM   12  C   UNK N   1      28.624  14.772   1.985  0.00  0.00     0.001 A 
HETATM   13  C   UNK N   1      29.321  15.802   2.623  0.00  0.00     0.010 A 
ENDBRANCH   7   8
BRANCH   7  14
HETATM   14  C   UNK N   1      28.752  18.469   5.236  0.00  0.00    -0.021 A 
HETATM   15  C   UNK N   1      28.040  19.448   4.526  0.00  0.00     0.011 A 
HETATM   16  C   UNK N   1      27.250  20.381   5.210  0.00  0.00     0.024 A 
HETATM   17  C   UNK N   1      27.173  20.346   6.607  0.00  0.00     0.034 A 
HETATM   18  C   UNK N   1      27.878  19.378   7.320  0.00  0.00     0.024 A 
HETATM   19 Cl   UNK N   1      26.200  21.518   7.469  0.00  0.00    -0.084 Cl
HETATM   20  C   UNK N   1      28.660  18.447   6.641  0.00  0.00     0.011 A 
ENDBRANCH   7  14
ENDBRANCH   1   7
BRANCH   4  21
HETATM   21  C   UNK N   1      34.072  15.234   6.716  0.00  0.00     0.143 C 
BRANCH  21  22
HETATM   22  C   UNK N   1      34.712  14.791   8.036  0.00  0.00     0.187 C 
BRANCH  22  23
HETATM   23  O   UNK N   1      34.776  15.836   8.963  0.00  0.00    -0.379 OA
BRANCH  23  24
HETATM   24  C   UNK N   1      35.457  15.325  10.075  0.00  0.00     0.277 C 
BRANCH  24  25
HETATM   25  C   UNK N   1      34.527  14.530  10.942  0.00  0.00     0.164 C 
HETATM   26  O   UNK N   1      34.872  13.459  11.410  0.00  0.00    -0.648 OA
BRANCH  25  27
HETATM   27  O   UNK N   1      33.300  15.013  11.215  0.00  0.00    -0.775 OA
HETATM   28  H   UNK N   1      32.479  14.632  10.974  0.00  0.00     0.167 HD
ENDBRANCH  25  27
ENDBRANCH  24  25
ENDBRANCH  23  24
ENDBRANCH  22  23
ENDBRANCH  21  22
ENDBRANCH   4  21
TORSDOF 9
ENDMDL
MODEL 8
REMARK VINA RESULT:      -6.1      6.229     11.444
REMARK  9 active torsions:
REMARK  status: ('A' for Active; 'I' for Inactive)
REMARK    1  A    between atoms: C_5  and  C_9 
REMARK    2  A    between atoms: C_9  and  C_8 
REMARK    3  A    between atoms: C_9  and  N_14 
REMARK    4  A    between atoms: N_17  and  C_21 
REMARK    5  A    between atoms: C_21  and  C_22 
REMARK    6  A    between atoms: C_22  and  O_23 
REMARK    7  A    between atoms: O_23  and  C_24 
REMARK    8  A    between atoms: C_24  and  C_25 
REMARK    9  A    between atoms: C_25  and  O_26 
ROOT
HETATM    1  N   UNK N   1      31.276  16.658   6.822  0.00  0.00     0.104 N 
HETATM    2  C   UNK N   1      31.693  15.314   7.185  0.00  0.00     0.293 C 
HETATM    3  C   UNK N   1      32.128  15.342   8.648  0.00  0.00     0.147 C 
HETATM    4  N   UNK N   1      33.090  16.421   8.942  0.00  0.00    -0.407 N 
HETATM    5  C   UNK N   1      33.019  17.668   8.159  0.00  0.00     0.147 C 
HETATM    6  C   UNK N   1      32.493  17.453   6.742  0.00  0.00     0.293 C 
ENDROOT
BRANCH   1   7
HETATM    7  C   UNK N   1      30.480  16.829   5.589  0.00  0.00     0.289 C 
BRANCH   7   8
HETATM    8  C   UNK N   1      29.887  15.526   5.055  0.00  0.00    -0.021 A 
HETATM    9  C   UNK N   1      28.618  15.073   5.453  0.00  0.00     0.010 A 
HETATM   10  C   UNK N   1      28.097  13.879   4.940  0.00  0.00     0.001 A 
HETATM   11  C   UNK N   1      28.837  13.131   4.020  0.00  0.00     0.000 A 
HETATM   12  C   UNK N   1      30.095  13.578   3.609  0.00  0.00     0.001 A 
HETATM   13  C   UNK N   1      30.615  14.770   4.121  0.00  0.00     0.010 A 
ENDBRANCH   7   8
BRANCH   7  14
HETATM   14  C   UNK N   1      29.443  17.919   5.825  0.00  0.00    -0.021 A 
HETATM   15  C   UNK N   1      28.992  18.208   7.122  0.00  0.00     0.011 A 
HETATM   16  C   UNK N   1      28.018  19.194   7.327  0.00  0.00     0.024 A 
HETATM   17  C   UNK N   1      27.483  19.891   6.237  0.00  0.00     0.034 A 
HETATM   18  C   UNK N   1      27.925  19.609   4.945  0.00  0.00     0.024 A 
HETATM   19 Cl   UNK N   1      26.256  21.113   6.484  0.00  0.00    -0.084 Cl
HETATM   20  C   UNK N   1      28.896  18.632   4.740  0.00  0.00     0.011 A 
ENDBRANCH   7  14
ENDBRANCH   1   7
BRANCH   4  21
HETATM   21  C   UNK N   1      34.446  15.938   9.200  0.00  0.00     0.143 C 
BRANCH  21  22
HETATM   22  C   UNK N   1      35.236  16.791  10.199  0.00  0.00     0.187 C 
BRANCH  22  23
HETATM   23  O   UNK N   1      35.919  16.005  11.132  0.00  0.00    -0.379 OA
BRANCH  23  24
HETATM   24  C   UNK N   1      34.964  15.143  11.685  0.00  0.00     0.277 C 
BRANCH  24  25
HETATM   25  C   UNK N   1      35.614  14.169  12.622  0.00  0.00     0.164 C 
HETATM   26  O   UNK N   1      34.945  13.505  13.394  0.00  0.00    -0.648 OA
BRANCH  25  27
HETATM   27  O   UNK N   1      36.952  14.023  12.602  0.00  0.00    -0.775 OA
HETATM   28  H   UNK N   1      37.474  13.719  11.886  0.00  0.00     0.167 HD
ENDBRANCH  25  27
ENDBRANCH  24  25
ENDBRANCH  23  24
ENDBRANCH  22  23
ENDBRANCH  21  22
ENDBRANCH   4  21
TORSDOF 9
ENDMDL
MODEL 9
REMARK VINA RESULT:      -6.1      7.777     12.737
REMARK  9 active torsions:
REMARK  status: ('A' for Active; 'I' for Inactive)
REMARK    1  A    between atoms: C_5  and  C_9 
REMARK    2  A    between atoms: C_9  and  C_8 
REMARK    3  A    between atoms: C_9  and  N_14 
REMARK    4  A    between atoms: N_17  and  C_21 
REMARK    5  A    between atoms: C_21  and  C_22 
REMARK    6  A    between atoms: C_22  and  O_23 
REMARK    7  A    between atoms: O_23  and  C_24 
REMARK    8  A    between atoms: C_24  and  C_25 
REMARK    9  A    between atoms: C_25  and  O_26 
ROOT
HETATM    1  N   UNK N   1      29.863  16.759   4.818  0.00  0.00     0.104 N 
HETATM    2  C   UNK N   1      30.091  15.324   4.877  0.00  0.00     0.293 C 
HETATM    3  C   UNK N   1      31.026  15.051   6.053  0.00  0.00     0.147 C 
HETATM    4  N   UNK N   1      32.233  15.899   6.037  0.00  0.00    -0.407 N 
HETATM    5  C   UNK N   1      32.145  17.249   5.450  0.00  0.00     0.147 C 
HETATM    6  C   UNK N   1      31.104  17.347   4.337  0.00  0.00     0.293 C 
ENDROOT
BRANCH   1   7
HETATM    7  C   UNK N   1      28.726  17.248   4.011  0.00  0.00     0.289 C 
BRANCH   7   8
HETATM    8  C   UNK N   1      27.704  16.166   3.670  0.00  0.00    -0.021 A 
HETATM    9  C   UNK N   1      27.716  15.497   2.434  0.00  0.00     0.010 A 
HETATM   10  C   UNK N   1      26.771  14.504   2.154  0.00  0.00     0.001 A 
HETATM   11  C   UNK N   1      25.808  14.166   3.109  0.00  0.00     0.000 A 
HETATM   12  C   UNK N   1      25.793  14.815   4.345  0.00  0.00     0.001 A 
HETATM   13  C   UNK N   1      26.738  15.807   4.625  0.00  0.00     0.010 A 
ENDBRANCH   7   8
BRANCH   7  14
HETATM   14  C   UNK N   1      28.120  18.461   4.706  0.00  0.00    -0.021 A 
HETATM   15  C   UNK N   1      28.268  18.639   6.090  0.00  0.00     0.011 A 
HETATM   16  C   UNK N   1      27.685  19.743   6.726  0.00  0.00     0.024 A 
HETATM   17  C   UNK N   1      26.945  20.671   5.983  0.00  0.00     0.034 A 
HETATM   18  C   UNK N   1      26.792  20.501   4.608  0.00  0.00     0.024 A 
HETATM   19 Cl   UNK N   1      26.201  22.044   6.773  0.00  0.00    -0.084 Cl
HETATM   20  C   UNK N   1      27.375  19.406   3.975  0.00  0.00     0.011 A 
ENDBRANCH   7  14
ENDBRANCH   1   7
BRANCH   4  21
HETATM   21  C   UNK N   1      33.455  15.168   5.705  0.00  0.00     0.143 C 
BRANCH  21  22
HETATM   22  C   UNK N   1      34.603  15.384   6.697  0.00  0.00     0.187 C 
BRANCH  22  23
HETATM   23  O   UNK N   1      34.147  15.473   8.015  0.00  0.00    -0.379 OA
BRANCH  23  24
HETATM   24  C   UNK N   1      34.911  16.477   8.623  0.00  0.00     0.277 C 
BRANCH  24  25
HETATM   25  C   UNK N   1      34.278  17.819   8.413  0.00  0.00     0.164 C 
HETATM   26  O   UNK N   1      33.095  17.996   8.649  0.00  0.00    -0.648 OA
BRANCH  25  27
HETATM   27  O   UNK N   1      35.029  18.844   7.968  0.00  0.00    -0.775 OA
HETATM   28  H   UNK N   1      35.001  19.234   7.116  0.00  0.00     0.167 HD
ENDBRANCH  25  27
ENDBRANCH  24  25
ENDBRANCH  23  24
ENDBRANCH  22  23
ENDBRANCH  21  22
ENDBRANCH   4  21
TORSDOF 9
ENDMDL
