MODEL 1
REMARK VINA RESULT:      -4.8      0.000      0.000
REMARK  5 active torsions:
REMARK  status: ('A' for Active; 'I' for Inactive)
REMARK    1  A    between atoms: S_1  and  C_7 
REMARK    2  A    between atoms: O_2  and  C_8 
REMARK    3  A    between atoms: C_6  and  N_5 
REMARK       I    between atoms: N_5  and  C_9 
REMARK    4  A    between atoms: C_6  and  C_7 
REMARK    5  A    between atoms: C_6  and  C_8 
ROOT
HETATM    1  C   UNK N   1      33.350  17.480   8.713  0.00  0.00     0.191 C 
ENDROOT
BRANCH   1   2
HETATM    2  N   UNK N   1      33.968  16.546   9.648  0.00  0.00    -0.346 N 
HETATM    3  C   UNK N   1      35.066  16.543  10.442  0.00  0.00     0.214 C 
HETATM    4  O   UNK N   1      35.832  17.484  10.502  0.00  0.00    -0.274 OA
HETATM    5  C   UNK N   1      35.330  15.332  11.265  0.00  0.00     0.117 C 
HETATM    6  H   UNK N   1      33.460  15.706   9.719  0.00  0.00     0.163 HD
ENDBRANCH   1   2
BRANCH   1   7
HETATM    7  C   UNK N   1      31.864  17.831   8.467  0.00  0.00     0.106 C 
BRANCH   7   8
HETATM    8  S   UNK N   1      30.899  16.961   7.204  0.00  0.00    -0.180 SA
HETATM    9  H   UNK N   1      30.242  15.812   7.522  0.00  0.00     0.101 HD
ENDBRANCH   7   8
ENDBRANCH   1   7
BRANCH   1  10
HETATM   10  C   UNK N   1      34.373  18.190   7.876  0.00  0.00     0.164 C 
HETATM   11  O   UNK N   1      34.562  17.834   6.721  0.00  0.00    -0.648 OA
BRANCH  10  12
HETATM   12  O   UNK N   1      35.086  19.215   8.377  0.00  0.00    -0.775 OA
HETATM   13  H   UNK N   1      34.650  19.992   8.666  0.00  0.00     0.167 HD
ENDBRANCH  10  12
ENDBRANCH   1  10
TORSDOF 5
ENDMDL
MODEL 2
REMARK VINA RESULT:      -4.7      2.391      3.945
REMARK  5 active torsions:
REMARK  status: ('A' for Active; 'I' for Inactive)
REMARK    1  A    between atoms: S_1  and  C_7 
REMARK    2  A    between atoms: O_2  and  C_8 
REMARK    3  A    between atoms: C_6  and  N_5 
REMARK       I    between atoms: N_5  and  C_9 
REMARK    4  A    between atoms: C_6  and  C_7 
REMARK    5  A    between atoms: C_6  and  C_8 
ROOT
HETATM    1  C   UNK N   1      33.821  17.215   8.876  0.00  0.00     0.191 C 
ENDROOT
BRANCH   1   2
HETATM    2  N   UNK N   1      32.410  17.540   9.047  0.00  0.00    -0.346 N 
HETATM    3  C   UNK N   1      31.317  17.595   8.248  0.00  0.00     0.214 C 
HETATM    4  O   UNK N   1      31.361  17.335   7.061  0.00  0.00    -0.274 OA
HETATM    5  C   UNK N   1      30.021  17.990   8.862  0.00  0.00     0.117 C 
HETATM    6  H   UNK N   1      32.198  17.780   9.978  0.00  0.00     0.163 HD
ENDBRANCH   1   2
BRANCH   1   7
HETATM    7  C   UNK N   1      34.671  16.057   9.452  0.00  0.00     0.106 C 
BRANCH   7   8
HETATM    8  S   UNK N   1      35.591  16.259  11.000  0.00  0.00    -0.180 SA
HETATM    9  H   UNK N   1      35.251  17.250  11.868  0.00  0.00     0.101 HD
ENDBRANCH   7   8
ENDBRANCH   1   7
BRANCH   1  10
HETATM   10  C   UNK N   1      34.517  18.201   7.983  0.00  0.00     0.164 C 
HETATM   11  O   UNK N   1      35.198  19.088   8.477  0.00  0.00    -0.648 OA
BRANCH  10  12
HETATM   12  O   UNK N   1      34.401  18.123   6.645  0.00  0.00    -0.775 OA
HETATM   13  H   UNK N   1      33.569  17.941   6.256  0.00  0.00     0.167 HD
ENDBRANCH  10  12
ENDBRANCH   1  10
TORSDOF 5
ENDMDL
MODEL 3
REMARK VINA RESULT:      -4.0      2.296      3.763
REMARK  5 active torsions:
REMARK  status: ('A' for Active; 'I' for Inactive)
REMARK    1  A    between atoms: S_1  and  C_7 
REMARK    2  A    between atoms: O_2  and  C_8 
REMARK    3  A    between atoms: C_6  and  N_5 
REMARK       I    between atoms: N_5  and  C_9 
REMARK    4  A    between atoms: C_6  and  C_7 
REMARK    5  A    between atoms: C_6  and  C_8 
ROOT
HETATM    1  C   UNK N   1      33.485  17.978   7.852  0.00  0.00     0.191 C 
ENDROOT
BRANCH   1   2
HETATM    2  N   UNK N   1      32.256  18.195   8.605  0.00  0.00    -0.346 N 
HETATM    3  C   UNK N   1      30.947  17.884   8.448  0.00  0.00     0.214 C 
HETATM    4  O   UNK N   1      30.532  17.270   7.484  0.00  0.00    -0.274 OA
HETATM    5  C   UNK N   1      29.992  18.317   9.503  0.00  0.00     0.117 C 
HETATM    6  H   UNK N   1      32.418  18.692   9.440  0.00  0.00     0.163 HD
ENDBRANCH   1   2
BRANCH   1   7
HETATM    7  C   UNK N   1      33.712  17.506   6.396  0.00  0.00     0.106 C 
BRANCH   7   8
HETATM    8  S   UNK N   1      34.310  15.833   6.043  0.00  0.00    -0.180 SA
HETATM    9  H   UNK N   1      33.627  15.034   5.178  0.00  0.00     0.101 HD
ENDBRANCH   7   8
ENDBRANCH   1   7
BRANCH   1  10
HETATM   10  C   UNK N   1      34.704  18.279   8.675  0.00  0.00     0.164 C 
HETATM   11  O   UNK N   1      35.349  19.294   8.452  0.00  0.00    -0.648 OA
BRANCH  10  12
HETATM   12  O   UNK N   1      35.098  17.447   9.656  0.00  0.00    -0.775 OA
HETATM   13  H   UNK N   1      35.137  17.752  10.541  0.00  0.00     0.167 HD
ENDBRANCH  10  12
ENDBRANCH   1  10
TORSDOF 5
ENDMDL
MODEL 4
REMARK VINA RESULT:      -3.9     11.481     12.314
REMARK  5 active torsions:
REMARK  status: ('A' for Active; 'I' for Inactive)
REMARK    1  A    between atoms: S_1  and  C_7 
REMARK    2  A    between atoms: O_2  and  C_8 
REMARK    3  A    between atoms: C_6  and  N_5 
REMARK       I    between atoms: N_5  and  C_9 
REMARK    4  A    between atoms: C_6  and  C_7 
REMARK    5  A    between atoms: C_6  and  C_8 
ROOT
HETATM    1  C   UNK N   1      42.706  22.476   2.890  0.00  0.00     0.191 C 
ENDROOT
BRANCH   1   2
HETATM    2  N   UNK N   1      42.030  23.542   2.159  0.00  0.00    -0.346 N 
HETATM    3  C   UNK N   1      41.103  23.615   1.175  0.00  0.00     0.214 C 
HETATM    4  O   UNK N   1      40.609  22.627   0.667  0.00  0.00    -0.274 OA
HETATM    5  C   UNK N   1      40.681  24.963   0.709  0.00  0.00     0.117 C 
HETATM    6  H   UNK N   1      42.323  24.434   2.456  0.00  0.00     0.163 HD
ENDBRANCH   1   2
BRANCH   1   7
HETATM    7  C   UNK N   1      42.626  20.938   2.742  0.00  0.00     0.106 C 
BRANCH   7   8
HETATM    8  S   UNK N   1      41.118  20.038   3.186  0.00  0.00    -0.180 SA
HETATM    9  H   UNK N   1      40.092  20.690   3.797  0.00  0.00     0.101 HD
ENDBRANCH   7   8
ENDBRANCH   1   7
BRANCH   1  10
HETATM   10  C   UNK N   1      43.618  23.018   3.951  0.00  0.00     0.164 C 
HETATM   11  O   UNK N   1      44.438  22.280   4.479  0.00  0.00    -0.648 OA
BRANCH  10  12
HETATM   12  O   UNK N   1      43.548  24.307   4.331  0.00  0.00    -0.775 OA
HETATM   13  H   UNK N   1      42.946  24.888   3.908  0.00  0.00     0.167 HD
ENDBRANCH  10  12
ENDBRANCH   1  10
TORSDOF 5
ENDMDL
MODEL 5
REMARK VINA RESULT:      -3.9     13.842     15.116
REMARK  5 active torsions:
REMARK  status: ('A' for Active; 'I' for Inactive)
REMARK    1  A    between atoms: S_1  and  C_7 
REMARK    2  A    between atoms: O_2  and  C_8 
REMARK    3  A    between atoms: C_6  and  N_5 
REMARK       I    between atoms: N_5  and  C_9 
REMARK    4  A    between atoms: C_6  and  C_7 
REMARK    5  A    between atoms: C_6  and  C_8 
ROOT
HETATM    1  C   UNK N   1      29.564  23.050  -3.860  0.00  0.00     0.191 C 
ENDROOT
BRANCH   1   2
HETATM    2  N   UNK N   1      28.368  23.814  -4.196  0.00  0.00    -0.346 N 
HETATM    3  C   UNK N   1      27.225  24.167  -3.561  0.00  0.00     0.214 C 
HETATM    4  O   UNK N   1      26.985  23.840  -2.415  0.00  0.00    -0.274 OA
HETATM    5  C   UNK N   1      26.233  24.986  -4.309  0.00  0.00     0.117 C 
HETATM    6  H   UNK N   1      28.400  24.162  -5.117  0.00  0.00     0.163 HD
ENDBRANCH   1   2
BRANCH   1   7
HETATM    7  C   UNK N   1      30.144  21.754  -4.475  0.00  0.00     0.106 C 
BRANCH   7   8
HETATM    8  S   UNK N   1      31.905  21.357  -4.317  0.00  0.00    -0.180 SA
HETATM    9  H   UNK N   1      32.308  20.058  -4.270  0.00  0.00     0.101 HD
ENDBRANCH   7   8
ENDBRANCH   1   7
BRANCH   1  10
HETATM   10  C   UNK N   1      30.320  23.669  -2.721  0.00  0.00     0.164 C 
HETATM   11  O   UNK N   1      30.838  24.767  -2.865  0.00  0.00    -0.648 OA
BRANCH  10  12
HETATM   12  O   UNK N   1      30.436  23.033  -1.541  0.00  0.00    -0.775 OA
HETATM   13  H   UNK N   1      30.520  22.100  -1.518  0.00  0.00     0.167 HD
ENDBRANCH  10  12
ENDBRANCH   1  10
TORSDOF 5
ENDMDL
MODEL 6
REMARK VINA RESULT:      -3.9     12.957     13.977
REMARK  5 active torsions:
REMARK  status: ('A' for Active; 'I' for Inactive)
REMARK    1  A    between atoms: S_1  and  C_7 
REMARK    2  A    between atoms: O_2  and  C_8 
REMARK    3  A    between atoms: C_6  and  N_5 
REMARK       I    between atoms: N_5  and  C_9 
REMARK    4  A    between atoms: C_6  and  C_7 
REMARK    5  A    between atoms: C_6  and  C_8 
ROOT
HETATM    1  C   UNK N   1      44.198  22.553   2.641  0.00  0.00     0.191 C 
ENDROOT
BRANCH   1   2
HETATM    2  N   UNK N   1      45.145  23.403   1.928  0.00  0.00    -0.346 N 
HETATM    3  C   UNK N   1      45.574  24.684   2.026  0.00  0.00     0.214 C 
HETATM    4  O   UNK N   1      45.159  25.449   2.875  0.00  0.00    -0.274 OA
HETATM    5  C   UNK N   1      46.593  25.158   1.051  0.00  0.00     0.117 C 
HETATM    6  H   UNK N   1      45.583  22.924   1.187  0.00  0.00     0.163 HD
ENDBRANCH   1   2
BRANCH   1   7
HETATM    7  C   UNK N   1      42.748  22.140   2.296  0.00  0.00     0.106 C 
BRANCH   7   8
HETATM    8  S   UNK N   1      41.587  23.331   1.577  0.00  0.00    -0.180 SA
HETATM    9  H   UNK N   1      40.886  23.007   0.457  0.00  0.00     0.101 HD
ENDBRANCH   7   8
ENDBRANCH   1   7
BRANCH   1  10
HETATM   10  C   UNK N   1      44.780  22.018   3.917  0.00  0.00     0.164 C 
HETATM   11  O   UNK N   1      44.343  22.406   4.991  0.00  0.00    -0.648 OA
BRANCH  10  12
HETATM   12  O   UNK N   1      45.778  21.115   3.896  0.00  0.00    -0.775 OA
HETATM   13  H   UNK N   1      45.985  20.628   4.669  0.00  0.00     0.167 HD
ENDBRANCH  10  12
ENDBRANCH   1  10
TORSDOF 5
ENDMDL
MODEL 7
REMARK VINA RESULT:      -3.8     11.502     12.482
REMARK  5 active torsions:
REMARK  status: ('A' for Active; 'I' for Inactive)
REMARK    1  A    between atoms: S_1  and  C_7 
REMARK    2  A    between atoms: O_2  and  C_8 
REMARK    3  A    between atoms: C_6  and  N_5 
REMARK       I    between atoms: N_5  and  C_9 
REMARK    4  A    between atoms: C_6  and  C_7 
REMARK    5  A    between atoms: C_6  and  C_8 
ROOT
HETATM    1  C   UNK N   1      23.613  12.004   9.649  0.00  0.00     0.191 C 
ENDROOT
BRANCH   1   2
HETATM    2  N   UNK N   1      22.442  11.987  10.519  0.00  0.00    -0.346 N 
HETATM    3  C   UNK N   1      21.159  12.412  10.437  0.00  0.00     0.214 C 
HETATM    4  O   UNK N   1      20.717  12.970   9.451  0.00  0.00    -0.274 OA
HETATM    5  C   UNK N   1      20.269  12.182  11.606  0.00  0.00     0.117 C 
HETATM    6  H   UNK N   1      22.633  11.557  11.384  0.00  0.00     0.163 HD
ENDBRANCH   1   2
BRANCH   1   7
HETATM    7  C   UNK N   1      23.821  11.448   8.219  0.00  0.00     0.106 C 
BRANCH   7   8
HETATM    8  S   UNK N   1      23.218  12.356   6.772  0.00  0.00    -0.180 SA
HETATM    9  H   UNK N   1      22.063  11.973   6.162  0.00  0.00     0.101 HD
ENDBRANCH   7   8
ENDBRANCH   1   7
BRANCH   1  10
HETATM   10  C   UNK N   1      24.781  12.685  10.299  0.00  0.00     0.164 C 
HETATM   11  O   UNK N   1      25.405  13.537   9.681  0.00  0.00    -0.648 OA
BRANCH  10  12
HETATM   12  O   UNK N   1      25.154  12.373  11.553  0.00  0.00    -0.775 OA
HETATM   13  H   UNK N   1      24.771  11.636  11.986  0.00  0.00     0.167 HD
ENDBRANCH  10  12
ENDBRANCH   1  10
TORSDOF 5
ENDMDL
MODEL 8
REMARK VINA RESULT:      -3.8      2.942      4.471
REMARK  5 active torsions:
REMARK  status: ('A' for Active; 'I' for Inactive)
REMARK    1  A    between atoms: S_1  and  C_7 
REMARK    2  A    between atoms: O_2  and  C_8 
REMARK    3  A    between atoms: C_6  and  N_5 
REMARK       I    between atoms: N_5  and  C_9 
REMARK    4  A    between atoms: C_6  and  C_7 
REMARK    5  A    between atoms: C_6  and  C_8 
ROOT
HETATM    1  C   UNK N   1      34.995  15.602   8.714  0.00  0.00     0.191 C 
ENDROOT
BRANCH   1   2
HETATM    2  N   UNK N   1      34.034  16.116   7.746  0.00  0.00    -0.346 N 
HETATM    3  C   UNK N   1      33.885  17.256   7.029  0.00  0.00     0.214 C 
HETATM    4  O   UNK N   1      34.670  18.181   7.101  0.00  0.00    -0.274 OA
HETATM    5  C   UNK N   1      32.710  17.364   6.123  0.00  0.00     0.117 C 
HETATM    6  H   UNK N   1      33.311  15.472   7.568  0.00  0.00     0.163 HD
ENDBRANCH   1   2
BRANCH   1   7
HETATM    7  C   UNK N   1      36.052  14.477   8.594  0.00  0.00     0.106 C 
BRANCH   7   8
HETATM    8  S   UNK N   1      37.319  14.252   9.869  0.00  0.00    -0.180 SA
HETATM    9  H   UNK N   1      38.603  14.632   9.627  0.00  0.00     0.101 HD
ENDBRANCH   7   8
ENDBRANCH   1   7
BRANCH   1  10
HETATM   10  C   UNK N   1      34.901  16.318  10.029  0.00  0.00     0.164 C 
HETATM   11  O   UNK N   1      35.479  17.386  10.179  0.00  0.00    -0.648 OA
BRANCH  10  12
HETATM   12  O   UNK N   1      34.188  15.804  11.048  0.00  0.00    -0.775 OA
HETATM   13  H   UNK N   1      34.001  14.886  11.072  0.00  0.00     0.167 HD
ENDBRANCH  10  12
ENDBRANCH   1  10
TORSDOF 5
ENDMDL
MODEL 9
REMARK VINA RESULT:      -3.6      4.754      6.924
REMARK  5 active torsions:
REMARK  status: ('A' for Active; 'I' for Inactive)
REMARK    1  A    between atoms: S_1  and  C_7 
REMARK    2  A    between atoms: O_2  and  C_8 
REMARK    3  A    between atoms: C_6  and  N_5 
REMARK       I    between atoms: N_5  and  C_9 
REMARK    4  A    between atoms: C_6  and  C_7 
REMARK    5  A    between atoms: C_6  and  C_8 
ROOT
HETATM    1  C   UNK N   1      36.712  13.523  13.090  0.00  0.00     0.191 C 
ENDROOT
BRANCH   1   2
HETATM    2  N   UNK N   1      36.405  14.711  12.302  0.00  0.00    -0.346 N 
HETATM    3  C   UNK N   1      35.317  15.205  11.664  0.00  0.00     0.214 C 
HETATM    4  O   UNK N   1      34.247  14.628  11.654  0.00  0.00    -0.274 OA
HETATM    5  C   UNK N   1      35.452  16.505  10.953  0.00  0.00     0.117 C 
HETATM    6  H   UNK N   1      37.186  15.303  12.209  0.00  0.00     0.163 HD
ENDBRANCH   1   2
BRANCH   1   7
HETATM    7  C   UNK N   1      37.201  12.119  12.659  0.00  0.00     0.106 C 
BRANCH   7   8
HETATM    8  S   UNK N   1      37.511  11.737  10.916  0.00  0.00    -0.180 SA
HETATM    9  H   UNK N   1      38.056  10.540  10.569  0.00  0.00     0.101 HD
ENDBRANCH   7   8
ENDBRANCH   1   7
BRANCH   1  10
HETATM   10  C   UNK N   1      36.501  13.757  14.557  0.00  0.00     0.164 C 
HETATM   11  O   UNK N   1      35.417  13.501  15.061  0.00  0.00    -0.648 OA
BRANCH  10  12
HETATM   12  O   UNK N   1      37.489  14.246  15.328  0.00  0.00    -0.775 OA
HETATM   13  H   UNK N   1      37.762  15.137  15.231  0.00  0.00     0.167 HD
ENDBRANCH  10  12
ENDBRANCH   1  10
TORSDOF 5
ENDMDL
