MODEL 1
REMARK VINA RESULT:      -7.3      0.000      0.000
REMARK WARNING: 32 MAX_TORS EXCEEDED!!!
REMARK  42 active torsions:
REMARK  status: ('A' for Active; 'I' for Inactive)
REMARK    1  A    between atoms: C_1  and  C_2 
REMARK    2  A    between atoms: C_1  and  N_121 
REMARK    3  A    between atoms: C_2  and  N_3 
REMARK    4  A    between atoms: N_3  and  C_4 
REMARK    5  A    between atoms: C_4  and  C_5 
REMARK    6  A    between atoms: C_5  and  C_6 
REMARK    7  A    between atoms: C_6  and  C_7 
REMARK    8  A    between atoms: C_7  and  C_8 
REMARK    9  A    between atoms: C_8  and  C_9 
REMARK   10  A    between atoms: C_9  and  C_10 
REMARK   11  A    between atoms: C_10  and  C_11 
REMARK   12  A    between atoms: C_11  and  C_12 
REMARK   13  A    between atoms: O_57  and  C_14 
REMARK   14  A    between atoms: C_22  and  O_36 
REMARK   15  A    between atoms: C_23  and  O_38 
REMARK   16  A    between atoms: C_39  and  O_50 
REMARK   17  A    between atoms: C_40  and  O_57 
REMARK   18  A    between atoms: C_41  and  O_52 
REMARK   19  A    between atoms: C_43  and  N_121 
REMARK   20  A    between atoms: C_44  and  O_53 
REMARK   21  A    between atoms: C_45  and  O_50 
REMARK   22  A    between atoms: C_46  and  C_58 
REMARK   23  A    between atoms: C_49  and  O_54 
REMARK   24  A    between atoms: C_58  and  O_59 
REMARK   25  A    between atoms: C_61  and  N_76 
REMARK   26  A    between atoms: C_68  and  C_72 
REMARK   27  A    between atoms: C_72  and  C_73 
REMARK       I    between atoms: C_73  and  N_74 
REMARK       I    between atoms: C_77  and  N_76 
REMARK   28  A    between atoms: C_78  and  C_77 
REMARK   29  A    between atoms: C_80  and  C_78 
REMARK   30  A    between atoms: C_78  and  N_81 
REMARK   31  A    between atoms: C_82  and  C_80 
REMARK   32  A    between atoms: C_93  and  O_95 
REMARK   33  A    between atoms: C_96  and  C_93 
REMARK   34  A    between atoms: O_105  and  C_100 
REMARK   35  A    between atoms: C_108  and  C_114 
REMARK   36  A    between atoms: C_110  and  O_111 
REMARK   37  A    between atoms: C_112  and  O_113 
REMARK   38  A    between atoms: C_114  and  N_115 
REMARK   39  A    between atoms: N_115  and  C_116 
REMARK   40  A    between atoms: C_116  and  P_117 
REMARK   41  A    between atoms: P_117  and  O_118 
REMARK   42  A    between atoms: P_117  and  O_120 
ROOT
HETATM    1  C   UNK N   1      38.691  12.547   6.355  0.00  0.00     0.139 A 
HETATM    2  C   UNK N   1      38.708  12.267   4.974  0.00  0.00     0.113 A 
HETATM    3  C   UNK N   1      37.509  13.086   6.896  0.00  0.00     0.113 A 
HETATM    4  C   UNK N   1      36.468  13.236   4.711  0.00  0.00    -0.021 A 
HETATM    5  C   UNK N   1      36.463  13.448   6.076  0.00  0.00     0.050 A 
HETATM    6  C   UNK N   1      37.587  12.622   4.159  0.00  0.00     0.050 A 
HETATM    7  O   UNK N   1      39.796  11.634   4.434  0.00  0.00    -0.306 OA
HETATM    8  O   UNK N   1      37.397  13.242   8.226  0.00  0.00    -0.306 OA
HETATM    9  C   UNK N   1      32.903  15.591   9.960  0.00  0.00     0.183 C 
HETATM   10  C   UNK N   1      38.547  11.208  -0.884  0.00  0.00     0.183 C 
HETATM   11  C   UNK N   1      34.045  14.695  10.009  0.00  0.00    -0.025 A 
HETATM   12  C   UNK N   1      39.086  10.962   0.475  0.00  0.00    -0.025 C 
HETATM   13  C   UNK N   1      36.297  13.627   8.870  0.00  0.00     0.098 A 
HETATM   14  C   UNK N   1      39.718  11.208   3.157  0.00  0.00     0.098 C 
HETATM   15  C   UNK N   1      35.088  12.915   8.780  0.00  0.00     0.068 A 
HETATM   16  C   UNK N   1      40.589  11.736   2.206  0.00  0.00     0.068 C 
HETATM   17  C   UNK N   1      40.253  11.633   0.858  0.00  0.00     0.036 C 
HETATM   18  C   UNK N   1      38.310  10.299   1.426  0.00  0.00     0.012 C 
HETATM   19  C   UNK N   1      35.263  15.329  10.190  0.00  0.00     0.012 A 
HETATM   20  C   UNK N   1      36.387  14.787   9.626  0.00  0.00     0.040 A 
HETATM   21  C   UNK N   1      38.631  10.410   2.763  0.00  0.00     0.040 C 
HETATM   22 Cl   UNK N   1      41.955  12.724   2.685  0.00  0.00    -0.081 Cl
HETATM   23 Cl   UNK N   1      34.949  11.390   7.916  0.00  0.00    -0.081 Cl
HETATM   24  C   UNK N   1      33.952  13.472   9.331  0.00  0.00     0.036 A 
HETATM   25  C   UNK N   1      37.018  11.100  -1.035  0.00  0.00     0.210 C 
HETATM   26  N   UNK N   1      35.028  13.365   2.555  0.00  0.00    -0.342 N 
HETATM   27  C   UNK N   1      36.214  12.352  -1.279  0.00  0.00     0.244 C 
HETATM   28  C   UNK N   1      34.041  13.046   4.822  0.00  0.00     0.246 C 
HETATM   29  N   UNK N   1      35.174  12.754  -0.499  0.00  0.00    -0.345 N 
HETATM   30  C   UNK N   1      35.184  13.604   3.993  0.00  0.00     0.210 C 
HETATM   31  C   UNK N   1      35.068  12.154   1.933  0.00  0.00     0.241 C 
HETATM   32  C   UNK N   1      34.509  11.986   0.533  0.00  0.00     0.185 C 
HETATM   33  O   UNK N   1      36.549  13.066  -2.208  0.00  0.00    -0.271 OA
HETATM   34  O   UNK N   1      33.828  11.845   4.830  0.00  0.00    -0.271 OA
HETATM   35  O   UNK N   1      35.431  11.160   2.538  0.00  0.00    -0.271 OA
HETATM   36  C   UNK N   1      32.750  15.932   8.461  0.00  0.00     0.210 C 
HETATM   37  N   UNK N   1      33.381  13.847   5.704  0.00  0.00    -0.342 N 
HETATM   38  C   UNK N   1      33.432  15.286   5.599  0.00  0.00     0.210 C 
HETATM   39  O   UNK N   1      31.974  18.119   8.586  0.00  0.00    -0.271 OA
HETATM   40  N   UNK N   1      33.959  16.399   7.818  0.00  0.00    -0.343 N 
HETATM   41  C   UNK N   1      34.305  16.103   6.539  0.00  0.00     0.245 C 
HETATM   42  O   UNK N   1      35.363  16.533   6.108  0.00  0.00    -0.271 OA
HETATM   43  C   UNK N   1      29.410  17.390   8.162  0.00  0.00     0.217 C 
HETATM   44  N   UNK N   1      30.500  16.512   8.088  0.00  0.00    -0.341 N 
HETATM   45  C   UNK N   1      31.735  16.940   8.352  0.00  0.00     0.244 C 
HETATM   46  C   UNK N   1      29.845  16.540   4.914  0.00  0.00     0.011 A 
HETATM   47  C   UNK N   1      29.838  16.149   3.513  0.00  0.00     0.076 A 
HETATM   48  C   UNK N   1      32.203  15.761   4.916  0.00  0.00    -0.025 A 
HETATM   49  C   UNK N   1      31.086  16.327   5.567  0.00  0.00     0.025 A 
HETATM   50  C   UNK N   1      30.951  15.589   2.905  0.00  0.00     0.038 A 
HETATM   51  C   UNK N   1      32.111  15.393   3.592  0.00  0.00     0.012 A 
HETATM   52  C   UNK N   1      28.835  18.027   6.916  0.00  0.00    -0.009 C 
HETATM   53  C   UNK N   1      28.024  19.110   7.236  0.00  0.00     0.048 C 
HETATM   54  C   UNK N   1      26.651  18.744   5.345  0.00  0.00     0.026 C 
HETATM   55  C   UNK N   1      28.709  17.383   5.615  0.00  0.00     0.020 C 
HETATM   56  C   UNK N   1      27.002  19.522   6.433  0.00  0.00     0.076 C 
HETATM   57  C   UNK N   1      27.471  17.670   4.950  0.00  0.00     0.088 C 
HETATM   58  H   UNK N   1      34.880  14.154   1.986  0.00  0.00     0.163 HD
HETATM   59  H   UNK N   1      34.839  13.667  -0.652  0.00  0.00     0.163 HD
HETATM   60  H   UNK N   1      32.859  13.435   6.429  0.00  0.00     0.163 HD
HETATM   61  H   UNK N   1      34.570  16.966   8.342  0.00  0.00     0.163 HD
HETATM   62  H   UNK N   1      30.353  15.571   7.839  0.00  0.00     0.163 HD
ENDROOT
BRANCH   1  63
HETATM   63  O   UNK N   1      39.792  12.289   7.111  0.00  0.00    -0.312 OA
BRANCH  63  64
HETATM   64  C   UNK N   1      40.641  11.186   7.008  0.00  0.00     0.298 C 
HETATM   65  C   UNK N   1      40.204  10.145   8.060  0.00  0.00     0.211 C 
HETATM   66  C   UNK N   1      41.235   9.054   8.328  0.00  0.00     0.183 C 
HETATM   67  C   UNK N   1      42.626   9.643   8.393  0.00  0.00     0.180 C 
HETATM   68  C   UNK N   1      42.895  10.452   7.101  0.00  0.00     0.179 C 
HETATM   69  O   UNK N   1      42.012  11.560   6.990  0.00  0.00    -0.348 OA
BRANCH  65  70
HETATM   70  O   UNK N   1      38.925   9.623   7.718  0.00  0.00    -0.348 OA
BRANCH  70  71
HETATM   71  C   UNK N   1      38.033   9.773   8.815  0.00  0.00     0.263 C 
HETATM   72  C   UNK N   1      37.359   8.446   9.232  0.00  0.00     0.093 C 
HETATM   73  C   UNK N   1      37.345   8.289  10.781  0.00  0.00     0.054 C 
HETATM   74  C   UNK N   1      36.292   7.256  11.187  0.00  0.00     0.041 C 
HETATM   75  C   UNK N   1      37.021   9.650  11.486  0.00  0.00     0.174 C 
HETATM   76  C   UNK N   1      37.594  10.820  10.690  0.00  0.00     0.151 C 
HETATM   77  O   UNK N   1      38.659  10.364   9.931  0.00  0.00    -0.354 OA
HETATM   78  C   UNK N   1      37.981  12.016  11.535  0.00  0.00     0.042 C 
BRANCH  73  79
HETATM   79  N   UNK N   1      38.695   7.879  11.224  0.00  0.00    -0.409 N 
HETATM   80  H   UNK N   1      39.551   8.288  10.848  0.00  0.00     0.154 HD
BRANCH  79  81
HETATM   81  C   UNK N   1      38.694   6.830  12.251  0.00  0.00     0.134 C 
BRANCH  81  82
HETATM   82  C   UNK N   1      39.388   7.281  13.529  0.00  0.00     0.133 C 
BRANCH  82  83
HETATM   83  N   UNK N   1      38.462   8.001  14.388  0.00  0.00    -0.420 N 
HETATM   84  H   UNK N   1      37.565   7.658  14.731  0.00  0.00     0.153 HD
BRANCH  83  85
HETATM   85  C   UNK N   1      39.050   9.301  14.671  0.00  0.00     0.113 C 
BRANCH  85  86
HETATM   86  C   UNK N   1      37.946  10.328  14.871  0.00  0.00     0.019 C 
BRANCH  86  87
HETATM   87  C   UNK N   1      36.637   9.655  15.246  0.00  0.00     0.002 C 
BRANCH  87  88
HETATM   88  C   UNK N   1      36.335   9.867  16.722  0.00  0.00     0.000 C 
BRANCH  88  89
HETATM   89  C   UNK N   1      35.041  10.652  16.876  0.00  0.00     0.000 C 
BRANCH  89  90
HETATM   90  C   UNK N   1      35.336  12.059  17.362  0.00  0.00     0.000 C 
BRANCH  90  91
HETATM   91  C   UNK N   1      34.998  13.087  16.293  0.00  0.00     0.000 C 
BRANCH  91  92
HETATM   92  C   UNK N   1      36.264  13.533  15.587  0.00  0.00    -0.000 C 
BRANCH  92  93
HETATM   93  C   UNK N   1      35.990  13.804  14.120  0.00  0.00    -0.005 C 
HETATM   94  C   UNK N   1      35.073  12.729  13.576  0.00  0.00     0.005 C 
ENDBRANCH  92  93
ENDBRANCH  91  92
ENDBRANCH  90  91
ENDBRANCH  89  90
ENDBRANCH  88  89
ENDBRANCH  87  88
ENDBRANCH  86  87
ENDBRANCH  85  86
ENDBRANCH  83  85
ENDBRANCH  82  83
ENDBRANCH  81  82
ENDBRANCH  79  81
ENDBRANCH  73  79
BRANCH  75  95
HETATM   95  O   UNK N   1      35.650   9.872  11.631  0.00  0.00    -0.391 OA
HETATM   96  H   UNK N   1      35.117   9.615  12.399  0.00  0.00     0.210 HD
ENDBRANCH  75  95
ENDBRANCH  70  71
ENDBRANCH  65  70
BRANCH  66  97
HETATM   97  O   UNK N   1      40.927   8.413   9.531  0.00  0.00    -0.390 OA
HETATM   98  H   UNK N   1      40.476   7.921  10.235  0.00  0.00     0.210 HD
ENDBRANCH  66  97
BRANCH  67  99
HETATM   99  O   UNK N   1      43.541   8.599   8.551  0.00  0.00    -0.390 OA
HETATM  100  H   UNK N   1      44.242   8.435   7.902  0.00  0.00     0.210 HD
ENDBRANCH  67  99
BRANCH  68 101
HETATM  101  C   UNK N   1      44.310  11.051   7.095  0.00  0.00     0.198 C 
BRANCH 101 102
HETATM  102  O   UNK N   1      44.902  11.073   8.360  0.00  0.00    -0.398 OA
HETATM  103  H   UNK N   1      45.853  10.926   8.478  0.00  0.00     0.209 HD
ENDBRANCH 101 102
ENDBRANCH  68 101
ENDBRANCH  63  64
ENDBRANCH   1  63
BRANCH  10 104
HETATM  104  O   UNK N   1      39.288  10.584  -1.877  0.00  0.00    -0.388 OA
HETATM  105  H   UNK N   1      38.840  10.140  -2.614  0.00  0.00     0.210 HD
ENDBRANCH  10 104
BRANCH  32 106
HETATM  106  C   UNK N   1      32.998  12.319   0.537  0.00  0.00     0.137 C 
BRANCH 106 107
HETATM  107  C   UNK N   1      32.148  11.492   1.477  0.00  0.00     0.217 C 
HETATM  108  O   UNK N   1      31.539  12.041   2.380  0.00  0.00    -0.274 OA
HETATM  109  N   UNK N   1      32.058  10.155   1.333  0.00  0.00    -0.370 N 
HETATM  110  H   UNK N   1      32.588   9.325   1.315  0.00  0.00     0.159 HD
HETATM  111  H   UNK N   1      31.112   9.922   1.195  0.00  0.00     0.159 HD
ENDBRANCH 106 107
ENDBRANCH  32 106
BRANCH   9 112
HETATM  112  O   UNK N   1      31.756  14.959  10.450  0.00  0.00    -0.388 OA
HETATM  113  H   UNK N   1      31.308  14.252  10.939  0.00  0.00     0.210 HD
ENDBRANCH   9 112
BRANCH  25 114
HETATM  114  N   UNK N   1      36.384   9.800  -0.976  0.00  0.00    -0.343 N 
HETATM  115  C   UNK N   1      35.861   9.138  -2.045  0.00  0.00     0.240 C 
HETATM  116  O   UNK N   1      35.482   7.989  -1.891  0.00  0.00    -0.271 OA
HETATM  117  H   UNK N   1      36.327   9.361  -0.096  0.00  0.00     0.163 HD
BRANCH 115 118
HETATM  118  C   UNK N   1      35.695   9.762  -3.419  0.00  0.00     0.169 C 
BRANCH 118 119
HETATM  119  C   UNK N   1      34.227   9.849  -3.840  0.00  0.00     0.038 C 
BRANCH 119 120
HETATM  120  C   UNK N   1      33.383  10.594  -2.813  0.00  0.00    -0.020 C 
HETATM  121  C   UNK N   1      32.145   9.794  -2.457  0.00  0.00     0.009 C 
HETATM  122  C   UNK N   1      32.969  11.940  -3.371  0.00  0.00     0.009 C 
ENDBRANCH 119 120
ENDBRANCH 118 119
BRANCH 118 123
HETATM  123  N   UNK N   1      36.531   9.163  -4.451  0.00  0.00    -0.413 N 
HETATM  124  C   UNK N   1      35.641   8.585  -5.444  0.00  0.00     0.140 C 
HETATM  125  H   UNK N   1      37.551   9.154  -4.473  0.00  0.00     0.153 HD
ENDBRANCH 118 123
ENDBRANCH 115 118
ENDBRANCH  25 114
BRANCH  47 126
HETATM  126  O   UNK N   1      28.824  16.352   2.687  0.00  0.00    -0.360 OA
HETATM  127  H   UNK N   1      28.868  16.057   1.800  0.00  0.00     0.217 HD
ENDBRANCH  47 126
BRANCH  43 128
HETATM  128  C   UNK N   1      29.112  17.899   9.569  0.00  0.00     0.168 C 
HETATM  129  O   UNK N   1      28.202  17.413  10.223  0.00  0.00    -0.648 OA
BRANCH 128 130
HETATM  130  O   UNK N   1      29.776  18.960  10.064  0.00  0.00    -0.775 OA
HETATM  131  H   UNK N   1      29.417  19.511  10.732  0.00  0.00     0.167 HD
ENDBRANCH 128 130
ENDBRANCH  43 128
BRANCH  57 132
HETATM  132  O   UNK N   1      27.016  16.906   3.956  0.00  0.00    -0.359 OA
HETATM  133  H   UNK N   1      26.125  16.747   3.713  0.00  0.00     0.217 HD
ENDBRANCH  57 132
BRANCH  54 134
HETATM  134  C   UNK N   1      25.395  19.096   4.580  0.00  0.00     0.159 C 
BRANCH 134 135
HETATM  135  N   UNK N   1      24.144  18.738   5.258  0.00  0.00    -0.407 N 
HETATM  136  H   UNK N   1      23.969  18.879   6.253  0.00  0.00     0.154 HD
BRANCH 135 137
HETATM  137  C   UNK N   1      23.183  18.155   4.330  0.00  0.00     0.239 C 
BRANCH 137 138
HETATM  138  P   UNK N   1      21.460  18.518   4.931  0.00  0.00     0.253 P 
HETATM  139  O   UNK N   1      20.502  17.391   4.472  0.00  0.00    -0.652 OA
BRANCH 138 140
HETATM  140  O   UNK N   1      21.284  18.544   6.657  0.00  0.00    -0.328 OA
HETATM  141  H   UNK N   1      21.403  17.934   7.401  0.00  0.00     0.220 HD
ENDBRANCH 138 140
BRANCH 138 142
HETATM  142  O   UNK N   1      20.711  19.956   4.307  0.00  0.00    -0.328 OA
HETATM  143  H   UNK N   1      19.966  20.571   4.216  0.00  0.00     0.220 HD
ENDBRANCH 138 142
ENDBRANCH 137 138
ENDBRANCH 135 137
ENDBRANCH 134 135
ENDBRANCH  54 134
BRANCH  56 144
HETATM  144  O   UNK N   1      26.287  20.604   6.781  0.00  0.00    -0.360 OA
HETATM  145  H   UNK N   1      25.480  20.847   6.373  0.00  0.00     0.217 HD
ENDBRANCH  56 144
TORSDOF 42
ENDMDL
MODEL 2
REMARK VINA RESULT:      -7.1      2.135      2.943
REMARK WARNING: 32 MAX_TORS EXCEEDED!!!
REMARK  42 active torsions:
REMARK  status: ('A' for Active; 'I' for Inactive)
REMARK    1  A    between atoms: C_1  and  C_2 
REMARK    2  A    between atoms: C_1  and  N_121 
REMARK    3  A    between atoms: C_2  and  N_3 
REMARK    4  A    between atoms: N_3  and  C_4 
REMARK    5  A    between atoms: C_4  and  C_5 
REMARK    6  A    between atoms: C_5  and  C_6 
REMARK    7  A    between atoms: C_6  and  C_7 
REMARK    8  A    between atoms: C_7  and  C_8 
REMARK    9  A    between atoms: C_8  and  C_9 
REMARK   10  A    between atoms: C_9  and  C_10 
REMARK   11  A    between atoms: C_10  and  C_11 
REMARK   12  A    between atoms: C_11  and  C_12 
REMARK   13  A    between atoms: O_57  and  C_14 
REMARK   14  A    between atoms: C_22  and  O_36 
REMARK   15  A    between atoms: C_23  and  O_38 
REMARK   16  A    between atoms: C_39  and  O_50 
REMARK   17  A    between atoms: C_40  and  O_57 
REMARK   18  A    between atoms: C_41  and  O_52 
REMARK   19  A    between atoms: C_43  and  N_121 
REMARK   20  A    between atoms: C_44  and  O_53 
REMARK   21  A    between atoms: C_45  and  O_50 
REMARK   22  A    between atoms: C_46  and  C_58 
REMARK   23  A    between atoms: C_49  and  O_54 
REMARK   24  A    between atoms: C_58  and  O_59 
REMARK   25  A    between atoms: C_61  and  N_76 
REMARK   26  A    between atoms: C_68  and  C_72 
REMARK   27  A    between atoms: C_72  and  C_73 
REMARK       I    between atoms: C_73  and  N_74 
REMARK       I    between atoms: C_77  and  N_76 
REMARK   28  A    between atoms: C_78  and  C_77 
REMARK   29  A    between atoms: C_80  and  C_78 
REMARK   30  A    between atoms: C_78  and  N_81 
REMARK   31  A    between atoms: C_82  and  C_80 
REMARK   32  A    between atoms: C_93  and  O_95 
REMARK   33  A    between atoms: C_96  and  C_93 
REMARK   34  A    between atoms: O_105  and  C_100 
REMARK   35  A    between atoms: C_108  and  C_114 
REMARK   36  A    between atoms: C_110  and  O_111 
REMARK   37  A    between atoms: C_112  and  O_113 
REMARK   38  A    between atoms: C_114  and  N_115 
REMARK   39  A    between atoms: N_115  and  C_116 
REMARK   40  A    between atoms: C_116  and  P_117 
REMARK   41  A    between atoms: P_117  and  O_118 
REMARK   42  A    between atoms: P_117  and  O_120 
ROOT
HETATM    1  C   UNK N   1      36.817  10.950   4.962  0.00  0.00     0.139 A 
HETATM    2  C   UNK N   1      36.501  10.559   3.646  0.00  0.00     0.113 A 
HETATM    3  C   UNK N   1      35.889  11.760   5.641  0.00  0.00     0.113 A 
HETATM    4  C   UNK N   1      34.468  11.934   3.684  0.00  0.00    -0.021 A 
HETATM    5  C   UNK N   1      34.780  12.256   4.991  0.00  0.00     0.050 A 
HETATM    6  C   UNK N   1      35.321  11.064   3.014  0.00  0.00     0.050 A 
HETATM    7  O   UNK N   1      37.322   9.676   2.995  0.00  0.00    -0.306 OA
HETATM    8  O   UNK N   1      36.081  12.045   6.941  0.00  0.00    -0.306 OA
HETATM    9  C   UNK N   1      32.538  15.389   9.175  0.00  0.00     0.183 C 
HETATM   10  C   UNK N   1      34.958   9.072  -1.911  0.00  0.00     0.183 C 
HETATM   11  C   UNK N   1      33.484  14.288   9.122  0.00  0.00    -0.025 A 
HETATM   12  C   UNK N   1      35.710   8.836  -0.655  0.00  0.00    -0.025 C 
HETATM   13  C   UNK N   1      35.224  12.697   7.725  0.00  0.00     0.098 A 
HETATM   14  C   UNK N   1      36.909   9.170   1.816  0.00  0.00     0.098 C 
HETATM   15  C   UNK N   1      33.914  12.238   7.946  0.00  0.00     0.068 A 
HETATM   16  C   UNK N   1      37.649   9.430   0.663  0.00  0.00     0.068 C 
HETATM   17  C   UNK N   1      37.032   9.287  -0.577  0.00  0.00     0.036 C 
HETATM   18  C   UNK N   1      35.036   8.424   0.496  0.00  0.00     0.012 C 
HETATM   19  C   UNK N   1      34.808  14.675   8.997  0.00  0.00     0.012 A 
HETATM   20  C   UNK N   1      35.675  13.873   8.305  0.00  0.00     0.040 A 
HETATM   21  C   UNK N   1      35.639   8.579   1.728  0.00  0.00     0.040 C 
HETATM   22 Cl   UNK N   1      39.241  10.159   0.760  0.00  0.00    -0.081 Cl
HETATM   23 Cl   UNK N   1      33.326  10.706   7.313  0.00  0.00    -0.081 Cl
HETATM   24  C   UNK N   1      33.034  13.057   8.625  0.00  0.00     0.036 A 
HETATM   25  C   UNK N   1      33.437   9.262  -1.763  0.00  0.00     0.210 C 
HETATM   26  N   UNK N   1      32.667  12.172   1.831  0.00  0.00    -0.342 N 
HETATM   27  C   UNK N   1      32.841  10.626  -2.005  0.00  0.00     0.244 C 
HETATM   28  C   UNK N   1      32.122  12.249   4.262  0.00  0.00     0.246 C 
HETATM   29  N   UNK N   1      32.073  11.293  -1.101  0.00  0.00    -0.345 N 
HETATM   30  C   UNK N   1      33.154  12.493   3.176  0.00  0.00     0.210 C 
HETATM   31  C   UNK N   1      32.358  10.931   1.363  0.00  0.00     0.241 C 
HETATM   32  C   UNK N   1      31.504  10.764   0.121  0.00  0.00     0.185 C 
HETATM   33  O   UNK N   1      33.103  11.178  -3.060  0.00  0.00    -0.271 OA
HETATM   34  O   UNK N   1      31.701  11.120   4.454  0.00  0.00    -0.271 OA
HETATM   35  O   UNK N   1      32.650   9.937   2.007  0.00  0.00    -0.271 OA
HETATM   36  C   UNK N   1      32.147  15.627   7.700  0.00  0.00     0.210 C 
HETATM   37  N   UNK N   1      31.813  13.236   5.147  0.00  0.00    -0.342 N 
HETATM   38  C   UNK N   1      32.102  14.622   4.861  0.00  0.00     0.210 C 
HETATM   39  O   UNK N   1      31.823  17.929   7.700  0.00  0.00    -0.271 OA
HETATM   40  N   UNK N   1      33.264  15.786   6.794  0.00  0.00    -0.343 N 
HETATM   41  C   UNK N   1      33.281  15.321   5.518  0.00  0.00     0.245 C 
HETATM   42  O   UNK N   1      34.290  15.491   4.851  0.00  0.00    -0.271 OA
HETATM   43  C   UNK N   1      29.138  17.700   7.847  0.00  0.00     0.217 C 
HETATM   44  N   UNK N   1      30.012  16.617   7.680  0.00  0.00    -0.341 N 
HETATM   45  C   UNK N   1      31.331  16.808   7.658  0.00  0.00     0.244 C 
HETATM   46  C   UNK N   1      28.739  16.513   4.701  0.00  0.00     0.011 A 
HETATM   47  C   UNK N   1      28.375  16.017   3.383  0.00  0.00     0.076 A 
HETATM   48  C   UNK N   1      30.866  15.277   4.363  0.00  0.00    -0.025 A 
HETATM   49  C   UNK N   1      30.028  16.109   5.135  0.00  0.00     0.025 A 
HETATM   50  C   UNK N   1      29.220  15.195   2.653  0.00  0.00     0.038 A 
HETATM   51  C   UNK N   1      30.441  14.826   3.133  0.00  0.00     0.012 A 
HETATM   52  C   UNK N   1      28.447  18.334   6.660  0.00  0.00    -0.009 C 
HETATM   53  C   UNK N   1      27.928  19.581   6.990  0.00  0.00     0.048 C 
HETATM   54  C   UNK N   1      26.155  19.345   5.443  0.00  0.00     0.026 C 
HETATM   55  C   UNK N   1      27.942  17.623   5.492  0.00  0.00     0.020 C 
HETATM   56  C   UNK N   1      26.856  20.123   6.345  0.00  0.00     0.076 C 
HETATM   57  C   UNK N   1      26.668  18.098   5.036  0.00  0.00     0.088 C 
HETATM   58  H   UNK N   1      32.552  12.925   1.207  0.00  0.00     0.163 HD
HETATM   59  H   UNK N   1      31.885  12.239  -1.300  0.00  0.00     0.163 HD
HETATM   60  H   UNK N   1      31.383  13.000   6.000  0.00  0.00     0.163 HD
HETATM   61  H   UNK N   1      34.062  16.259   7.124  0.00  0.00     0.163 HD
HETATM   62  H   UNK N   1      29.648  15.707   7.578  0.00  0.00     0.163 HD
ENDROOT
BRANCH   1  63
HETATM   63  O   UNK N   1      37.984  10.538   5.528  0.00  0.00    -0.312 OA
BRANCH  63  64
HETATM   64  C   UNK N   1      39.101  11.324   5.812  0.00  0.00     0.298 C 
HETATM   65  C   UNK N   1      38.980  11.822   7.267  0.00  0.00     0.211 C 
HETATM   66  C   UNK N   1      39.916  12.974   7.617  0.00  0.00     0.183 C 
HETATM   67  C   UNK N   1      39.969  13.976   6.485  0.00  0.00     0.180 C 
HETATM   68  C   UNK N   1      40.343  13.243   5.175  0.00  0.00     0.179 C 
HETATM   69  O   UNK N   1      39.346  12.299   4.807  0.00  0.00    -0.348 OA
BRANCH  65  70
HETATM   70  O   UNK N   1      39.099  10.723   8.164  0.00  0.00    -0.348 OA
BRANCH  70  71
HETATM   71  C   UNK N   1      37.994  10.707   9.058  0.00  0.00     0.263 C 
HETATM   72  C   UNK N   1      37.419   9.290   9.282  0.00  0.00     0.093 C 
HETATM   73  C   UNK N   1      37.113   9.043  10.789  0.00  0.00     0.054 C 
HETATM   74  C   UNK N   1      36.136   7.875  10.934  0.00  0.00     0.041 C 
HETATM   75  C   UNK N   1      36.489  10.316  11.457  0.00  0.00     0.174 C 
HETATM   76  C   UNK N   1      37.062  11.587  10.835  0.00  0.00     0.151 C 
HETATM   77  O   UNK N   1      38.305  11.300  10.297  0.00  0.00    -0.354 OA
HETATM   78  C   UNK N   1      37.121  12.768  11.782  0.00  0.00     0.042 C 
BRANCH  73  79
HETATM   79  N   UNK N   1      38.387   8.765  11.487  0.00  0.00    -0.409 N 
HETATM   80  H   UNK N   1      39.205   8.378  11.016  0.00  0.00     0.154 HD
BRANCH  79  81
HETATM   81  C   UNK N   1      38.369   9.094  12.918  0.00  0.00     0.134 C 
BRANCH  81  82
HETATM   82  C   UNK N   1      38.363   7.847  13.791  0.00  0.00     0.133 C 
BRANCH  82  83
HETATM   83  N   UNK N   1      37.567   8.064  14.989  0.00  0.00    -0.420 N 
HETATM   84  H   UNK N   1      37.923   8.201  15.935  0.00  0.00     0.153 HD
BRANCH  83  85
HETATM   85  C   UNK N   1      36.167   8.050  14.592  0.00  0.00     0.113 C 
BRANCH  85  86
HETATM   86  C   UNK N   1      35.380   9.020  15.460  0.00  0.00     0.019 C 
BRANCH  86  87
HETATM   87  C   UNK N   1      35.513  10.443  14.945  0.00  0.00     0.002 C 
BRANCH  87  88
HETATM   88  C   UNK N   1      34.169  11.152  14.992  0.00  0.00     0.000 C 
BRANCH  88  89
HETATM   89  C   UNK N   1      34.346  12.559  15.541  0.00  0.00     0.000 C 
BRANCH  89  90
HETATM   90  C   UNK N   1      35.522  12.605  16.498  0.00  0.00     0.000 C 
BRANCH  90  91
HETATM   91  C   UNK N   1      35.172  13.387  17.755  0.00  0.00     0.000 C 
BRANCH  91  92
HETATM   92  C   UNK N   1      35.163  12.458  18.955  0.00  0.00    -0.000 C 
BRANCH  92  93
HETATM   93  C   UNK N   1      35.714  11.097  18.581  0.00  0.00    -0.005 C 
HETATM   94  C   UNK N   1      34.759  10.023  19.058  0.00  0.00     0.005 C 
ENDBRANCH  92  93
ENDBRANCH  91  92
ENDBRANCH  90  91
ENDBRANCH  89  90
ENDBRANCH  88  89
ENDBRANCH  87  88
ENDBRANCH  86  87
ENDBRANCH  85  86
ENDBRANCH  83  85
ENDBRANCH  82  83
ENDBRANCH  81  82
ENDBRANCH  79  81
ENDBRANCH  73  79
BRANCH  75  95
HETATM   95  O   UNK N   1      35.100  10.371  11.323  0.00  0.00    -0.391 OA
HETATM   96  H   UNK N   1      34.542  11.123  11.571  0.00  0.00     0.210 HD
ENDBRANCH  75  95
ENDBRANCH  70  71
ENDBRANCH  65  70
BRANCH  66  97
HETATM   97  O   UNK N   1      39.471  13.592   8.788  0.00  0.00    -0.390 OA
HETATM   98  H   UNK N   1      39.269  13.795   9.715  0.00  0.00     0.210 HD
ENDBRANCH  66  97
BRANCH  67  99
HETATM   99  O   UNK N   1      40.903  14.962   6.813  0.00  0.00    -0.390 OA
HETATM  100  H   UNK N   1      41.320  14.996   7.688  0.00  0.00     0.210 HD
ENDBRANCH  67  99
BRANCH  68 101
HETATM  101  C   UNK N   1      40.442  14.219   3.992  0.00  0.00     0.198 C 
BRANCH 101 102
HETATM  102  O   UNK N   1      41.450  15.173   4.150  0.00  0.00    -0.398 OA
HETATM  103  H   UNK N   1      42.376  14.917   4.280  0.00  0.00     0.209 HD
ENDBRANCH 101 102
ENDBRANCH  68 101
ENDBRANCH  63  64
ENDBRANCH   1  63
BRANCH  10 104
HETATM  104  O   UNK N   1      35.355   8.230  -2.940  0.00  0.00    -0.388 OA
HETATM  105  H   UNK N   1      36.011   8.528  -3.589  0.00  0.00     0.210 HD
ENDBRANCH  10 104
BRANCH  32 106
HETATM  106  C   UNK N   1      30.113  11.393   0.362  0.00  0.00     0.137 C 
BRANCH 106 107
HETATM  107  C   UNK N   1      29.432  11.002   1.656  0.00  0.00     0.217 C 
HETATM  108  O   UNK N   1      28.723  11.810   2.233  0.00  0.00    -0.274 OA
HETATM  109  N   UNK N   1      29.602   9.773   2.182  0.00  0.00    -0.370 N 
HETATM  110  H   UNK N   1      30.282   9.145   2.519  0.00  0.00     0.159 HD
HETATM  111  H   UNK N   1      28.720   9.344   2.259  0.00  0.00     0.159 HD
ENDBRANCH 106 107
ENDBRANCH  32 106
BRANCH   9 112
HETATM  112  O   UNK N   1      31.420  15.044   9.940  0.00  0.00    -0.388 OA
HETATM  113  H   UNK N   1      30.497  14.763  10.034  0.00  0.00     0.210 HD
ENDBRANCH   9 112
BRANCH  25 114
HETATM  114  N   UNK N   1      32.603   8.126  -1.432  0.00  0.00    -0.343 N 
HETATM  115  C   UNK N   1      31.932   7.361  -2.336  0.00  0.00     0.240 C 
HETATM  116  O   UNK N   1      31.378   6.347  -1.945  0.00  0.00    -0.271 OA
HETATM  117  H   UNK N   1      32.515   7.890  -0.480  0.00  0.00     0.163 HD
BRANCH 115 118
HETATM  118  C   UNK N   1      31.809   7.714  -3.808  0.00  0.00     0.169 C 
BRANCH 118 119
HETATM  119  C   UNK N   1      30.398   7.470  -4.344  0.00  0.00     0.038 C 
BRANCH 119 120
HETATM  120  C   UNK N   1      29.402   8.495  -3.816  0.00  0.00    -0.020 C 
HETATM  121  C   UNK N   1      28.046   8.310  -4.469  0.00  0.00     0.009 C 
HETATM  122  C   UNK N   1      29.910   9.893  -4.097  0.00  0.00     0.009 C 
ENDBRANCH 119 120
ENDBRANCH 118 119
BRANCH 118 123
HETATM  123  N   UNK N   1      32.833   7.115  -4.653  0.00  0.00    -0.413 N 
HETATM  124  C   UNK N   1      33.145   8.077  -5.697  0.00  0.00     0.140 C 
HETATM  125  H   UNK N   1      33.254   6.193  -4.534  0.00  0.00     0.153 HD
ENDBRANCH 118 123
ENDBRANCH 115 118
ENDBRANCH  25 114
BRANCH  47 126
HETATM  126  O   UNK N   1      27.269  16.350   2.740  0.00  0.00    -0.360 OA
HETATM  127  H   UNK N   1      27.157  17.217   2.404  0.00  0.00     0.217 HD
ENDBRANCH  47 126
BRANCH  43 128
HETATM  128  C   UNK N   1      29.231  18.374   9.212  0.00  0.00     0.168 C 
HETATM  129  O   UNK N   1      28.483  18.041  10.119  0.00  0.00    -0.648 OA
BRANCH 128 130
HETATM  130  O   UNK N   1      30.063  19.415   9.403  0.00  0.00    -0.775 OA
HETATM  131  H   UNK N   1      30.656  19.459  10.126  0.00  0.00     0.167 HD
ENDBRANCH 128 130
ENDBRANCH  43 128
BRANCH  57 132
HETATM  132  O   UNK N   1      25.889  17.362   4.243  0.00  0.00    -0.359 OA
HETATM  133  H   UNK N   1      25.373  17.648   3.515  0.00  0.00     0.217 HD
ENDBRANCH  57 132
BRANCH  54 134
HETATM  134  C   UNK N   1      24.855  19.878   4.885  0.00  0.00     0.159 C 
BRANCH 134 135
HETATM  135  N   UNK N   1      24.726  19.777   3.427  0.00  0.00    -0.407 N 
HETATM  136  H   UNK N   1      25.143  19.037   2.863  0.00  0.00     0.154 HD
BRANCH 135 137
HETATM  137  C   UNK N   1      23.926  20.869   2.885  0.00  0.00     0.239 C 
BRANCH 137 138
HETATM  138  P   UNK N   1      22.175  20.283   2.653  0.00  0.00     0.253 P 
HETATM  139  O   UNK N   1      21.823  20.284   1.145  0.00  0.00    -0.652 OA
BRANCH 138 140
HETATM  140  O   UNK N   1      21.884  18.647   3.153  0.00  0.00    -0.328 OA
HETATM  141  H   UNK N   1      21.197  17.973   3.039  0.00  0.00     0.220 HD
ENDBRANCH 138 140
BRANCH 138 142
HETATM  142  O   UNK N   1      20.931  21.273   3.353  0.00  0.00    -0.328 OA
HETATM  143  H   UNK N   1      20.021  21.434   3.649  0.00  0.00     0.220 HD
ENDBRANCH 138 142
ENDBRANCH 137 138
ENDBRANCH 135 137
ENDBRANCH 134 135
ENDBRANCH  54 134
BRANCH  56 144
HETATM  144  O   UNK N   1      26.435  21.353   6.685  0.00  0.00    -0.360 OA
HETATM  145  H   UNK N   1      26.627  22.123   6.189  0.00  0.00     0.217 HD
ENDBRANCH  56 144
TORSDOF 42
ENDMDL
MODEL 3
REMARK VINA RESULT:      -7.0      1.580      2.465
REMARK WARNING: 32 MAX_TORS EXCEEDED!!!
REMARK  42 active torsions:
REMARK  status: ('A' for Active; 'I' for Inactive)
REMARK    1  A    between atoms: C_1  and  C_2 
REMARK    2  A    between atoms: C_1  and  N_121 
REMARK    3  A    between atoms: C_2  and  N_3 
REMARK    4  A    between atoms: N_3  and  C_4 
REMARK    5  A    between atoms: C_4  and  C_5 
REMARK    6  A    between atoms: C_5  and  C_6 
REMARK    7  A    between atoms: C_6  and  C_7 
REMARK    8  A    between atoms: C_7  and  C_8 
REMARK    9  A    between atoms: C_8  and  C_9 
REMARK   10  A    between atoms: C_9  and  C_10 
REMARK   11  A    between atoms: C_10  and  C_11 
REMARK   12  A    between atoms: C_11  and  C_12 
REMARK   13  A    between atoms: O_57  and  C_14 
REMARK   14  A    between atoms: C_22  and  O_36 
REMARK   15  A    between atoms: C_23  and  O_38 
REMARK   16  A    between atoms: C_39  and  O_50 
REMARK   17  A    between atoms: C_40  and  O_57 
REMARK   18  A    between atoms: C_41  and  O_52 
REMARK   19  A    between atoms: C_43  and  N_121 
REMARK   20  A    between atoms: C_44  and  O_53 
REMARK   21  A    between atoms: C_45  and  O_50 
REMARK   22  A    between atoms: C_46  and  C_58 
REMARK   23  A    between atoms: C_49  and  O_54 
REMARK   24  A    between atoms: C_58  and  O_59 
REMARK   25  A    between atoms: C_61  and  N_76 
REMARK   26  A    between atoms: C_68  and  C_72 
REMARK   27  A    between atoms: C_72  and  C_73 
REMARK       I    between atoms: C_73  and  N_74 
REMARK       I    between atoms: C_77  and  N_76 
REMARK   28  A    between atoms: C_78  and  C_77 
REMARK   29  A    between atoms: C_80  and  C_78 
REMARK   30  A    between atoms: C_78  and  N_81 
REMARK   31  A    between atoms: C_82  and  C_80 
REMARK   32  A    between atoms: C_93  and  O_95 
REMARK   33  A    between atoms: C_96  and  C_93 
REMARK   34  A    between atoms: O_105  and  C_100 
REMARK   35  A    between atoms: C_108  and  C_114 
REMARK   36  A    between atoms: C_110  and  O_111 
REMARK   37  A    between atoms: C_112  and  O_113 
REMARK   38  A    between atoms: C_114  and  N_115 
REMARK   39  A    between atoms: N_115  and  C_116 
REMARK   40  A    between atoms: C_116  and  P_117 
REMARK   41  A    between atoms: P_117  and  O_118 
REMARK   42  A    between atoms: P_117  and  O_120 
ROOT
HETATM    1  C   UNK N   1      38.012  11.859   5.579  0.00  0.00     0.139 A 
HETATM    2  C   UNK N   1      37.877  11.572   4.206  0.00  0.00     0.113 A 
HETATM    3  C   UNK N   1      36.940  12.508   6.217  0.00  0.00     0.113 A 
HETATM    4  C   UNK N   1      35.720  12.741   4.135  0.00  0.00    -0.021 A 
HETATM    5  C   UNK N   1      35.860  12.960   5.492  0.00  0.00     0.050 A 
HETATM    6  C   UNK N   1      36.723  12.024   3.492  0.00  0.00     0.050 A 
HETATM    7  O   UNK N   1      38.848  10.838   3.577  0.00  0.00    -0.306 OA
HETATM    8  O   UNK N   1      36.966  12.680   7.550  0.00  0.00    -0.306 OA
HETATM    9  C   UNK N   1      32.885  15.443   9.655  0.00  0.00     0.183 C 
HETATM   10  C   UNK N   1      37.080  10.502  -1.598  0.00  0.00     0.183 C 
HETATM   11  C   UNK N   1      33.939  14.446   9.612  0.00  0.00    -0.025 A 
HETATM   12  C   UNK N   1      37.718  10.214  -0.291  0.00  0.00    -0.025 C 
HETATM   13  C   UNK N   1      35.970  13.169   8.286  0.00  0.00     0.098 A 
HETATM   14  C   UNK N   1      38.614  10.414   2.319  0.00  0.00     0.098 C 
HETATM   15  C   UNK N   1      34.698  12.571   8.317  0.00  0.00     0.068 A 
HETATM   16  C   UNK N   1      39.439  10.854   1.285  0.00  0.00     0.068 C 
HETATM   17  C   UNK N   1      38.972  10.776  -0.025  0.00  0.00     0.036 C 
HETATM   18  C   UNK N   1      36.975   9.630   0.736  0.00  0.00     0.012 C 
HETATM   19  C   UNK N   1      35.221  14.965   9.673  0.00  0.00     0.012 A 
HETATM   20  C   UNK N   1      36.235  14.319   9.015  0.00  0.00     0.040 A 
HETATM   21  C   UNK N   1      37.427   9.718   2.036  0.00  0.00     0.040 C 
HETATM   22 Cl   UNK N   1      40.927  11.714   1.624  0.00  0.00    -0.081 Cl
HETATM   23 Cl   UNK N   1      34.340  11.060   7.490  0.00  0.00    -0.081 Cl
HETATM   24  C   UNK N   1      33.673  13.234   8.962  0.00  0.00     0.036 A 
HETATM   25  C   UNK N   1      35.541  10.534  -1.607  0.00  0.00     0.210 C 
HETATM   26  N   UNK N   1      34.106  12.992   2.118  0.00  0.00    -0.342 N 
HETATM   27  C   UNK N   1      34.835  11.854  -1.794  0.00  0.00     0.244 C 
HETATM   28  C   UNK N   1      33.307  12.778   4.470  0.00  0.00     0.246 C 
HETATM   29  N   UNK N   1      33.913  12.354  -0.928  0.00  0.00    -0.345 N 
HETATM   30  C   UNK N   1      34.415  13.223   3.532  0.00  0.00     0.210 C 
HETATM   31  C   UNK N   1      33.977  11.780   1.511  0.00  0.00     0.241 C 
HETATM   32  C   UNK N   1      33.278  11.657   0.171  0.00  0.00     0.185 C 
HETATM   33  O   UNK N   1      35.147  12.530  -2.760  0.00  0.00    -0.271 OA
HETATM   34  O   UNK N   1      32.986  11.601   4.513  0.00  0.00    -0.271 OA
HETATM   35  O   UNK N   1      34.302  10.759   2.095  0.00  0.00    -0.271 OA
HETATM   36  C   UNK N   1      32.626  15.789   8.171  0.00  0.00     0.210 C 
HETATM   37  N   UNK N   1      32.807  13.640   5.397  0.00  0.00    -0.342 N 
HETATM   38  C   UNK N   1      32.980  15.068   5.269  0.00  0.00     0.210 C 
HETATM   39  O   UNK N   1      32.068  18.039   8.337  0.00  0.00    -0.271 OA
HETATM   40  N   UNK N   1      33.809  16.139   7.415  0.00  0.00    -0.343 N 
HETATM   41  C   UNK N   1      34.006  15.806   6.114  0.00  0.00     0.245 C 
HETATM   42  O   UNK N   1      35.055  16.134   5.582  0.00  0.00    -0.271 OA
HETATM   43  C   UNK N   1      29.420  17.548   8.159  0.00  0.00     0.217 C 
HETATM   44  N   UNK N   1      30.414  16.572   7.998  0.00  0.00    -0.341 N 
HETATM   45  C   UNK N   1      31.701  16.886   8.141  0.00  0.00     0.244 C 
HETATM   46  C   UNK N   1      29.475  16.644   4.896  0.00  0.00     0.011 A 
HETATM   47  C   UNK N   1      29.302  16.249   3.508  0.00  0.00     0.076 A 
HETATM   48  C   UNK N   1      31.741  15.651   4.694  0.00  0.00    -0.025 A 
HETATM   49  C   UNK N   1      30.746  16.321   5.436  0.00  0.00     0.025 A 
HETATM   50  C   UNK N   1      30.299  15.585   2.808  0.00  0.00     0.038 A 
HETATM   51  C   UNK N   1      31.494  15.286   3.389  0.00  0.00     0.012 A 
HETATM   52  C   UNK N   1      28.794  18.229   6.962  0.00  0.00    -0.009 C 
HETATM   53  C   UNK N   1      28.117  19.384   7.339  0.00  0.00     0.048 C 
HETATM   54  C   UNK N   1      26.549  19.137   5.587  0.00  0.00     0.026 C 
HETATM   55  C   UNK N   1      28.489  17.593   5.687  0.00  0.00     0.020 C 
HETATM   56  C   UNK N   1      27.068  19.884   6.628  0.00  0.00     0.076 C 
HETATM   57  C   UNK N   1      27.227  17.989   5.133  0.00  0.00     0.088 C 
HETATM   58  H   UNK N   1      33.979  13.789   1.554  0.00  0.00     0.163 HD
HETATM   59  H   UNK N   1      33.650  13.294  -1.063  0.00  0.00     0.163 HD
HETATM   60  H   UNK N   1      32.318  13.282   6.172  0.00  0.00     0.163 HD
HETATM   61  H   UNK N   1      34.514  16.650   7.873  0.00  0.00     0.163 HD
HETATM   62  H   UNK N   1      30.159  15.648   7.776  0.00  0.00     0.163 HD
ENDROOT
BRANCH   1  63
HETATM   63  O   UNK N   1      39.151  11.504   6.234  0.00  0.00    -0.312 OA
BRANCH  63  64
HETATM   64  C   UNK N   1      39.458  10.251   6.764  0.00  0.00     0.298 C 
HETATM   65  C   UNK N   1      40.154  10.462   8.125  0.00  0.00     0.211 C 
HETATM   66  C   UNK N   1      40.875   9.229   8.660  0.00  0.00     0.183 C 
HETATM   67  C   UNK N   1      41.611   8.520   7.545  0.00  0.00     0.180 C 
HETATM   68  C   UNK N   1      40.619   8.214   6.396  0.00  0.00     0.179 C 
HETATM   69  O   UNK N   1      40.109   9.410   5.822  0.00  0.00    -0.348 OA
BRANCH  65  70
HETATM   70  O   UNK N   1      39.231  11.010   9.059  0.00  0.00    -0.348 OA
BRANCH  70  71
HETATM   71  C   UNK N   1      38.466   9.969   9.650  0.00  0.00     0.263 C 
HETATM   72  C   UNK N   1      38.297  10.135  11.177  0.00  0.00     0.093 C 
HETATM   73  C   UNK N   1      36.832   9.837  11.613  0.00  0.00     0.054 C 
HETATM   74  C   UNK N   1      36.788   9.542  13.113  0.00  0.00     0.041 C 
HETATM   75  C   UNK N   1      36.247   8.610  10.834  0.00  0.00     0.174 C 
HETATM   76  C   UNK N   1      36.810   8.552   9.417  0.00  0.00     0.151 C 
HETATM   77  O   UNK N   1      37.204   9.825   9.041  0.00  0.00    -0.354 OA
HETATM   78  C   UNK N   1      35.872   7.934   8.401  0.00  0.00     0.042 C 
BRANCH  73  79
HETATM   79  N   UNK N   1      35.995  11.009  11.273  0.00  0.00    -0.409 N 
HETATM   80  H   UNK N   1      35.515  11.108  10.379  0.00  0.00     0.154 HD
BRANCH  79  81
HETATM   81  C   UNK N   1      35.917  12.016  12.339  0.00  0.00     0.134 C 
BRANCH  81  82
HETATM   82  C   UNK N   1      36.947  13.122  12.156  0.00  0.00     0.133 C 
BRANCH  82  83
HETATM   83  N   UNK N   1      36.823  14.118  13.209  0.00  0.00    -0.420 N 
HETATM   84  H   UNK N   1      37.256  15.041  13.221  0.00  0.00     0.153 HD
BRANCH  83  85
HETATM   85  C   UNK N   1      35.965  13.557  14.241  0.00  0.00     0.113 C 
BRANCH  85  86
HETATM   86  C   UNK N   1      36.667  13.638  15.588  0.00  0.00     0.019 C 
BRANCH  86  87
HETATM   87  C   UNK N   1      35.663  13.610  16.728  0.00  0.00     0.002 C 
BRANCH  87  88
HETATM   88  C   UNK N   1      34.807  12.356  16.650  0.00  0.00     0.000 C 
BRANCH  88  89
HETATM   89  C   UNK N   1      35.625  11.145  17.071  0.00  0.00     0.000 C 
BRANCH  89  90
HETATM   90  C   UNK N   1      34.972   9.870  16.570  0.00  0.00     0.000 C 
BRANCH  90  91
HETATM   91  C   UNK N   1      34.888   8.830  17.676  0.00  0.00     0.000 C 
BRANCH  91  92
HETATM   92  C   UNK N   1      34.434   9.484  18.967  0.00  0.00    -0.000 C 
BRANCH  92  93
HETATM   93  C   UNK N   1      33.206   8.787  19.517  0.00  0.00    -0.005 C 
HETATM   94  C   UNK N   1      33.394   7.288  19.413  0.00  0.00     0.005 C 
ENDBRANCH  92  93
ENDBRANCH  91  92
ENDBRANCH  90  91
ENDBRANCH  89  90
ENDBRANCH  88  89
ENDBRANCH  87  88
ENDBRANCH  86  87
ENDBRANCH  85  86
ENDBRANCH  83  85
ENDBRANCH  82  83
ENDBRANCH  81  82
ENDBRANCH  79  81
ENDBRANCH  73  79
BRANCH  75  95
HETATM   95  O   UNK N   1      36.535   7.391  11.451  0.00  0.00    -0.391 OA
HETATM   96  H   UNK N   1      35.878   6.759  11.781  0.00  0.00     0.210 HD
ENDBRANCH  75  95
ENDBRANCH  70  71
ENDBRANCH  65  70
BRANCH  66  97
HETATM   97  O   UNK N   1      41.772   9.615   9.659  0.00  0.00    -0.390 OA
HETATM   98  H   UNK N   1      42.163   9.977  10.469  0.00  0.00     0.210 HD
ENDBRANCH  66  97
BRANCH  67  99
HETATM   99  O   UNK N   1      42.178   7.353   8.064  0.00  0.00    -0.390 OA
HETATM  100  H   UNK N   1      42.934   7.383   8.671  0.00  0.00     0.210 HD
ENDBRANCH  67  99
BRANCH  68 101
HETATM  101  C   UNK N   1      41.305   7.463   5.244  0.00  0.00     0.198 C 
BRANCH 101 102
HETATM  102  O   UNK N   1      41.476   6.102   5.502  0.00  0.00    -0.398 OA
HETATM  103  H   UNK N   1      40.752   5.468   5.387  0.00  0.00     0.209 HD
ENDBRANCH 101 102
ENDBRANCH  68 101
ENDBRANCH  63  64
ENDBRANCH   1  63
BRANCH  10 104
HETATM  104  O   UNK N   1      37.666   9.806  -2.646  0.00  0.00    -0.388 OA
HETATM  105  H   UNK N   1      37.358   9.943  -3.555  0.00  0.00     0.210 HD
ENDBRANCH  10 104
BRANCH  32 106
HETATM  106  C   UNK N   1      31.812  12.127   0.308  0.00  0.00     0.137 C 
BRANCH 106 107
HETATM  107  C   UNK N   1      30.796  11.349  -0.500  0.00  0.00     0.217 C 
HETATM  108  O   UNK N   1      30.733  10.136  -0.382  0.00  0.00    -0.274 OA
HETATM  109  N   UNK N   1      29.962  11.977  -1.352  0.00  0.00    -0.370 N 
HETATM  110  H   UNK N   1      29.936  12.557  -2.148  0.00  0.00     0.159 HD
HETATM  111  H   UNK N   1      29.037  11.786  -1.077  0.00  0.00     0.159 HD
ENDBRANCH 106 107
ENDBRANCH  32 106
BRANCH   9 112
HETATM  112  O   UNK N   1      31.735  14.922  10.256  0.00  0.00    -0.388 OA
HETATM  113  H   UNK N   1      30.794  14.961  10.487  0.00  0.00     0.210 HD
ENDBRANCH   9 112
BRANCH  25 114
HETATM  114  N   UNK N   1      34.799   9.299  -1.473  0.00  0.00    -0.343 N 
HETATM  115  C   UNK N   1      34.241   8.608  -2.506  0.00  0.00     0.240 C 
HETATM  116  O   UNK N   1      33.763   7.508  -2.281  0.00  0.00    -0.271 OA
HETATM  117  H   UNK N   1      34.689   8.930  -0.566  0.00  0.00     0.163 HD
BRANCH 115 118
HETATM  118  C   UNK N   1      34.152   9.144  -3.923  0.00  0.00     0.169 C 
BRANCH 118 119
HETATM  119  C   UNK N   1      32.926   8.612  -4.666  0.00  0.00     0.038 C 
BRANCH 119 120
HETATM  120  C   UNK N   1      31.731   9.550  -4.540  0.00  0.00    -0.020 C 
HETATM  121  C   UNK N   1      32.153  10.876  -3.939  0.00  0.00     0.009 C 
HETATM  122  C   UNK N   1      30.673   8.913  -3.664  0.00  0.00     0.009 C 
ENDBRANCH 119 120
ENDBRANCH 118 119
BRANCH 118 123
HETATM  123  N   UNK N   1      35.377   8.990  -4.697  0.00  0.00    -0.413 N 
HETATM  124  C   UNK N   1      35.553  10.208  -5.470  0.00  0.00     0.140 C 
HETATM  125  H   UNK N   1      35.996   8.179  -4.696  0.00  0.00     0.153 HD
ENDBRANCH 118 123
ENDBRANCH 115 118
ENDBRANCH  25 114
BRANCH  47 126
HETATM  126  O   UNK N   1      28.240  16.540   2.775  0.00  0.00    -0.360 OA
HETATM  127  H   UNK N   1      27.387  16.258   3.041  0.00  0.00     0.217 HD
ENDBRANCH  47 126
BRANCH  43 128
HETATM  128  C   UNK N   1      29.301  18.089   9.580  0.00  0.00     0.168 C 
HETATM  129  O   UNK N   1      28.394  17.719  10.310  0.00  0.00    -0.648 OA
BRANCH 128 130
HETATM  130  O   UNK N   1      30.127  19.061  10.010  0.00  0.00    -0.775 OA
HETATM  131  H   UNK N   1      31.032  18.907  10.194  0.00  0.00     0.167 HD
ENDBRANCH 128 130
ENDBRANCH  43 128
BRANCH  57 132
HETATM  132  O   UNK N   1      26.615  17.265   4.196  0.00  0.00    -0.359 OA
HETATM  133  H   UNK N   1      26.866  16.427   3.859  0.00  0.00     0.217 HD
ENDBRANCH  57 132
BRANCH  54 134
HETATM  134  C   UNK N   1      25.265  19.599   4.935  0.00  0.00     0.159 C 
BRANCH 134 135
HETATM  135  N   UNK N   1      24.117  18.710   5.144  0.00  0.00    -0.407 N 
HETATM  136  H   UNK N   1      23.927  18.212   6.013  0.00  0.00     0.154 HD
BRANCH 135 137
HETATM  137  C   UNK N   1      23.283  18.628   3.952  0.00  0.00     0.239 C 
BRANCH 137 138
HETATM  138  P   UNK N   1      21.493  18.620   4.460  0.00  0.00     0.253 P 
HETATM  139  O   UNK N   1      21.390  18.438   5.995  0.00  0.00    -0.652 OA
BRANCH 138 140
HETATM  140  O   UNK N   1      20.644  20.101   4.153  0.00  0.00    -0.328 OA
HETATM  141  H   UNK N   1      20.384  20.895   4.644  0.00  0.00     0.220 HD
ENDBRANCH 138 140
BRANCH 138 142
HETATM  142  O   UNK N   1      20.520  17.321   3.840  0.00  0.00    -0.328 OA
HETATM  143  H   UNK N   1      19.822  16.963   3.269  0.00  0.00     0.220 HD
ENDBRANCH 138 142
ENDBRANCH 137 138
ENDBRANCH 135 137
ENDBRANCH 134 135
ENDBRANCH  54 134
BRANCH  56 144
HETATM  144  O   UNK N   1      26.490  21.030   7.025  0.00  0.00    -0.360 OA
HETATM  145  H   UNK N   1      26.203  21.190   7.902  0.00  0.00     0.217 HD
ENDBRANCH  56 144
TORSDOF 42
ENDMDL
MODEL 4
REMARK VINA RESULT:      -6.8      1.651      2.374
REMARK WARNING: 32 MAX_TORS EXCEEDED!!!
REMARK  42 active torsions:
REMARK  status: ('A' for Active; 'I' for Inactive)
REMARK    1  A    between atoms: C_1  and  C_2 
REMARK    2  A    between atoms: C_1  and  N_121 
REMARK    3  A    between atoms: C_2  and  N_3 
REMARK    4  A    between atoms: N_3  and  C_4 
REMARK    5  A    between atoms: C_4  and  C_5 
REMARK    6  A    between atoms: C_5  and  C_6 
REMARK    7  A    between atoms: C_6  and  C_7 
REMARK    8  A    between atoms: C_7  and  C_8 
REMARK    9  A    between atoms: C_8  and  C_9 
REMARK   10  A    between atoms: C_9  and  C_10 
REMARK   11  A    between atoms: C_10  and  C_11 
REMARK   12  A    between atoms: C_11  and  C_12 
REMARK   13  A    between atoms: O_57  and  C_14 
REMARK   14  A    between atoms: C_22  and  O_36 
REMARK   15  A    between atoms: C_23  and  O_38 
REMARK   16  A    between atoms: C_39  and  O_50 
REMARK   17  A    between atoms: C_40  and  O_57 
REMARK   18  A    between atoms: C_41  and  O_52 
REMARK   19  A    between atoms: C_43  and  N_121 
REMARK   20  A    between atoms: C_44  and  O_53 
REMARK   21  A    between atoms: C_45  and  O_50 
REMARK   22  A    between atoms: C_46  and  C_58 
REMARK   23  A    between atoms: C_49  and  O_54 
REMARK   24  A    between atoms: C_58  and  O_59 
REMARK   25  A    between atoms: C_61  and  N_76 
REMARK   26  A    between atoms: C_68  and  C_72 
REMARK   27  A    between atoms: C_72  and  C_73 
REMARK       I    between atoms: C_73  and  N_74 
REMARK       I    between atoms: C_77  and  N_76 
REMARK   28  A    between atoms: C_78  and  C_77 
REMARK   29  A    between atoms: C_80  and  C_78 
REMARK   30  A    between atoms: C_78  and  N_81 
REMARK   31  A    between atoms: C_82  and  C_80 
REMARK   32  A    between atoms: C_93  and  O_95 
REMARK   33  A    between atoms: C_96  and  C_93 
REMARK   34  A    between atoms: O_105  and  C_100 
REMARK   35  A    between atoms: C_108  and  C_114 
REMARK   36  A    between atoms: C_110  and  O_111 
REMARK   37  A    between atoms: C_112  and  O_113 
REMARK   38  A    between atoms: C_114  and  N_115 
REMARK   39  A    between atoms: N_115  and  C_116 
REMARK   40  A    between atoms: C_116  and  P_117 
REMARK   41  A    between atoms: P_117  and  O_118 
REMARK   42  A    between atoms: P_117  and  O_120 
ROOT
HETATM    1  C   UNK N   1      37.855  11.705   5.470  0.00  0.00     0.139 A 
HETATM    2  C   UNK N   1      37.685  11.388   4.108  0.00  0.00     0.113 A 
HETATM    3  C   UNK N   1      36.805  12.380   6.118  0.00  0.00     0.113 A 
HETATM    4  C   UNK N   1      35.540  12.581   4.059  0.00  0.00    -0.021 A 
HETATM    5  C   UNK N   1      35.713  12.828   5.407  0.00  0.00     0.050 A 
HETATM    6  C   UNK N   1      36.519  11.838   3.410  0.00  0.00     0.050 A 
HETATM    7  O   UNK N   1      38.633  10.630   3.473  0.00  0.00    -0.306 OA
HETATM    8  O   UNK N   1      36.863  12.581   7.446  0.00  0.00    -0.306 OA
HETATM    9  C   UNK N   1      32.862  15.438   9.580  0.00  0.00     0.183 C 
HETATM   10  C   UNK N   1      36.743  10.199  -1.651  0.00  0.00     0.183 C 
HETATM   11  C   UNK N   1      33.904  14.428   9.536  0.00  0.00    -0.025 A 
HETATM   12  C   UNK N   1      37.408   9.933  -0.353  0.00  0.00    -0.025 C 
HETATM   13  C   UNK N   1      35.889  13.098   8.193  0.00  0.00     0.098 A 
HETATM   14  C   UNK N   1      38.365  10.181   2.231  0.00  0.00     0.098 C 
HETATM   15  C   UNK N   1      34.612  12.515   8.266  0.00  0.00     0.068 A 
HETATM   16  C   UNK N   1      39.171  10.588   1.168  0.00  0.00     0.068 C 
HETATM   17  C   UNK N   1      38.673  10.487  -0.128  0.00  0.00     0.036 C 
HETATM   18  C   UNK N   1      36.682   9.381   0.703  0.00  0.00     0.012 C 
HETATM   19  C   UNK N   1      35.193  14.933   9.555  0.00  0.00     0.012 A 
HETATM   20  C   UNK N   1      36.183  14.261   8.890  0.00  0.00     0.040 A 
HETATM   21  C   UNK N   1      37.165   9.493   1.991  0.00  0.00     0.040 C 
HETATM   22 Cl   UNK N   1      40.677  11.439   1.455  0.00  0.00    -0.081 Cl
HETATM   23 Cl   UNK N   1      34.219  10.991   7.482  0.00  0.00    -0.081 Cl
HETATM   24  C   UNK N   1      33.609  13.204   8.919  0.00  0.00     0.036 A 
HETATM   25  C   UNK N   1      35.205  10.248  -1.626  0.00  0.00     0.210 C 
HETATM   26  N   UNK N   1      33.883  12.805   2.074  0.00  0.00    -0.342 N 
HETATM   27  C   UNK N   1      34.509  11.572  -1.827  0.00  0.00     0.244 C 
HETATM   28  C   UNK N   1      33.135  12.653   4.448  0.00  0.00     0.246 C 
HETATM   29  N   UNK N   1      33.613  12.102  -0.951  0.00  0.00    -0.345 N 
HETATM   30  C   UNK N   1      34.226  13.064   3.476  0.00  0.00     0.210 C 
HETATM   31  C   UNK N   1      33.727  11.581   1.498  0.00  0.00     0.241 C 
HETATM   32  C   UNK N   1      32.996  11.437   0.177  0.00  0.00     0.185 C 
HETATM   33  O   UNK N   1      34.807  12.222  -2.814  0.00  0.00    -0.271 OA
HETATM   34  O   UNK N   1      32.803  11.481   4.525  0.00  0.00    -0.271 OA
HETATM   35  O   UNK N   1      34.053  10.570   2.097  0.00  0.00    -0.271 OA
HETATM   36  C   UNK N   1      32.572  15.753   8.095  0.00  0.00     0.210 C 
HETATM   37  N   UNK N   1      32.667  13.541   5.366  0.00  0.00    -0.342 N 
HETATM   38  C   UNK N   1      32.852  14.964   5.202  0.00  0.00     0.210 C 
HETATM   39  O   UNK N   1      32.044  18.013   8.222  0.00  0.00    -0.271 OA
HETATM   40  N   UNK N   1      33.741  16.072   7.304  0.00  0.00    -0.343 N 
HETATM   41  C   UNK N   1      33.905  15.708   6.007  0.00  0.00     0.245 C 
HETATM   42  O   UNK N   1      34.946  16.012   5.444  0.00  0.00    -0.271 OA
HETATM   43  C   UNK N   1      29.387  17.548   8.116  0.00  0.00     0.217 C 
HETATM   44  N   UNK N   1      30.366  16.558   7.954  0.00  0.00    -0.341 N 
HETATM   45  C   UNK N   1      31.660  16.860   8.062  0.00  0.00     0.244 C 
HETATM   46  C   UNK N   1      29.357  16.571   4.874  0.00  0.00     0.011 A 
HETATM   47  C   UNK N   1      29.148  16.147   3.499  0.00  0.00     0.076 A 
HETATM   48  C   UNK N   1      31.607  15.548   4.642  0.00  0.00    -0.025 A 
HETATM   49  C   UNK N   1      30.636  16.246   5.392  0.00  0.00     0.025 A 
HETATM   50  C   UNK N   1      30.121  15.457   2.792  0.00  0.00     0.038 A 
HETATM   51  C   UNK N   1      31.326  15.157   3.352  0.00  0.00     0.012 A 
HETATM   52  C   UNK N   1      28.741  18.209   6.918  0.00  0.00    -0.009 C 
HETATM   53  C   UNK N   1      28.086  19.380   7.285  0.00  0.00     0.048 C 
HETATM   54  C   UNK N   1      26.475  19.112   5.575  0.00  0.00     0.026 C 
HETATM   55  C   UNK N   1      28.400  17.548   5.665  0.00  0.00     0.020 C 
HETATM   56  C   UNK N   1      27.026  19.877   6.586  0.00  0.00     0.076 C 
HETATM   57  C   UNK N   1      27.130  17.947   5.132  0.00  0.00     0.088 C 
HETATM   58  H   UNK N   1      33.751  13.591   1.496  0.00  0.00     0.163 HD
HETATM   59  H   UNK N   1      33.357  13.041  -1.101  0.00  0.00     0.163 HD
HETATM   60  H   UNK N   1      32.191  13.206   6.161  0.00  0.00     0.163 HD
HETATM   61  H   UNK N   1      34.463  16.585   7.735  0.00  0.00     0.163 HD
HETATM   62  H   UNK N   1      30.095  15.631   7.759  0.00  0.00     0.163 HD
ENDROOT
BRANCH   1  63
HETATM   63  O   UNK N   1      39.004  11.351   6.108  0.00  0.00    -0.312 OA
BRANCH  63  64
HETATM   64  C   UNK N   1      40.298  11.388   5.587  0.00  0.00     0.298 C 
HETATM   65  C   UNK N   1      41.074  10.177   6.144  0.00  0.00     0.211 C 
HETATM   66  C   UNK N   1      42.586  10.267   5.971  0.00  0.00     0.183 C 
HETATM   67  C   UNK N   1      43.072  11.668   6.271  0.00  0.00     0.180 C 
HETATM   68  C   UNK N   1      42.283  12.675   5.400  0.00  0.00     0.179 C 
HETATM   69  O   UNK N   1      40.899  12.668   5.726  0.00  0.00    -0.348 OA
BRANCH  65  70
HETATM   70  O   UNK N   1      40.529   8.972   5.618  0.00  0.00    -0.348 OA
BRANCH  70  71
HETATM   71  C   UNK N   1      39.848   8.261   6.643  0.00  0.00     0.263 C 
HETATM   72  C   UNK N   1      40.331   8.636   8.062  0.00  0.00     0.093 C 
HETATM   73  C   UNK N   1      39.126   8.816   9.033  0.00  0.00     0.054 C 
HETATM   74  C   UNK N   1      39.608   8.712  10.481  0.00  0.00     0.041 C 
HETATM   75  C   UNK N   1      38.029   7.725   8.783  0.00  0.00     0.174 C 
HETATM   76  C   UNK N   1      37.965   7.354   7.303  0.00  0.00     0.151 C 
HETATM   77  O   UNK N   1      38.450   8.414   6.556  0.00  0.00    -0.354 OA
HETATM   78  C   UNK N   1      36.593   6.917   6.832  0.00  0.00     0.042 C 
BRANCH  73  79
HETATM   79  N   UNK N   1      38.502  10.130   8.769  0.00  0.00    -0.409 N 
HETATM   80  H   UNK N   1      37.922  10.316   7.951  0.00  0.00     0.154 HD
BRANCH  79  81
HETATM   81  C   UNK N   1      38.794  11.145   9.789  0.00  0.00     0.134 C 
BRANCH  81  82
HETATM   82  C   UNK N   1      37.623  11.352  10.741  0.00  0.00     0.133 C 
BRANCH  82  83
HETATM   83  N   UNK N   1      37.834  12.532  11.564  0.00  0.00    -0.420 N 
HETATM   84  H   UNK N   1      38.644  13.152  11.535  0.00  0.00     0.153 HD
BRANCH  83  85
HETATM   85  C   UNK N   1      36.678  12.669  12.436  0.00  0.00     0.113 C 
BRANCH  85  86
HETATM   86  C   UNK N   1      36.524  14.123  12.856  0.00  0.00     0.019 C 
BRANCH  86  87
HETATM   87  C   UNK N   1      36.504  14.253  14.369  0.00  0.00     0.002 C 
BRANCH  87  88
HETATM   88  C   UNK N   1      36.867  12.928  15.021  0.00  0.00     0.000 C 
BRANCH  88  89
HETATM   89  C   UNK N   1      35.903  12.631  16.159  0.00  0.00     0.000 C 
BRANCH  89  90
HETATM   90  C   UNK N   1      34.469  12.732  15.672  0.00  0.00     0.000 C 
BRANCH  90  91
HETATM   91  C   UNK N   1      34.048  11.463  14.948  0.00  0.00     0.000 C 
BRANCH  91  92
HETATM   92  C   UNK N   1      34.520  10.246  15.723  0.00  0.00    -0.000 C 
BRANCH  92  93
HETATM   93  C   UNK N   1      35.264   9.289  14.813  0.00  0.00    -0.005 C 
HETATM   94  C   UNK N   1      34.923   9.603  13.372  0.00  0.00     0.005 C 
ENDBRANCH  92  93
ENDBRANCH  91  92
ENDBRANCH  90  91
ENDBRANCH  89  90
ENDBRANCH  88  89
ENDBRANCH  87  88
ENDBRANCH  86  87
ENDBRANCH  85  86
ENDBRANCH  83  85
ENDBRANCH  82  83
ENDBRANCH  81  82
ENDBRANCH  79  81
ENDBRANCH  73  79
BRANCH  75  95
HETATM   95  O   UNK N   1      38.260   6.550   9.501  0.00  0.00    -0.391 OA
HETATM   96  H   UNK N   1      38.197   5.652   9.144  0.00  0.00     0.210 HD
ENDBRANCH  75  95
ENDBRANCH  70  71
ENDBRANCH  65  70
BRANCH  66  97
HETATM   97  O   UNK N   1      43.205   9.350   6.826  0.00  0.00    -0.390 OA
HETATM   98  H   UNK N   1      43.572   8.541   7.214  0.00  0.00     0.210 HD
ENDBRANCH  66  97
BRANCH  67  99
HETATM   99  O   UNK N   1      44.444  11.723   6.014  0.00  0.00    -0.390 OA
HETATM  100  H   UNK N   1      44.871  12.539   5.711  0.00  0.00     0.210 HD
ENDBRANCH  67  99
BRANCH  68 101
HETATM  101  C   UNK N   1      42.756  14.117   5.638  0.00  0.00     0.198 C 
BRANCH 101 102
HETATM  102  O   UNK N   1      43.942  14.424   4.969  0.00  0.00    -0.398 OA
HETATM  103  H   UNK N   1      44.425  13.756   4.458  0.00  0.00     0.209 HD
ENDBRANCH 101 102
ENDBRANCH  68 101
ENDBRANCH  63  64
ENDBRANCH   1  63
BRANCH  10 104
HETATM  104  O   UNK N   1      37.298   9.473  -2.696  0.00  0.00    -0.388 OA
HETATM  105  H   UNK N   1      38.033   9.842  -3.210  0.00  0.00     0.210 HD
ENDBRANCH  10 104
BRANCH  32 106
HETATM  106  C   UNK N   1      31.538  11.927   0.337  0.00  0.00     0.137 C 
BRANCH 106 107
HETATM  107  C   UNK N   1      30.533  10.871   0.745  0.00  0.00     0.217 C 
HETATM  108  O   UNK N   1      30.471  10.516   1.910  0.00  0.00    -0.274 OA
HETATM  109  N   UNK N   1      29.707  10.315  -0.164  0.00  0.00    -0.370 N 
HETATM  110  H   UNK N   1      29.689   9.801  -1.004  0.00  0.00     0.159 HD
HETATM  111  H   UNK N   1      28.779  10.485   0.116  0.00  0.00     0.159 HD
ENDBRANCH 106 107
ENDBRANCH  32 106
BRANCH   9 112
HETATM  112  O   UNK N   1      31.720  14.943  10.218  0.00  0.00    -0.388 OA
HETATM  113  H   UNK N   1      31.099  14.909  10.962  0.00  0.00     0.210 HD
ENDBRANCH   9 112
BRANCH  25 114
HETATM  114  N   UNK N   1      34.452   9.025  -1.447  0.00  0.00    -0.343 N 
HETATM  115  C   UNK N   1      33.756   8.387  -2.429  0.00  0.00     0.240 C 
HETATM  116  O   UNK N   1      33.281   7.290  -2.188  0.00  0.00    -0.271 OA
HETATM  117  H   UNK N   1      34.443   8.624  -0.548  0.00  0.00     0.163 HD
BRANCH 115 118
HETATM  118  C   UNK N   1      33.512   8.979  -3.805  0.00  0.00     0.169 C 
BRANCH 118 119
HETATM  119  C   UNK N   1      32.077   8.755  -4.284  0.00  0.00     0.038 C 
BRANCH 119 120
HETATM  120  C   UNK N   1      31.071   9.551  -3.460  0.00  0.00    -0.020 C 
HETATM  121  C   UNK N   1      29.655   9.255  -3.914  0.00  0.00     0.009 C 
HETATM  122  C   UNK N   1      31.349  11.032  -3.606  0.00  0.00     0.009 C 
ENDBRANCH 119 120
ENDBRANCH 118 119
BRANCH 118 123
HETATM  123  N   UNK N   1      34.495   8.587  -4.807  0.00  0.00    -0.413 N 
HETATM  124  C   UNK N   1      33.764   8.031  -5.933  0.00  0.00     0.140 C 
HETATM  125  H   UNK N   1      35.508   8.686  -4.731  0.00  0.00     0.153 HD
ENDBRANCH 118 123
ENDBRANCH 115 118
ENDBRANCH  25 114
BRANCH  47 126
HETATM  126  O   UNK N   1      28.073  16.434   2.784  0.00  0.00    -0.360 OA
HETATM  127  H   UNK N   1      28.064  17.178   2.216  0.00  0.00     0.217 HD
ENDBRANCH  47 126
BRANCH  43 128
HETATM  128  C   UNK N   1      29.306  18.122   9.527  0.00  0.00     0.168 C 
HETATM  129  O   UNK N   1      28.398  17.797  10.277  0.00  0.00    -0.648 OA
BRANCH 128 130
HETATM  130  O   UNK N   1      30.170  19.075   9.925  0.00  0.00    -0.775 OA
HETATM  131  H   UNK N   1      30.552  19.082  10.780  0.00  0.00     0.167 HD
ENDBRANCH 128 130
ENDBRANCH  43 128
BRANCH  57 132
HETATM  132  O   UNK N   1      26.488  17.209   4.225  0.00  0.00    -0.359 OA
HETATM  133  H   UNK N   1      26.402  16.276   4.198  0.00  0.00     0.217 HD
ENDBRANCH  57 132
BRANCH  54 134
HETATM  134  C   UNK N   1      25.182  19.574   4.942  0.00  0.00     0.159 C 
BRANCH 134 135
HETATM  135  N   UNK N   1      24.032  18.697   5.187  0.00  0.00    -0.407 N 
HETATM  136  H   UNK N   1      23.791  18.306   6.097  0.00  0.00     0.154 HD
BRANCH 135 137
HETATM  137  C   UNK N   1      23.276  18.455   3.964  0.00  0.00     0.239 C 
BRANCH 137 138
HETATM  138  P   UNK N   1      21.457  18.507   4.352  0.00  0.00     0.253 P 
HETATM  139  O   UNK N   1      20.683  17.640   3.330  0.00  0.00    -0.652 OA
BRANCH 138 140
HETATM  140  O   UNK N   1      21.024  17.834   5.892  0.00  0.00    -0.328 OA
HETATM  141  H   UNK N   1      20.883  18.147   6.798  0.00  0.00     0.220 HD
ENDBRANCH 138 140
BRANCH 138 142
HETATM  142  O   UNK N   1      20.685  20.058   4.224  0.00  0.00    -0.328 OA
HETATM  143  H   UNK N   1      20.556  20.982   4.489  0.00  0.00     0.220 HD
ENDBRANCH 138 142
ENDBRANCH 137 138
ENDBRANCH 135 137
ENDBRANCH 134 135
ENDBRANCH  54 134
BRANCH  56 144
HETATM  144  O   UNK N   1      26.470  21.037   6.971  0.00  0.00    -0.360 OA
HETATM  145  H   UNK N   1      26.733  21.873   6.641  0.00  0.00     0.217 HD
ENDBRANCH  56 144
TORSDOF 42
ENDMDL
MODEL 5
REMARK VINA RESULT:      -6.8      4.833     14.005
REMARK WARNING: 32 MAX_TORS EXCEEDED!!!
REMARK  42 active torsions:
REMARK  status: ('A' for Active; 'I' for Inactive)
REMARK    1  A    between atoms: C_1  and  C_2 
REMARK    2  A    between atoms: C_1  and  N_121 
REMARK    3  A    between atoms: C_2  and  N_3 
REMARK    4  A    between atoms: N_3  and  C_4 
REMARK    5  A    between atoms: C_4  and  C_5 
REMARK    6  A    between atoms: C_5  and  C_6 
REMARK    7  A    between atoms: C_6  and  C_7 
REMARK    8  A    between atoms: C_7  and  C_8 
REMARK    9  A    between atoms: C_8  and  C_9 
REMARK   10  A    between atoms: C_9  and  C_10 
REMARK   11  A    between atoms: C_10  and  C_11 
REMARK   12  A    between atoms: C_11  and  C_12 
REMARK   13  A    between atoms: O_57  and  C_14 
REMARK   14  A    between atoms: C_22  and  O_36 
REMARK   15  A    between atoms: C_23  and  O_38 
REMARK   16  A    between atoms: C_39  and  O_50 
REMARK   17  A    between atoms: C_40  and  O_57 
REMARK   18  A    between atoms: C_41  and  O_52 
REMARK   19  A    between atoms: C_43  and  N_121 
REMARK   20  A    between atoms: C_44  and  O_53 
REMARK   21  A    between atoms: C_45  and  O_50 
REMARK   22  A    between atoms: C_46  and  C_58 
REMARK   23  A    between atoms: C_49  and  O_54 
REMARK   24  A    between atoms: C_58  and  O_59 
REMARK   25  A    between atoms: C_61  and  N_76 
REMARK   26  A    between atoms: C_68  and  C_72 
REMARK   27  A    between atoms: C_72  and  C_73 
REMARK       I    between atoms: C_73  and  N_74 
REMARK       I    between atoms: C_77  and  N_76 
REMARK   28  A    between atoms: C_78  and  C_77 
REMARK   29  A    between atoms: C_80  and  C_78 
REMARK   30  A    between atoms: C_78  and  N_81 
REMARK   31  A    between atoms: C_82  and  C_80 
REMARK   32  A    between atoms: C_93  and  O_95 
REMARK   33  A    between atoms: C_96  and  C_93 
REMARK   34  A    between atoms: O_105  and  C_100 
REMARK   35  A    between atoms: C_108  and  C_114 
REMARK   36  A    between atoms: C_110  and  O_111 
REMARK   37  A    between atoms: C_112  and  O_113 
REMARK   38  A    between atoms: C_114  and  N_115 
REMARK   39  A    between atoms: N_115  and  C_116 
REMARK   40  A    between atoms: C_116  and  P_117 
REMARK   41  A    between atoms: P_117  and  O_118 
REMARK   42  A    between atoms: P_117  and  O_120 
ROOT
HETATM    1  C   UNK N   1      31.254  15.163   5.178  0.00  0.00     0.139 A 
HETATM    2  C   UNK N   1      32.085  15.144   6.315  0.00  0.00     0.113 A 
HETATM    3  C   UNK N   1      31.184  13.992   4.402  0.00  0.00     0.113 A 
HETATM    4  C   UNK N   1      32.868  12.887   5.752  0.00  0.00    -0.021 A 
HETATM    5  C   UNK N   1      32.002  12.918   4.676  0.00  0.00     0.050 A 
HETATM    6  C   UNK N   1      32.894  13.996   6.589  0.00  0.00     0.050 A 
HETATM    7  O   UNK N   1      32.089  16.223   7.159  0.00  0.00    -0.306 OA
HETATM    8  O   UNK N   1      30.303  13.916   3.389  0.00  0.00    -0.306 OA
HETATM    9  C   UNK N   1      30.476   9.448   0.436  0.00  0.00     0.183 C 
HETATM   10  C   UNK N   1      35.693  14.827  11.042  0.00  0.00     0.183 C 
HETATM   11  C   UNK N   1      29.869  10.600   1.077  0.00  0.00    -0.025 A 
HETATM   12  C   UNK N   1      34.540  15.408  10.314  0.00  0.00    -0.025 C 
HETATM   13  C   UNK N   1      30.056  12.831   2.659  0.00  0.00     0.098 A 
HETATM   14  C   UNK N   1      32.742  16.113   8.333  0.00  0.00     0.098 C 
HETATM   15  C   UNK N   1      29.607  11.628   3.232  0.00  0.00     0.068 A 
HETATM   16  C   UNK N   1      33.826  16.951   8.594  0.00  0.00     0.068 C 
HETATM   17  C   UNK N   1      34.742  16.577   9.574  0.00  0.00     0.036 C 
HETATM   18  C   UNK N   1      33.368  14.666  10.155  0.00  0.00     0.012 C 
HETATM   19  C   UNK N   1      30.197  11.816   0.500  0.00  0.00     0.012 A 
HETATM   20  C   UNK N   1      30.281  12.929   1.293  0.00  0.00     0.040 A 
HETATM   21  C   UNK N   1      32.465  15.025   9.176  0.00  0.00     0.040 C 
HETATM   22 Cl   UNK N   1      34.177  18.319   7.555  0.00  0.00    -0.081 Cl
HETATM   23 Cl   UNK N   1      29.214  11.481   4.940  0.00  0.00    -0.081 Cl
HETATM   24  C   UNK N   1      29.543  10.502   2.437  0.00  0.00     0.036 A 
HETATM   25  C   UNK N   1      35.687  13.296  11.207  0.00  0.00     0.210 C 
HETATM   26  N   UNK N   1      34.505  11.384   7.093  0.00  0.00    -0.342 N 
HETATM   27  C   UNK N   1      36.688  12.470  10.437  0.00  0.00     0.244 C 
HETATM   28  C   UNK N   1      32.588  10.466   5.790  0.00  0.00     0.246 C 
HETATM   29  N   UNK N   1      36.353  11.449   9.603  0.00  0.00    -0.345 N 
HETATM   30  C   UNK N   1      33.609  11.579   5.950  0.00  0.00     0.210 C 
HETATM   31  C   UNK N   1      34.150  11.420   8.407  0.00  0.00     0.241 C 
HETATM   32  C   UNK N   1      35.054  10.823   9.468  0.00  0.00     0.185 C 
HETATM   33  O   UNK N   1      37.865  12.771  10.540  0.00  0.00    -0.271 OA
HETATM   34  O   UNK N   1      31.767  10.267   6.670  0.00  0.00    -0.271 OA
HETATM   35  O   UNK N   1      33.043  11.811   8.738  0.00  0.00    -0.271 OA
HETATM   36  C   UNK N   1      31.808   9.247   1.192  0.00  0.00     0.210 C 
HETATM   37  N   UNK N   1      32.457   9.823   4.597  0.00  0.00    -0.342 N 
HETATM   38  C   UNK N   1      33.506   9.855   3.605  0.00  0.00     0.210 C 
HETATM   39  O   UNK N   1      33.167   8.451  -0.517  0.00  0.00    -0.271 OA
HETATM   40  N   UNK N   1      32.632  10.433   1.294  0.00  0.00    -0.343 N 
HETATM   41  C   UNK N   1      33.387  10.744   2.378  0.00  0.00     0.245 C 
HETATM   42  O   UNK N   1      34.026  11.786   2.362  0.00  0.00    -0.271 OA
HETATM   43  C   UNK N   1      32.915   5.884   0.279  0.00  0.00     0.217 C 
HETATM   44  N   UNK N   1      32.409   6.982   0.990  0.00  0.00    -0.341 N 
HETATM   45  C   UNK N   1      32.539   8.218   0.510  0.00  0.00     0.244 C 
HETATM   46  C   UNK N   1      34.753   6.236   3.101  0.00  0.00     0.011 A 
HETATM   47  C   UNK N   1      35.524   6.192   4.333  0.00  0.00     0.076 A 
HETATM   48  C   UNK N   1      34.295   8.601   3.701  0.00  0.00    -0.025 A 
HETATM   49  C   UNK N   1      34.163   7.497   2.832  0.00  0.00     0.025 A 
HETATM   50  C   UNK N   1      35.628   7.294   5.169  0.00  0.00     0.038 A 
HETATM   51  C   UNK N   1      35.022   8.475   4.864  0.00  0.00     0.012 A 
HETATM   52  C   UNK N   1      34.248   5.267   0.642  0.00  0.00    -0.009 C 
HETATM   53  C   UNK N   1      34.718   4.453  -0.383  0.00  0.00     0.048 C 
HETATM   54  C   UNK N   1      35.828   3.031   1.146  0.00  0.00     0.026 C 
HETATM   55  C   UNK N   1      34.771   5.110   1.993  0.00  0.00     0.020 C 
HETATM   56  C   UNK N   1      35.559   3.404  -0.158  0.00  0.00     0.076 C 
HETATM   57  C   UNK N   1      35.420   3.851   2.216  0.00  0.00     0.088 C 
HETATM   58  H   UNK N   1      35.453  11.211   6.891  0.00  0.00     0.163 HD
HETATM   59  H   UNK N   1      37.072  11.099   9.029  0.00  0.00     0.163 HD
HETATM   60  H   UNK N   1      31.629   9.326   4.408  0.00  0.00     0.163 HD
HETATM   61  H   UNK N   1      32.645  11.052   0.528  0.00  0.00     0.163 HD
HETATM   62  H   UNK N   1      31.955   6.838   1.852  0.00  0.00     0.163 HD
ENDROOT
BRANCH   1  63
HETATM   63  O   UNK N   1      30.553  16.289   4.871  0.00  0.00    -0.312 OA
BRANCH  63  64
HETATM   64  C   UNK N   1      29.299  16.656   5.360  0.00  0.00     0.298 C 
HETATM   65  C   UNK N   1      28.522  17.344   4.219  0.00  0.00     0.211 C 
HETATM   66  C   UNK N   1      27.294  18.123   4.677  0.00  0.00     0.183 C 
HETATM   67  C   UNK N   1      27.595  18.891   5.945  0.00  0.00     0.180 C 
HETATM   68  C   UNK N   1      28.147  17.913   7.011  0.00  0.00     0.179 C 
HETATM   69  O   UNK N   1      29.384  17.345   6.600  0.00  0.00    -0.348 OA
BRANCH  65  70
HETATM   70  O   UNK N   1      28.225  16.397   3.199  0.00  0.00    -0.348 OA
BRANCH  70  71
HETATM   71  C   UNK N   1      26.963  15.795   3.451  0.00  0.00     0.263 C 
HETATM   72  C   UNK N   1      26.139  15.557   2.165  0.00  0.00     0.093 C 
HETATM   73  C   UNK N   1      25.477  14.147   2.178  0.00  0.00     0.054 C 
HETATM   74  C   UNK N   1      24.323  14.108   1.176  0.00  0.00     0.041 C 
HETATM   75  C   UNK N   1      24.928  13.792   3.602  0.00  0.00     0.174 C 
HETATM   76  C   UNK N   1      25.813  14.398   4.688  0.00  0.00     0.151 C 
HETATM   77  O   UNK N   1      27.084  14.591   4.173  0.00  0.00    -0.354 OA
HETATM   78  C   UNK N   1      25.847  13.603   5.977  0.00  0.00     0.042 C 
BRANCH  73  79
HETATM   79  N   UNK N   1      26.510  13.141   1.846  0.00  0.00    -0.409 N 
HETATM   80  H   UNK N   1      27.399  13.381   1.409  0.00  0.00     0.154 HD
BRANCH  79  81
HETATM   81  C   UNK N   1      26.137  11.765   2.200  0.00  0.00     0.134 C 
BRANCH  81  82
HETATM   82  C   UNK N   1      26.173  10.836   0.994  0.00  0.00     0.133 C 
BRANCH  82  83
HETATM   83  N   UNK N   1      25.325   9.675   1.217  0.00  0.00    -0.420 N 
HETATM   84  H   UNK N   1      24.306   9.668   1.245  0.00  0.00     0.153 HD
BRANCH  83  85
HETATM   85  C   UNK N   1      26.198   8.524   1.392  0.00  0.00     0.113 C 
BRANCH  85  86
HETATM   86  C   UNK N   1      26.186   8.089   2.849  0.00  0.00     0.019 C 
BRANCH  86  87
HETATM   87  C   UNK N   1      27.544   7.556   3.269  0.00  0.00     0.002 C 
BRANCH  87  88
HETATM   88  C   UNK N   1      27.806   7.866   4.736  0.00  0.00     0.000 C 
BRANCH  88  89
HETATM   89  C   UNK N   1      28.724   6.809   5.331  0.00  0.00     0.000 C 
BRANCH  89  90
HETATM   90  C   UNK N   1      30.052   7.429   5.725  0.00  0.00     0.000 C 
BRANCH  90  91
HETATM   91  C   UNK N   1      31.208   6.502   5.386  0.00  0.00     0.000 C 
BRANCH  91  92
HETATM   92  C   UNK N   1      31.013   5.918   3.999  0.00  0.00    -0.000 C 
BRANCH  92  93
HETATM   93  C   UNK N   1      31.640   4.542   3.905  0.00  0.00    -0.005 C 
HETATM   94  C   UNK N   1      32.439   4.269   5.162  0.00  0.00     0.005 C 
ENDBRANCH  92  93
ENDBRANCH  91  92
ENDBRANCH  90  91
ENDBRANCH  89  90
ENDBRANCH  88  89
ENDBRANCH  87  88
ENDBRANCH  86  87
ENDBRANCH  85  86
ENDBRANCH  83  85
ENDBRANCH  82  83
ENDBRANCH  81  82
ENDBRANCH  79  81
ENDBRANCH  73  79
BRANCH  75  95
HETATM   95  O   UNK N   1      23.628  14.257   3.811  0.00  0.00    -0.391 OA
HETATM   96  H   UNK N   1      23.394  15.118   4.189  0.00  0.00     0.210 HD
ENDBRANCH  75  95
ENDBRANCH  70  71
ENDBRANCH  65  70
BRANCH  66  97
HETATM   97  O   UNK N   1      26.900  19.002   3.665  0.00  0.00    -0.390 OA
HETATM   98  H   UNK N   1      26.889  19.582   2.887  0.00  0.00     0.210 HD
ENDBRANCH  66  97
BRANCH  67  99
HETATM   99  O   UNK N   1      26.420  19.514   6.373  0.00  0.00    -0.390 OA
HETATM  100  H   UNK N   1      25.919  20.107   5.792  0.00  0.00     0.210 HD
ENDBRANCH  67  99
BRANCH  68 101
HETATM  101  C   UNK N   1      28.443  18.632   8.336  0.00  0.00     0.198 C 
BRANCH 101 102
HETATM  102  O   UNK N   1      27.451  18.438   9.299  0.00  0.00    -0.398 OA
HETATM  103  H   UNK N   1      26.561  18.807   9.194  0.00  0.00     0.209 HD
ENDBRANCH 101 102
ENDBRANCH  68 101
ENDBRANCH  63  64
ENDBRANCH   1  63
BRANCH  10 104
HETATM  104  O   UNK N   1      36.027  15.546  12.181  0.00  0.00    -0.388 OA
HETATM  105  H   UNK N   1      35.751  16.471  12.272  0.00  0.00     0.210 HD
ENDBRANCH  10 104
BRANCH  32 106
HETATM  106  C   UNK N   1      35.232   9.309   9.203  0.00  0.00     0.137 C 
BRANCH 106 107
HETATM  107  C   UNK N   1      34.058   8.435   9.588  0.00  0.00     0.217 C 
HETATM  108  O   UNK N   1      34.177   7.633  10.500  0.00  0.00    -0.274 OA
HETATM  109  N   UNK N   1      32.883   8.528   8.935  0.00  0.00    -0.370 N 
HETATM  110  H   UNK N   1      32.465   8.448   8.047  0.00  0.00     0.159 HD
HETATM  111  H   UNK N   1      32.184   8.762   9.587  0.00  0.00     0.159 HD
ENDBRANCH 106 107
ENDBRANCH  32 106
BRANCH   9 112
HETATM  112  O   UNK N   1      29.656   8.322   0.560  0.00  0.00    -0.388 OA
HETATM  113  H   UNK N   1      29.516   7.370   0.681  0.00  0.00     0.210 HD
ENDBRANCH   9 112
BRANCH  25 114
HETATM  114  N   UNK N   1      34.750  12.678  12.121  0.00  0.00    -0.343 N 
HETATM  115  C   UNK N   1      35.021  12.352  13.415  0.00  0.00     0.240 C 
HETATM  116  O   UNK N   1      34.107  11.967  14.124  0.00  0.00    -0.271 OA
HETATM  117  H   UNK N   1      33.847  12.479  11.781  0.00  0.00     0.163 HD
BRANCH 115 118
HETATM  118  C   UNK N   1      36.412  12.412  14.022  0.00  0.00     0.169 C 
BRANCH 118 119
HETATM  119  C   UNK N   1      36.527  11.563  15.288  0.00  0.00     0.038 C 
BRANCH 119 120
HETATM  120  C   UNK N   1      37.259  10.251  15.031  0.00  0.00    -0.020 C 
HETATM  121  C   UNK N   1      38.005  10.303  13.713  0.00  0.00     0.009 C 
HETATM  122  C   UNK N   1      36.264   9.109  15.004  0.00  0.00     0.009 C 
ENDBRANCH 119 120
ENDBRANCH 118 119
BRANCH 118 123
HETATM  123  N   UNK N   1      36.921  13.763  14.214  0.00  0.00    -0.413 N 
HETATM  124  C   UNK N   1      36.710  14.108  15.609  0.00  0.00     0.140 C 
HETATM  125  H   UNK N   1      37.348  14.356  13.501  0.00  0.00     0.153 HD
ENDBRANCH 118 123
ENDBRANCH 115 118
ENDBRANCH  25 114
BRANCH  47 126
HETATM  126  O   UNK N   1      36.241   5.154   4.729  0.00  0.00    -0.360 OA
HETATM  127  H   UNK N   1      37.154   5.102   4.527  0.00  0.00     0.217 HD
ENDBRANCH  47 126
BRANCH  43 128
HETATM  128  C   UNK N   1      32.210   5.621  -1.048  0.00  0.00     0.168 C 
HETATM  129  O   UNK N   1      31.293   4.816  -1.113  0.00  0.00    -0.648 OA
BRANCH 128 130
HETATM  130  O   UNK N   1      32.660   6.190  -2.183  0.00  0.00    -0.775 OA
HETATM  131  H   UNK N   1      32.154   6.210  -2.970  0.00  0.00     0.167 HD
ENDBRANCH 128 130
ENDBRANCH  43 128
BRANCH  57 132
HETATM  132  O   UNK N   1      35.626   3.376   3.444  0.00  0.00    -0.359 OA
HETATM  133  H   UNK N   1      35.262   2.604   3.833  0.00  0.00     0.217 HD
ENDBRANCH  57 132
BRANCH  54 134
HETATM  134  C   UNK N   1      36.594   1.749   1.388  0.00  0.00     0.159 C 
BRANCH 134 135
HETATM  135  N   UNK N   1      35.852   0.722   2.127  0.00  0.00    -0.407 N 
HETATM  136  H   UNK N   1      36.091   0.405   3.066  0.00  0.00     0.154 HD
BRANCH 135 137
HETATM  137  C   UNK N   1      34.729   0.212   1.350  0.00  0.00     0.239 C 
BRANCH 137 138
HETATM  138  P   UNK N   1      33.139   0.712   2.176  0.00  0.00     0.253 P 
HETATM  139  O   UNK N   1      33.437   1.229   3.605  0.00  0.00    -0.652 OA
BRANCH 138 140
HETATM  140  O   UNK N   1      32.309   2.032   1.414  0.00  0.00    -0.328 OA
HETATM  141  H   UNK N   1      31.919   2.881   1.674  0.00  0.00     0.220 HD
ENDBRANCH 138 140
BRANCH 138 142
HETATM  142  O   UNK N   1      31.978  -0.552   2.443  0.00  0.00    -0.328 OA
HETATM  143  H   UNK N   1      31.071  -0.886   2.531  0.00  0.00     0.220 HD
ENDBRANCH 138 142
ENDBRANCH 137 138
ENDBRANCH 135 137
ENDBRANCH 134 135
ENDBRANCH  54 134
BRANCH  56 144
HETATM  144  O   UNK N   1      36.011   2.687  -1.200  0.00  0.00    -0.360 OA
HETATM  145  H   UNK N   1      36.612   3.018  -1.836  0.00  0.00     0.217 HD
ENDBRANCH  56 144
TORSDOF 42
ENDMDL
MODEL 6
REMARK VINA RESULT:      -6.8      1.363      1.955
REMARK WARNING: 32 MAX_TORS EXCEEDED!!!
REMARK  42 active torsions:
REMARK  status: ('A' for Active; 'I' for Inactive)
REMARK    1  A    between atoms: C_1  and  C_2 
REMARK    2  A    between atoms: C_1  and  N_121 
REMARK    3  A    between atoms: C_2  and  N_3 
REMARK    4  A    between atoms: N_3  and  C_4 
REMARK    5  A    between atoms: C_4  and  C_5 
REMARK    6  A    between atoms: C_5  and  C_6 
REMARK    7  A    between atoms: C_6  and  C_7 
REMARK    8  A    between atoms: C_7  and  C_8 
REMARK    9  A    between atoms: C_8  and  C_9 
REMARK   10  A    between atoms: C_9  and  C_10 
REMARK   11  A    between atoms: C_10  and  C_11 
REMARK   12  A    between atoms: C_11  and  C_12 
REMARK   13  A    between atoms: O_57  and  C_14 
REMARK   14  A    between atoms: C_22  and  O_36 
REMARK   15  A    between atoms: C_23  and  O_38 
REMARK   16  A    between atoms: C_39  and  O_50 
REMARK   17  A    between atoms: C_40  and  O_57 
REMARK   18  A    between atoms: C_41  and  O_52 
REMARK   19  A    between atoms: C_43  and  N_121 
REMARK   20  A    between atoms: C_44  and  O_53 
REMARK   21  A    between atoms: C_45  and  O_50 
REMARK   22  A    between atoms: C_46  and  C_58 
REMARK   23  A    between atoms: C_49  and  O_54 
REMARK   24  A    between atoms: C_58  and  O_59 
REMARK   25  A    between atoms: C_61  and  N_76 
REMARK   26  A    between atoms: C_68  and  C_72 
REMARK   27  A    between atoms: C_72  and  C_73 
REMARK       I    between atoms: C_73  and  N_74 
REMARK       I    between atoms: C_77  and  N_76 
REMARK   28  A    between atoms: C_78  and  C_77 
REMARK   29  A    between atoms: C_80  and  C_78 
REMARK   30  A    between atoms: C_78  and  N_81 
REMARK   31  A    between atoms: C_82  and  C_80 
REMARK   32  A    between atoms: C_93  and  O_95 
REMARK   33  A    between atoms: C_96  and  C_93 
REMARK   34  A    between atoms: O_105  and  C_100 
REMARK   35  A    between atoms: C_108  and  C_114 
REMARK   36  A    between atoms: C_110  and  O_111 
REMARK   37  A    between atoms: C_112  and  O_113 
REMARK   38  A    between atoms: C_114  and  N_115 
REMARK   39  A    between atoms: N_115  and  C_116 
REMARK   40  A    between atoms: C_116  and  P_117 
REMARK   41  A    between atoms: P_117  and  O_118 
REMARK   42  A    between atoms: P_117  and  O_120 
ROOT
HETATM    1  C   UNK N   1      38.415  12.309   5.830  0.00  0.00     0.139 A 
HETATM    2  C   UNK N   1      38.348  12.054   4.446  0.00  0.00     0.113 A 
HETATM    3  C   UNK N   1      37.284  12.878   6.444  0.00  0.00     0.113 A 
HETATM    4  C   UNK N   1      36.132  13.103   4.322  0.00  0.00    -0.021 A 
HETATM    5  C   UNK N   1      36.208  13.290   5.689  0.00  0.00     0.050 A 
HETATM    6  C   UNK N   1      37.198  12.462   3.700  0.00  0.00     0.050 A 
HETATM    7  O   UNK N   1      39.382  11.394   3.837  0.00  0.00    -0.306 OA
HETATM    8  O   UNK N   1      37.249  13.013   7.781  0.00  0.00    -0.306 OA
HETATM    9  C   UNK N   1      32.941  15.483   9.796  0.00  0.00     0.183 C 
HETATM   10  C   UNK N   1      37.833  11.110  -1.411  0.00  0.00     0.183 C 
HETATM   11  C   UNK N   1      34.051  14.547   9.768  0.00  0.00    -0.025 A 
HETATM   12  C   UNK N   1      38.436  10.821  -0.088  0.00  0.00    -0.025 C 
HETATM   13  C   UNK N   1      36.200  13.424   8.490  0.00  0.00     0.098 A 
HETATM   14  C   UNK N   1      39.220  10.995   2.560  0.00  0.00     0.098 C 
HETATM   15  C   UNK N   1      34.964  12.755   8.455  0.00  0.00     0.068 A 
HETATM   16  C   UNK N   1      40.057  11.510   1.571  0.00  0.00     0.068 C 
HETATM   17  C   UNK N   1      39.645  11.444   0.242  0.00  0.00     0.036 C 
HETATM   18  C   UNK N   1      37.690  10.167   0.893  0.00  0.00     0.012 C 
HETATM   19  C   UNK N   1      35.299  15.135   9.893  0.00  0.00     0.012 A 
HETATM   20  C   UNK N   1      36.371  14.566   9.259  0.00  0.00     0.040 A 
HETATM   21  C   UNK N   1      38.087  10.242   2.212  0.00  0.00     0.040 C 
HETATM   22 Cl   UNK N   1      41.481  12.442   1.991  0.00  0.00    -0.081 Cl
HETATM   23 Cl   UNK N   1      34.724  11.252   7.574  0.00  0.00    -0.081 Cl
HETATM   24  C   UNK N   1      33.879  13.341   9.076  0.00  0.00     0.036 A 
HETATM   25  C   UNK N   1      36.296  11.056  -1.480  0.00  0.00     0.210 C 
HETATM   26  N   UNK N   1      34.584  13.322   2.251  0.00  0.00    -0.342 N 
HETATM   27  C   UNK N   1      35.524  12.340  -1.659  0.00  0.00     0.244 C 
HETATM   28  C   UNK N   1      33.710  12.995   4.562  0.00  0.00     0.246 C 
HETATM   29  N   UNK N   1      34.543  12.763  -0.817  0.00  0.00    -0.345 N 
HETATM   30  C   UNK N   1      34.825  13.528   3.682  0.00  0.00     0.210 C 
HETATM   31  C   UNK N   1      34.547  12.122   1.607  0.00  0.00     0.241 C 
HETATM   32  C   UNK N   1      33.908  11.999   0.237  0.00  0.00     0.185 C 
HETATM   33  O   UNK N   1      35.833  13.059  -2.593  0.00  0.00    -0.271 OA
HETATM   34  O   UNK N   1      33.455  11.802   4.562  0.00  0.00    -0.271 OA
HETATM   35  O   UNK N   1      34.907  11.105   2.175  0.00  0.00    -0.271 OA
HETATM   36  C   UNK N   1      32.719  15.856   8.313  0.00  0.00     0.210 C 
HETATM   37  N   UNK N   1      33.127  13.801   5.492  0.00  0.00    -0.342 N 
HETATM   38  C   UNK N   1      33.223  15.240   5.409  0.00  0.00     0.210 C 
HETATM   39  O   UNK N   1      32.029  18.066   8.517  0.00  0.00    -0.271 OA
HETATM   40  N   UNK N   1      33.908  16.293   7.613  0.00  0.00    -0.343 N 
HETATM   41  C   UNK N   1      34.173  16.009   6.313  0.00  0.00     0.245 C 
HETATM   42  O   UNK N   1      35.221  16.410   5.831  0.00  0.00    -0.271 OA
HETATM   43  C   UNK N   1      29.421  17.433   8.222  0.00  0.00     0.217 C 
HETATM   44  N   UNK N   1      30.475  16.519   8.074  0.00  0.00    -0.341 N 
HETATM   45  C   UNK N   1      31.736  16.900   8.276  0.00  0.00     0.244 C 
HETATM   46  C   UNK N   1      29.651  16.628   4.941  0.00  0.00     0.011 A 
HETATM   47  C   UNK N   1      29.554  16.264   3.536  0.00  0.00     0.076 A 
HETATM   48  C   UNK N   1      31.976  15.770   4.801  0.00  0.00    -0.025 A 
HETATM   49  C   UNK N   1      30.917  16.361   5.522  0.00  0.00     0.025 A 
HETATM   50  C   UNK N   1      30.612  15.678   2.860  0.00  0.00     0.038 A 
HETATM   51  C   UNK N   1      31.800  15.429   3.478  0.00  0.00     0.012 A 
HETATM   52  C   UNK N   1      28.803  18.112   7.019  0.00  0.00    -0.009 C 
HETATM   53  C   UNK N   1      28.049  19.216   7.401  0.00  0.00     0.048 C 
HETATM   54  C   UNK N   1      26.564  18.933   5.582  0.00  0.00     0.026 C 
HETATM   55  C   UNK N   1      28.584  17.497   5.717  0.00  0.00     0.020 C 
HETATM   56  C   UNK N   1      27.000  19.678   6.662  0.00  0.00     0.076 C 
HETATM   57  C   UNK N   1      27.323  17.838   5.125  0.00  0.00     0.088 C 
HETATM   58  H   UNK N   1      34.433  14.126   1.704  0.00  0.00     0.163 HD
HETATM   59  H   UNK N   1      34.232  13.690  -0.937  0.00  0.00     0.163 HD
HETATM   60  H   UNK N   1      32.630  13.394   6.237  0.00  0.00     0.163 HD
HETATM   61  H   UNK N   1      34.566  16.829   8.113  0.00  0.00     0.163 HD
HETATM   62  H   UNK N   1      30.281  15.588   7.817  0.00  0.00     0.163 HD
ENDROOT
BRANCH   1  63
HETATM   63  O   UNK N   1      39.546  11.999   6.521  0.00  0.00    -0.312 OA
BRANCH  63  64
HETATM   64  C   UNK N   1      40.164  10.751   6.601  0.00  0.00     0.298 C 
HETATM   65  C   UNK N   1      40.151  10.304   8.078  0.00  0.00     0.211 C 
HETATM   66  C   UNK N   1      41.097   9.150   8.393  0.00  0.00     0.183 C 
HETATM   67  C   UNK N   1      42.419   9.339   7.681  0.00  0.00     0.180 C 
HETATM   68  C   UNK N   1      42.156   9.536   6.168  0.00  0.00     0.179 C 
HETATM   69  O   UNK N   1      41.412  10.722   5.922  0.00  0.00    -0.348 OA
BRANCH  65  70
HETATM   70  O   UNK N   1      38.813  10.048   8.492  0.00  0.00    -0.348 OA
BRANCH  70  71
HETATM   71  C   UNK N   1      38.252   9.012   7.698  0.00  0.00     0.263 C 
HETATM   72  C   UNK N   1      38.058   7.691   8.477  0.00  0.00     0.093 C 
HETATM   73  C   UNK N   1      36.672   7.054   8.162  0.00  0.00     0.054 C 
HETATM   74  C   UNK N   1      36.686   5.572   8.540  0.00  0.00     0.041 C 
HETATM   75  C   UNK N   1      36.319   7.189   6.642  0.00  0.00     0.174 C 
HETATM   76  C   UNK N   1      36.880   8.489   6.070  0.00  0.00     0.151 C 
HETATM   77  O   UNK N   1      37.035   9.399   7.102  0.00  0.00    -0.354 OA
HETATM   78  C   UNK N   1      36.068   9.068   4.930  0.00  0.00     0.042 C 
BRANCH  73  79
HETATM   79  N   UNK N   1      35.635   7.790   8.918  0.00  0.00    -0.409 N 
HETATM   80  H   UNK N   1      35.156   8.611   8.549  0.00  0.00     0.154 HD
BRANCH  79  81
HETATM   81  C   UNK N   1      35.359   7.234  10.249  0.00  0.00     0.134 C 
BRANCH  81  82
HETATM   82  C   UNK N   1      35.980   8.071  11.358  0.00  0.00     0.133 C 
BRANCH  82  83
HETATM   83  N   UNK N   1      35.219   9.293  11.566  0.00  0.00    -0.420 N 
HETATM   84  H   UNK N   1      34.980   9.984  10.855  0.00  0.00     0.153 HD
BRANCH  83  85
HETATM   85  C   UNK N   1      34.858   9.348  12.974  0.00  0.00     0.113 C 
BRANCH  85  86
HETATM   86  C   UNK N   1      33.784  10.404  13.185  0.00  0.00     0.019 C 
BRANCH  86  87
HETATM   87  C   UNK N   1      33.766  10.882  14.626  0.00  0.00     0.002 C 
BRANCH  87  88
HETATM   88  C   UNK N   1      34.680  10.020  15.484  0.00  0.00     0.000 C 
BRANCH  88  89
HETATM   89  C   UNK N   1      35.736  10.890  16.148  0.00  0.00     0.000 C 
BRANCH  89  90
HETATM   90  C   UNK N   1      37.100  10.616  15.542  0.00  0.00     0.000 C 
BRANCH  90  91
HETATM   91  C   UNK N   1      37.523  11.748  14.620  0.00  0.00     0.000 C 
BRANCH  91  92
HETATM   92  C   UNK N   1      36.799  13.025  15.003  0.00  0.00    -0.000 C 
BRANCH  92  93
HETATM   93  C   UNK N   1      36.303  13.750  13.768  0.00  0.00    -0.005 C 
HETATM   94  C   UNK N   1      36.461  12.848  12.562  0.00  0.00     0.005 C 
ENDBRANCH  92  93
ENDBRANCH  91  92
ENDBRANCH  90  91
ENDBRANCH  89  90
ENDBRANCH  88  89
ENDBRANCH  87  88
ENDBRANCH  86  87
ENDBRANCH  85  86
ENDBRANCH  83  85
ENDBRANCH  82  83
ENDBRANCH  81  82
ENDBRANCH  79  81
ENDBRANCH  73  79
BRANCH  75  95
HETATM   95  O   UNK N   1      36.825   6.139   5.874  0.00  0.00    -0.391 OA
HETATM   96  H   UNK N   1      37.615   6.183   5.313  0.00  0.00     0.210 HD
ENDBRANCH  75  95
ENDBRANCH  70  71
ENDBRANCH  65  70
BRANCH  66  97
HETATM   97  O   UNK N   1      41.301   9.082   9.774  0.00  0.00    -0.390 OA
HETATM   98  H   UNK N   1      41.498   9.303  10.697  0.00  0.00     0.210 HD
ENDBRANCH  66  97
BRANCH  67  99
HETATM   99  O   UNK N   1      43.216   8.219   7.927  0.00  0.00    -0.390 OA
HETATM  100  H   UNK N   1      43.655   8.085   8.782  0.00  0.00     0.210 HD
ENDBRANCH  67  99
BRANCH  68 101
HETATM  101  C   UNK N   1      43.468   9.702   5.385  0.00  0.00     0.198 C 
BRANCH 101 102
HETATM  102  O   UNK N   1      43.593   8.800   4.326  0.00  0.00    -0.398 OA
HETATM  103  H   UNK N   1      43.052   8.879   3.526  0.00  0.00     0.209 HD
ENDBRANCH 101 102
ENDBRANCH  68 101
ENDBRANCH  63  64
ENDBRANCH   1  63
BRANCH  10 104
HETATM  104  O   UNK N   1      38.497  10.479  -2.453  0.00  0.00    -0.388 OA
HETATM  105  H   UNK N   1      37.995  10.064  -3.172  0.00  0.00     0.210 HD
ENDBRANCH  10 104
BRANCH  32 106
HETATM  106  C   UNK N   1      32.412  12.383   0.329  0.00  0.00     0.137 C 
BRANCH 106 107
HETATM  107  C   UNK N   1      31.455  11.468  -0.404  0.00  0.00     0.217 C 
HETATM  108  O   UNK N   1      30.438  11.928  -0.895  0.00  0.00    -0.274 OA
HETATM  109  N   UNK N   1      31.710  10.149  -0.518  0.00  0.00    -0.370 N 
HETATM  110  H   UNK N   1      31.869   9.328   0.002  0.00  0.00     0.159 HD
HETATM  111  H   UNK N   1      31.752   9.924  -1.475  0.00  0.00     0.159 HD
ENDBRANCH 106 107
ENDBRANCH  32 106
BRANCH   9 112
HETATM  112  O   UNK N   1      31.801  14.881  10.337  0.00  0.00    -0.388 OA
HETATM  113  H   UNK N   1      31.076  14.837  10.979  0.00  0.00     0.210 HD
ENDBRANCH   9 112
BRANCH  25 114
HETATM  114  N   UNK N   1      35.621   9.778  -1.408  0.00  0.00    -0.343 N 
HETATM  115  C   UNK N   1      35.101   9.109  -2.475  0.00  0.00     0.240 C 
HETATM  116  O   UNK N   1      34.683   7.976  -2.305  0.00  0.00    -0.271 OA
HETATM  117  H   UNK N   1      35.530   9.361  -0.520  0.00  0.00     0.163 HD
BRANCH 115 118
HETATM  118  C   UNK N   1      34.986   9.707  -3.865  0.00  0.00     0.169 C 
BRANCH 118 119
HETATM  119  C   UNK N   1      33.825   9.106  -4.658  0.00  0.00     0.038 C 
BRANCH 119 120
HETATM  120  C   UNK N   1      32.610  10.026  -4.677  0.00  0.00    -0.020 C 
HETATM  121  C   UNK N   1      32.870  11.273  -3.854  0.00  0.00     0.009 C 
HETATM  122  C   UNK N   1      31.408   9.295  -4.118  0.00  0.00     0.009 C 
ENDBRANCH 119 120
ENDBRANCH 118 119
BRANCH 118 123
HETATM  123  N   UNK N   1      36.232   9.705  -4.621  0.00  0.00    -0.413 N 
HETATM  124  C   UNK N   1      36.276  10.942  -5.382  0.00  0.00     0.140 C 
HETATM  125  H   UNK N   1      36.941   8.971  -4.617  0.00  0.00     0.153 HD
ENDBRANCH 118 123
ENDBRANCH 115 118
ENDBRANCH  25 114
BRANCH  47 126
HETATM  126  O   UNK N   1      28.505  16.516   2.771  0.00  0.00    -0.360 OA
HETATM  127  H   UNK N   1      28.565  16.434   1.840  0.00  0.00     0.217 HD
ENDBRANCH  47 126
BRANCH  43 128
HETATM  128  C   UNK N   1      29.218  17.925   9.651  0.00  0.00     0.168 C 
HETATM  129  O   UNK N   1      28.359  17.426  10.361  0.00  0.00    -0.648 OA
BRANCH 128 130
HETATM  130  O   UNK N   1      29.907  18.987  10.110  0.00  0.00    -0.775 OA
HETATM  131  H   UNK N   1      30.109  19.101  11.018  0.00  0.00     0.167 HD
ENDBRANCH 128 130
ENDBRANCH  43 128
BRANCH  57 132
HETATM  132  O   UNK N   1      26.788  17.109   4.146  0.00  0.00    -0.359 OA
HETATM  133  H   UNK N   1      25.897  17.098   3.855  0.00  0.00     0.217 HD
ENDBRANCH  57 132
BRANCH  54 134
HETATM  134  C   UNK N   1      25.282  19.341   4.893  0.00  0.00     0.159 C 
BRANCH 134 135
HETATM  135  N   UNK N   1      24.115  18.520   5.233  0.00  0.00    -0.407 N 
HETATM  136  H   UNK N   1      23.802  18.331   6.186  0.00  0.00     0.154 HD
BRANCH 135 137
HETATM  137  C   UNK N   1      23.456  18.008   4.038  0.00  0.00     0.239 C 
BRANCH 137 138
HETATM  138  P   UNK N   1      21.613  18.110   4.266  0.00  0.00     0.253 P 
HETATM  139  O   UNK N   1      21.196  17.276   5.503  0.00  0.00    -0.652 OA
BRANCH 138 140
HETATM  140  O   UNK N   1      21.011  19.701   4.607  0.00  0.00    -0.328 OA
HETATM  141  H   UNK N   1      21.369  20.594   4.728  0.00  0.00     0.220 HD
ENDBRANCH 138 140
BRANCH 138 142
HETATM  142  O   UNK N   1      20.639  17.444   2.991  0.00  0.00    -0.328 OA
HETATM  143  H   UNK N   1      20.338  16.715   2.426  0.00  0.00     0.220 HD
ENDBRANCH 138 142
ENDBRANCH 137 138
ENDBRANCH 135 137
ENDBRANCH 134 135
ENDBRANCH  54 134
BRANCH  56 144
HETATM  144  O   UNK N   1      26.343  20.777   7.067  0.00  0.00    -0.360 OA
HETATM  145  H   UNK N   1      26.061  21.456   6.487  0.00  0.00     0.217 HD
ENDBRANCH  56 144
TORSDOF 42
ENDMDL
MODEL 7
REMARK VINA RESULT:      -6.8      5.002     14.178
REMARK WARNING: 32 MAX_TORS EXCEEDED!!!
REMARK  42 active torsions:
REMARK  status: ('A' for Active; 'I' for Inactive)
REMARK    1  A    between atoms: C_1  and  C_2 
REMARK    2  A    between atoms: C_1  and  N_121 
REMARK    3  A    between atoms: C_2  and  N_3 
REMARK    4  A    between atoms: N_3  and  C_4 
REMARK    5  A    between atoms: C_4  and  C_5 
REMARK    6  A    between atoms: C_5  and  C_6 
REMARK    7  A    between atoms: C_6  and  C_7 
REMARK    8  A    between atoms: C_7  and  C_8 
REMARK    9  A    between atoms: C_8  and  C_9 
REMARK   10  A    between atoms: C_9  and  C_10 
REMARK   11  A    between atoms: C_10  and  C_11 
REMARK   12  A    between atoms: C_11  and  C_12 
REMARK   13  A    between atoms: O_57  and  C_14 
REMARK   14  A    between atoms: C_22  and  O_36 
REMARK   15  A    between atoms: C_23  and  O_38 
REMARK   16  A    between atoms: C_39  and  O_50 
REMARK   17  A    between atoms: C_40  and  O_57 
REMARK   18  A    between atoms: C_41  and  O_52 
REMARK   19  A    between atoms: C_43  and  N_121 
REMARK   20  A    between atoms: C_44  and  O_53 
REMARK   21  A    between atoms: C_45  and  O_50 
REMARK   22  A    between atoms: C_46  and  C_58 
REMARK   23  A    between atoms: C_49  and  O_54 
REMARK   24  A    between atoms: C_58  and  O_59 
REMARK   25  A    between atoms: C_61  and  N_76 
REMARK   26  A    between atoms: C_68  and  C_72 
REMARK   27  A    between atoms: C_72  and  C_73 
REMARK       I    between atoms: C_73  and  N_74 
REMARK       I    between atoms: C_77  and  N_76 
REMARK   28  A    between atoms: C_78  and  C_77 
REMARK   29  A    between atoms: C_80  and  C_78 
REMARK   30  A    between atoms: C_78  and  N_81 
REMARK   31  A    between atoms: C_82  and  C_80 
REMARK   32  A    between atoms: C_93  and  O_95 
REMARK   33  A    between atoms: C_96  and  C_93 
REMARK   34  A    between atoms: O_105  and  C_100 
REMARK   35  A    between atoms: C_108  and  C_114 
REMARK   36  A    between atoms: C_110  and  O_111 
REMARK   37  A    between atoms: C_112  and  O_113 
REMARK   38  A    between atoms: C_114  and  N_115 
REMARK   39  A    between atoms: N_115  and  C_116 
REMARK   40  A    between atoms: C_116  and  P_117 
REMARK   41  A    between atoms: P_117  and  O_118 
REMARK   42  A    between atoms: P_117  and  O_120 
ROOT
HETATM    1  C   UNK N   1      31.029  15.188   5.020  0.00  0.00     0.139 A 
HETATM    2  C   UNK N   1      31.917  15.166   6.114  0.00  0.00     0.113 A 
HETATM    3  C   UNK N   1      30.897  14.008   4.266  0.00  0.00     0.113 A 
HETATM    4  C   UNK N   1      32.624  12.886   5.545  0.00  0.00    -0.021 A 
HETATM    5  C   UNK N   1      31.706  12.921   4.513  0.00  0.00     0.050 A 
HETATM    6  C   UNK N   1      32.715  14.005   6.364  0.00  0.00     0.050 A 
HETATM    7  O   UNK N   1      31.985  16.256   6.942  0.00  0.00    -0.306 OA
HETATM    8  O   UNK N   1      29.965  13.937   3.300  0.00  0.00    -0.306 OA
HETATM    9  C   UNK N   1      29.898   9.428   0.405  0.00  0.00     0.183 C 
HETATM   10  C   UNK N   1      35.751  14.836  10.659  0.00  0.00     0.183 C 
HETATM   11  C   UNK N   1      29.347  10.601   1.059  0.00  0.00    -0.025 A 
HETATM   12  C   UNK N   1      34.574  15.431   9.981  0.00  0.00    -0.025 C 
HETATM   13  C   UNK N   1      29.659  12.848   2.598  0.00  0.00     0.098 A 
HETATM   14  C   UNK N   1      32.694  16.148   8.083  0.00  0.00     0.098 C 
HETATM   15  C   UNK N   1      29.215  11.662   3.210  0.00  0.00     0.068 A 
HETATM   16  C   UNK N   1      33.806  16.966   8.277  0.00  0.00     0.068 C 
HETATM   17  C   UNK N   1      34.763  16.586   9.215  0.00  0.00     0.036 C 
HETATM   18  C   UNK N   1      33.382  14.713   9.892  0.00  0.00     0.012 C 
HETATM   19  C   UNK N   1      29.670  11.802   0.450  0.00  0.00     0.012 A 
HETATM   20  C   UNK N   1      29.817  12.923   1.221  0.00  0.00     0.040 A 
HETATM   21  C   UNK N   1      32.438  15.077   8.954  0.00  0.00     0.040 C 
HETATM   22 Cl   UNK N   1      34.132  18.313   7.203  0.00  0.00    -0.081 Cl
HETATM   23 Cl   UNK N   1      28.906  11.546   4.937  0.00  0.00    -0.081 Cl
HETATM   24  C   UNK N   1      29.089  10.527   2.435  0.00  0.00     0.036 A 
HETATM   25  C   UNK N   1      35.722  13.308  10.846  0.00  0.00     0.210 C 
HETATM   26  N   UNK N   1      34.296  11.367   6.823  0.00  0.00    -0.342 N 
HETATM   27  C   UNK N   1      36.667  12.451  10.038  0.00  0.00     0.244 C 
HETATM   28  C   UNK N   1      32.298  10.472   5.631  0.00  0.00     0.246 C 
HETATM   29  N   UNK N   1      36.269  11.427   9.237  0.00  0.00    -0.345 N 
HETATM   30  C   UNK N   1      33.347  11.565   5.724  0.00  0.00     0.210 C 
HETATM   31  C   UNK N   1      34.009  11.427   8.153  0.00  0.00     0.241 C 
HETATM   32  C   UNK N   1      34.953  10.826   9.176  0.00  0.00     0.185 C 
HETATM   33  O   UNK N   1      37.853  12.728  10.077  0.00  0.00    -0.271 OA
HETATM   34  O   UNK N   1      31.518  10.302   6.554  0.00  0.00    -0.271 OA
HETATM   35  O   UNK N   1      32.928  11.846   8.534  0.00  0.00    -0.271 OA
HETATM   36  C   UNK N   1      31.262   9.209   1.097  0.00  0.00     0.210 C 
HETATM   37  N   UNK N   1      32.094   9.816   4.456  0.00  0.00    -0.342 N 
HETATM   38  C   UNK N   1      33.091   9.813   3.412  0.00  0.00     0.210 C 
HETATM   39  O   UNK N   1      32.517   8.362  -0.667  0.00  0.00    -0.271 OA
HETATM   40  N   UNK N   1      32.114  10.379   1.140  0.00  0.00    -0.343 N 
HETATM   41  C   UNK N   1      32.929  10.689   2.180  0.00  0.00     0.245 C 
HETATM   42  O   UNK N   1      33.587  11.716   2.117  0.00  0.00    -0.271 OA
HETATM   43  C   UNK N   1      32.253   5.812   0.177  0.00  0.00     0.217 C 
HETATM   44  N   UNK N   1      31.806   6.929   0.897  0.00  0.00    -0.341 N 
HETATM   45  C   UNK N   1      31.937   8.157   0.393  0.00  0.00     0.244 C 
HETATM   46  C   UNK N   1      34.238   6.162   2.898  0.00  0.00     0.011 A 
HETATM   47  C   UNK N   1      35.069   6.119   4.090  0.00  0.00     0.076 A 
HETATM   48  C   UNK N   1      33.859   8.544   3.486  0.00  0.00    -0.025 A 
HETATM   49  C   UNK N   1      33.661   7.432   2.641  0.00  0.00     0.025 A 
HETATM   50  C   UNK N   1      35.237   7.229   4.904  0.00  0.00     0.038 A 
HETATM   51  C   UNK N   1      34.640   8.419   4.613  0.00  0.00     0.012 A 
HETATM   52  C   UNK N   1      33.590   5.172   0.481  0.00  0.00    -0.009 C 
HETATM   53  C   UNK N   1      33.991   4.334  -0.554  0.00  0.00     0.048 C 
HETATM   54  C   UNK N   1      35.148   2.910   0.937  0.00  0.00     0.026 C 
HETATM   55  C   UNK N   1      34.177   5.022   1.806  0.00  0.00     0.020 C 
HETATM   56  C   UNK N   1      34.821   3.271  -0.357  0.00  0.00     0.076 C 
HETATM   57  C   UNK N   1      34.811   3.752   2.014  0.00  0.00     0.088 C 
HETATM   58  H   UNK N   1      35.229  11.172   6.577  0.00  0.00     0.163 HD
HETATM   59  H   UNK N   1      36.951  11.054   8.632  0.00  0.00     0.163 HD
HETATM   60  H   UNK N   1      31.247   9.334   4.315  0.00  0.00     0.163 HD
HETATM   61  H   UNK N   1      32.100  10.987   0.366  0.00  0.00     0.163 HD
HETATM   62  H   UNK N   1      31.393   6.806   1.782  0.00  0.00     0.163 HD
ENDROOT
BRANCH   1  63
HETATM   63  O   UNK N   1      30.337  16.324   4.733  0.00  0.00    -0.312 OA
BRANCH  63  64
HETATM   64  C   UNK N   1      29.098  16.704   5.249  0.00  0.00     0.298 C 
HETATM   65  C   UNK N   1      28.311  17.419   4.131  0.00  0.00     0.211 C 
HETATM   66  C   UNK N   1      27.104  18.211   4.620  0.00  0.00     0.183 C 
HETATM   67  C   UNK N   1      27.440  18.958   5.892  0.00  0.00     0.180 C 
HETATM   68  C   UNK N   1      27.996  17.958   6.935  0.00  0.00     0.179 C 
HETATM   69  O   UNK N   1      29.216  17.377   6.496  0.00  0.00    -0.348 OA
BRANCH  65  70
HETATM   70  O   UNK N   1      27.982  16.489   3.104  0.00  0.00    -0.348 OA
BRANCH  70  71
HETATM   71  C   UNK N   1      26.648  16.030   3.278  0.00  0.00     0.263 C 
HETATM   72  C   UNK N   1      25.948  15.687   1.944  0.00  0.00     0.093 C 
HETATM   73  C   UNK N   1      25.156  14.351   2.055  0.00  0.00     0.054 C 
HETATM   74  C   UNK N   1      24.117  14.269   0.936  0.00  0.00     0.041 C 
HETATM   75  C   UNK N   1      24.426  14.238   3.437  0.00  0.00     0.174 C 
HETATM   76  C   UNK N   1      25.243  14.913   4.536  0.00  0.00     0.151 C 
HETATM   77  O   UNK N   1      26.574  14.930   4.155  0.00  0.00    -0.354 OA
HETATM   78  C   UNK N   1      25.062  14.300   5.909  0.00  0.00     0.042 C 
BRANCH  73  79
HETATM   79  N   UNK N   1      26.117  13.228   1.977  0.00  0.00    -0.409 N 
HETATM   80  H   UNK N   1      26.982  13.274   1.439  0.00  0.00     0.154 HD
BRANCH  79  81
HETATM   81  C   UNK N   1      25.712  12.042   2.743  0.00  0.00     0.134 C 
BRANCH  81  82
HETATM   82  C   UNK N   1      25.505  10.828   1.848  0.00  0.00     0.133 C 
BRANCH  82  83
HETATM   83  N   UNK N   1      25.343   9.624   2.647  0.00  0.00    -0.420 N 
HETATM   84  H   UNK N   1      25.083   8.700   2.301  0.00  0.00     0.153 HD
BRANCH  83  85
HETATM   85  C   UNK N   1      25.622   9.977   4.030  0.00  0.00     0.113 C 
BRANCH  85  86
HETATM   86  C   UNK N   1      24.508   9.456   4.925  0.00  0.00     0.019 C 
BRANCH  86  87
HETATM   87  C   UNK N   1      23.835  10.593   5.675  0.00  0.00     0.002 C 
BRANCH  87  88
HETATM   88  C   UNK N   1      23.733  10.265   7.157  0.00  0.00     0.000 C 
BRANCH  88  89
HETATM   89  C   UNK N   1      23.111  11.436   7.903  0.00  0.00     0.000 C 
BRANCH  89  90
HETATM   90  C   UNK N   1      24.063  11.943   8.971  0.00  0.00     0.000 C 
BRANCH  90  91
HETATM   91  C   UNK N   1      23.331  12.805   9.988  0.00  0.00     0.000 C 
BRANCH  91  92
HETATM   92  C   UNK N   1      22.316  11.965  10.741  0.00  0.00    -0.000 C 
BRANCH  92  93
HETATM   93  C   UNK N   1      20.986  12.688  10.830  0.00  0.00    -0.005 C 
HETATM   94  C   UNK N   1      20.956  13.808   9.811  0.00  0.00     0.005 C 
ENDBRANCH  92  93
ENDBRANCH  91  92
ENDBRANCH  90  91
ENDBRANCH  89  90
ENDBRANCH  88  89
ENDBRANCH  87  88
ENDBRANCH  86  87
ENDBRANCH  85  86
ENDBRANCH  83  85
ENDBRANCH  82  83
ENDBRANCH  81  82
ENDBRANCH  79  81
ENDBRANCH  73  79
BRANCH  75  95
HETATM   95  O   UNK N   1      23.161  14.831   3.430  0.00  0.00    -0.391 OA
HETATM   96  H   UNK N   1      22.371  14.473   3.863  0.00  0.00     0.210 HD
ENDBRANCH  75  95
ENDBRANCH  70  71
ENDBRANCH  65  70
BRANCH  66  97
HETATM   97  O   UNK N   1      26.706  19.109   3.626  0.00  0.00    -0.390 OA
HETATM   98  H   UNK N   1      26.221  19.772   3.111  0.00  0.00     0.210 HD
ENDBRANCH  66  97
BRANCH  67  99
HETATM   99  O   UNK N   1      26.283  19.594   6.348  0.00  0.00    -0.390 OA
HETATM  100  H   UNK N   1      25.403  19.330   6.040  0.00  0.00     0.210 HD
ENDBRANCH  67  99
BRANCH  68 101
HETATM  101  C   UNK N   1      28.327  18.657   8.263  0.00  0.00     0.198 C 
BRANCH 101 102
HETATM  102  O   UNK N   1      27.454  18.313   9.297  0.00  0.00    -0.398 OA
HETATM  103  H   UNK N   1      27.617  17.544   9.866  0.00  0.00     0.209 HD
ENDBRANCH 101 102
ENDBRANCH  68 101
ENDBRANCH  63  64
ENDBRANCH   1  63
BRANCH  10 104
HETATM  104  O   UNK N   1      36.156  15.563  11.769  0.00  0.00    -0.388 OA
HETATM  105  H   UNK N   1      35.797  16.449  11.930  0.00  0.00     0.210 HD
ENDBRANCH  10 104
BRANCH  32 106
HETATM  106  C   UNK N   1      35.086   9.306   8.924  0.00  0.00     0.137 C 
BRANCH 106 107
HETATM  107  C   UNK N   1      33.807   8.506   9.051  0.00  0.00     0.217 C 
HETATM  108  O   UNK N   1      33.292   8.363  10.147  0.00  0.00    -0.274 OA
HETATM  109  N   UNK N   1      33.231   7.947   7.968  0.00  0.00    -0.370 N 
HETATM  110  H   UNK N   1      33.385   7.312   7.232  0.00  0.00     0.159 HD
HETATM  111  H   UNK N   1      32.320   8.308   7.882  0.00  0.00     0.159 HD
ENDBRANCH 106 107
ENDBRANCH  32 106
BRANCH   9 112
HETATM  112  O   UNK N   1      29.062   8.321   0.586  0.00  0.00    -0.388 OA
HETATM  113  H   UNK N   1      28.195   7.888   0.568  0.00  0.00     0.210 HD
ENDBRANCH   9 112
BRANCH  25 114
HETATM  114  N   UNK N   1      34.820  12.722  11.814  0.00  0.00    -0.343 N 
HETATM  115  C   UNK N   1      35.109  12.527  13.131  0.00  0.00     0.240 C 
HETATM  116  O   UNK N   1      34.216  12.156  13.874  0.00  0.00    -0.271 OA
HETATM  117  H   UNK N   1      33.930  12.444  11.496  0.00  0.00     0.163 HD
BRANCH 115 118
HETATM  118  C   UNK N   1      36.493  12.716  13.724  0.00  0.00     0.169 C 
BRANCH 118 119
HETATM  119  C   UNK N   1      36.764  11.753  14.880  0.00  0.00     0.038 C 
BRANCH 119 120
HETATM  120  C   UNK N   1      37.119  10.356  14.386  0.00  0.00    -0.020 C 
HETATM  121  C   UNK N   1      36.248   9.312  15.058  0.00  0.00     0.009 C 
HETATM  122  C   UNK N   1      38.575  10.064  14.684  0.00  0.00     0.009 C 
ENDBRANCH 119 120
ENDBRANCH 118 119
BRANCH 118 123
HETATM  123  N   UNK N   1      36.811  14.096  14.068  0.00  0.00    -0.413 N 
HETATM  124  C   UNK N   1      36.813  14.187  15.519  0.00  0.00     0.140 C 
HETATM  125  H   UNK N   1      36.997  14.856  13.414  0.00  0.00     0.153 HD
ENDBRANCH 118 123
ENDBRANCH 115 118
ENDBRANCH  25 114
BRANCH  47 126
HETATM  126  O   UNK N   1      35.784   5.071   4.464  0.00  0.00    -0.360 OA
HETATM  127  H   UNK N   1      35.453   4.203   4.346  0.00  0.00     0.217 HD
ENDBRANCH  47 126
BRANCH  43 128
HETATM  128  C   UNK N   1      31.477   5.546  -1.109  0.00  0.00     0.168 C 
HETATM  129  O   UNK N   1      30.540   4.763  -1.116  0.00  0.00    -0.648 OA
BRANCH 128 130
HETATM  130  O   UNK N   1      31.883   6.087  -2.274  0.00  0.00    -0.775 OA
HETATM  131  H   UNK N   1      32.672   5.823  -2.703  0.00  0.00     0.167 HD
ENDBRANCH 128 130
ENDBRANCH  43 128
BRANCH  57 132
HETATM  132  O   UNK N   1      35.068   3.290   3.237  0.00  0.00    -0.359 OA
HETATM  133  H   UNK N   1      35.121   2.396   3.517  0.00  0.00     0.217 HD
ENDBRANCH  57 132
BRANCH  54 134
HETATM  134  C   UNK N   1      35.899   1.616   1.158  0.00  0.00     0.159 C 
BRANCH 134 135
HETATM  135  N   UNK N   1      37.308   1.648   0.751  0.00  0.00    -0.407 N 
HETATM  136  H   UNK N   1      37.626   1.691  -0.217  0.00  0.00     0.154 HD
BRANCH 135 137
HETATM  137  C   UNK N   1      38.197   1.612   1.906  0.00  0.00     0.239 C 
BRANCH 137 138
HETATM  138  P   UNK N   1      38.898   3.312   2.188  0.00  0.00     0.253 P 
HETATM  139  O   UNK N   1      38.028   4.067   3.222  0.00  0.00    -0.652 OA
BRANCH 138 140
HETATM  140  O   UNK N   1      40.490   3.336   2.879  0.00  0.00    -0.328 OA
HETATM  141  H   UNK N   1      41.071   3.973   3.322  0.00  0.00     0.220 HD
ENDBRANCH 138 140
BRANCH 138 142
HETATM  142  O   UNK N   1      38.907   4.381   0.819  0.00  0.00    -0.328 OA
HETATM  143  H   UNK N   1      39.050   5.243   0.399  0.00  0.00     0.220 HD
ENDBRANCH 138 142
ENDBRANCH 137 138
ENDBRANCH 135 137
ENDBRANCH 134 135
ENDBRANCH  54 134
BRANCH  56 144
HETATM  144  O   UNK N   1      35.204   2.531  -1.410  0.00  0.00    -0.360 OA
HETATM  145  H   UNK N   1      35.256   2.861  -2.285  0.00  0.00     0.217 HD
ENDBRANCH  56 144
TORSDOF 42
ENDMDL
MODEL 8
REMARK VINA RESULT:      -6.6      3.805     10.221
REMARK WARNING: 32 MAX_TORS EXCEEDED!!!
REMARK  42 active torsions:
REMARK  status: ('A' for Active; 'I' for Inactive)
REMARK    1  A    between atoms: C_1  and  C_2 
REMARK    2  A    between atoms: C_1  and  N_121 
REMARK    3  A    between atoms: C_2  and  N_3 
REMARK    4  A    between atoms: N_3  and  C_4 
REMARK    5  A    between atoms: C_4  and  C_5 
REMARK    6  A    between atoms: C_5  and  C_6 
REMARK    7  A    between atoms: C_6  and  C_7 
REMARK    8  A    between atoms: C_7  and  C_8 
REMARK    9  A    between atoms: C_8  and  C_9 
REMARK   10  A    between atoms: C_9  and  C_10 
REMARK   11  A    between atoms: C_10  and  C_11 
REMARK   12  A    between atoms: C_11  and  C_12 
REMARK   13  A    between atoms: O_57  and  C_14 
REMARK   14  A    between atoms: C_22  and  O_36 
REMARK   15  A    between atoms: C_23  and  O_38 
REMARK   16  A    between atoms: C_39  and  O_50 
REMARK   17  A    between atoms: C_40  and  O_57 
REMARK   18  A    between atoms: C_41  and  O_52 
REMARK   19  A    between atoms: C_43  and  N_121 
REMARK   20  A    between atoms: C_44  and  O_53 
REMARK   21  A    between atoms: C_45  and  O_50 
REMARK   22  A    between atoms: C_46  and  C_58 
REMARK   23  A    between atoms: C_49  and  O_54 
REMARK   24  A    between atoms: C_58  and  O_59 
REMARK   25  A    between atoms: C_61  and  N_76 
REMARK   26  A    between atoms: C_68  and  C_72 
REMARK   27  A    between atoms: C_72  and  C_73 
REMARK       I    between atoms: C_73  and  N_74 
REMARK       I    between atoms: C_77  and  N_76 
REMARK   28  A    between atoms: C_78  and  C_77 
REMARK   29  A    between atoms: C_80  and  C_78 
REMARK   30  A    between atoms: C_78  and  N_81 
REMARK   31  A    between atoms: C_82  and  C_80 
REMARK   32  A    between atoms: C_93  and  O_95 
REMARK   33  A    between atoms: C_96  and  C_93 
REMARK   34  A    between atoms: O_105  and  C_100 
REMARK   35  A    between atoms: C_108  and  C_114 
REMARK   36  A    between atoms: C_110  and  O_111 
REMARK   37  A    between atoms: C_112  and  O_113 
REMARK   38  A    between atoms: C_114  and  N_115 
REMARK   39  A    between atoms: N_115  and  C_116 
REMARK   40  A    between atoms: C_116  and  P_117 
REMARK   41  A    between atoms: P_117  and  O_118 
REMARK   42  A    between atoms: P_117  and  O_120 
ROOT
HETATM    1  C   UNK N   1      35.745  13.687   5.778  0.00  0.00     0.139 A 
HETATM    2  C   UNK N   1      34.607  14.424   6.159  0.00  0.00     0.113 A 
HETATM    3  C   UNK N   1      35.607  12.782   4.710  0.00  0.00     0.113 A 
HETATM    4  C   UNK N   1      33.226  13.203   4.539  0.00  0.00    -0.021 A 
HETATM    5  C   UNK N   1      34.372  12.535   4.152  0.00  0.00     0.050 A 
HETATM    6  C   UNK N   1      33.347  14.168   5.531  0.00  0.00     0.050 A 
HETATM    7  O   UNK N   1      34.730  15.398   7.114  0.00  0.00    -0.306 OA
HETATM    8  O   UNK N   1      36.694  12.158   4.222  0.00  0.00    -0.306 OA
HETATM    9  C   UNK N   1      35.812   8.552   0.357  0.00  0.00     0.183 C 
HETATM   10  C   UNK N   1      29.650  17.391   7.605  0.00  0.00     0.183 C 
HETATM   11  C   UNK N   1      36.541   9.574   1.087  0.00  0.00    -0.025 A 
HETATM   12  C   UNK N   1      31.125  17.249   7.568  0.00  0.00    -0.025 C 
HETATM   13  C   UNK N   1      36.718  11.374   3.146  0.00  0.00     0.098 A 
HETATM   14  C   UNK N   1      33.681  16.216   7.331  0.00  0.00     0.098 C 
HETATM   15  C   UNK N   1      36.324  11.832   1.877  0.00  0.00     0.068 A 
HETATM   16  C   UNK N   1      33.067  16.224   8.583  0.00  0.00     0.068 C 
HETATM   17  C   UNK N   1      31.770  16.720   8.691  0.00  0.00     0.036 C 
HETATM   18  C   UNK N   1      31.810  17.384   6.360  0.00  0.00     0.012 C 
HETATM   19  C   UNK N   1      37.039   9.158   2.311  0.00  0.00     0.012 A 
HETATM   20  C   UNK N   1      37.133  10.063   3.335  0.00  0.00     0.040 A 
HETATM   21  C   UNK N   1      33.089  16.881   6.244  0.00  0.00     0.040 C 
HETATM   22 Cl   UNK N   1      33.799  15.408   9.950  0.00  0.00    -0.081 Cl
HETATM   23 Cl   UNK N   1      35.884  13.506   1.567  0.00  0.00    -0.081 Cl
HETATM   24  C   UNK N   1      36.209  10.915   0.851  0.00  0.00     0.036 A 
HETATM   25  C   UNK N   1      28.923  17.255   6.254  0.00  0.00     0.210 C 
HETATM   26  N   UNK N   1      30.713  13.557   3.996  0.00  0.00    -0.342 N 
HETATM   27  C   UNK N   1      28.072  16.036   5.998  0.00  0.00     0.244 C 
HETATM   28  C   UNK N   1      32.385  12.881   2.274  0.00  0.00     0.246 C 
HETATM   29  N   UNK N   1      28.236  15.201   4.937  0.00  0.00    -0.345 N 
HETATM   30  C   UNK N   1      31.982  12.870   3.738  0.00  0.00     0.210 C 
HETATM   31  C   UNK N   1      30.480  14.892   3.864  0.00  0.00     0.241 C 
HETATM   32  C   UNK N   1      29.064  15.425   3.770  0.00  0.00     0.185 C 
HETATM   33  O   UNK N   1      27.214  15.764   6.820  0.00  0.00    -0.271 OA
HETATM   34  O   UNK N   1      32.602  13.942   1.713  0.00  0.00    -0.271 OA
HETATM   35  O   UNK N   1      31.406  15.666   3.686  0.00  0.00    -0.271 OA
HETATM   36  C   UNK N   1      34.347   8.728   0.814  0.00  0.00     0.210 C 
HETATM   37  N   UNK N   1      32.694  11.716   1.641  0.00  0.00    -0.342 N 
HETATM   38  C   UNK N   1      32.267  10.439   2.162  0.00  0.00     0.210 C 
HETATM   39  O   UNK N   1      33.601   6.527   0.749  0.00  0.00    -0.271 OA
HETATM   40  N   UNK N   1      34.158   8.749   2.248  0.00  0.00    -0.343 N 
HETATM   41  C   UNK N   1      33.246   9.527   2.885  0.00  0.00     0.245 C 
HETATM   42  O   UNK N   1      33.191   9.481   4.104  0.00  0.00    -0.271 OA
HETATM   43  C   UNK N   1      32.367   6.860  -1.628  0.00  0.00     0.217 C 
HETATM   44  N   UNK N   1      32.962   7.899  -0.898  0.00  0.00    -0.341 N 
HETATM   45  C   UNK N   1      33.589   7.647   0.251  0.00  0.00     0.244 C 
HETATM   46  C   UNK N   1      29.897   8.846  -0.437  0.00  0.00     0.011 A 
HETATM   47  C   UNK N   1      28.758   9.688  -0.106  0.00  0.00     0.076 A 
HETATM   48  C   UNK N   1      31.049  10.006   1.431  0.00  0.00    -0.025 A 
HETATM   49  C   UNK N   1      31.028   9.050   0.393  0.00  0.00     0.025 A 
HETATM   50  C   UNK N   1      28.814  10.623   0.916  0.00  0.00     0.038 A 
HETATM   51  C   UNK N   1      29.938  10.785   1.669  0.00  0.00     0.012 A 
HETATM   52  C   UNK N   1      30.880   6.597  -1.539  0.00  0.00    -0.009 C 
HETATM   53  C   UNK N   1      30.564   5.338  -2.038  0.00  0.00     0.048 C 
HETATM   54  C   UNK N   1      28.434   6.068  -2.759  0.00  0.00     0.026 C 
HETATM   55  C   UNK N   1      29.844   7.614  -1.425  0.00  0.00     0.020 C 
HETATM   56  C   UNK N   1      29.341   5.044  -2.563  0.00  0.00     0.076 C 
HETATM   57  C   UNK N   1      28.684   7.347  -2.226  0.00  0.00     0.088 C 
HETATM   58  H   UNK N   1      29.957  13.000   4.291  0.00  0.00     0.163 HD
HETATM   59  H   UNK N   1      27.739  14.351   4.967  0.00  0.00     0.163 HD
HETATM   60  H   UNK N   1      33.221  11.746   0.811  0.00  0.00     0.163 HD
HETATM   61  H   UNK N   1      34.727   8.161   2.797  0.00  0.00     0.163 HD
HETATM   62  H   UNK N   1      32.916   8.823  -1.237  0.00  0.00     0.163 HD
ENDROOT
BRANCH   1  63
HETATM   63  O   UNK N   1      36.922  13.871   6.436  0.00  0.00    -0.312 OA
BRANCH  63  64
HETATM   64  C   UNK N   1      37.671  12.901   7.101  0.00  0.00     0.298 C 
HETATM   65  C   UNK N   1      37.919  13.391   8.543  0.00  0.00     0.211 C 
HETATM   66  C   UNK N   1      39.016  12.633   9.284  0.00  0.00     0.183 C 
HETATM   67  C   UNK N   1      40.193  12.375   8.369  0.00  0.00     0.180 C 
HETATM   68  C   UNK N   1      39.693  11.659   7.091  0.00  0.00     0.179 C 
HETATM   69  O   UNK N   1      38.803  12.483   6.350  0.00  0.00    -0.348 OA
BRANCH  65  70
HETATM   70  O   UNK N   1      36.690  13.423   9.260  0.00  0.00    -0.348 OA
BRANCH  70  71
HETATM   71  C   UNK N   1      36.064  12.148   9.201  0.00  0.00     0.263 C 
HETATM   72  C   UNK N   1      36.331  11.285  10.456  0.00  0.00     0.093 C 
HETATM   73  C   UNK N   1      35.028  10.578  10.935  0.00  0.00     0.054 C 
HETATM   74  C   UNK N   1      35.383   9.398  11.841  0.00  0.00     0.041 C 
HETATM   75  C   UNK N   1      34.188  10.053   9.721  0.00  0.00     0.174 C 
HETATM   76  C   UNK N   1      34.336  10.985   8.520  0.00  0.00     0.151 C 
HETATM   77  O   UNK N   1      34.677  12.248   8.974  0.00  0.00    -0.354 OA
HETATM   78  C   UNK N   1      33.123  11.025   7.613  0.00  0.00     0.042 C 
BRANCH  73  79
HETATM   79  N   UNK N   1      34.192  11.568  11.648  0.00  0.00    -0.409 N 
HETATM   80  H   UNK N   1      33.188  11.662  11.494  0.00  0.00     0.154 HD
BRANCH  79  81
HETATM   81  C   UNK N   1      34.937  12.406  12.597  0.00  0.00     0.134 C 
BRANCH  81  82
HETATM   82  C   UNK N   1      34.568  12.099  14.042  0.00  0.00     0.133 C 
BRANCH  82  83
HETATM   83  N   UNK N   1      35.158  13.079  14.940  0.00  0.00    -0.420 N 
HETATM   84  H   UNK N   1      35.965  13.670  14.744  0.00  0.00     0.153 HD
BRANCH  83  85
HETATM   85  C   UNK N   1      34.384  13.063  16.172  0.00  0.00     0.113 C 
BRANCH  85  86
HETATM   86  C   UNK N   1      35.313  13.254  17.361  0.00  0.00     0.019 C 
BRANCH  86  87
HETATM   87  C   UNK N   1      35.312  12.026  18.255  0.00  0.00     0.002 C 
BRANCH  87  88
HETATM   88  C   UNK N   1      35.835  10.816  17.496  0.00  0.00     0.000 C 
BRANCH  88  89
HETATM   89  C   UNK N   1      34.803   9.699  17.531  0.00  0.00     0.000 C 
BRANCH  89  90
HETATM   90  C   UNK N   1      34.838   8.994  18.874  0.00  0.00     0.000 C 
BRANCH  90  91
HETATM   91  C   UNK N   1      33.437   8.838  19.444  0.00  0.00     0.000 C 
BRANCH  91  92
HETATM   92  C   UNK N   1      33.088   7.366  19.563  0.00  0.00    -0.000 C 
BRANCH  92  93
HETATM   93  C   UNK N   1      31.827   7.180  20.383  0.00  0.00    -0.005 C 
HETATM   94  C   UNK N   1      30.788   8.187  19.937  0.00  0.00     0.005 C 
ENDBRANCH  92  93
ENDBRANCH  91  92
ENDBRANCH  90  91
ENDBRANCH  89  90
ENDBRANCH  88  89
ENDBRANCH  87  88
ENDBRANCH  86  87
ENDBRANCH  85  86
ENDBRANCH  83  85
ENDBRANCH  82  83
ENDBRANCH  81  82
ENDBRANCH  79  81
ENDBRANCH  73  79
BRANCH  75  95
HETATM   95  O   UNK N   1      34.571   8.775   9.310  0.00  0.00    -0.391 OA
HETATM   96  H   UNK N   1      34.639   7.997   9.885  0.00  0.00     0.210 HD
ENDBRANCH  75  95
ENDBRANCH  70  71
ENDBRANCH  65  70
BRANCH  66  97
HETATM   97  O   UNK N   1      39.424  13.378  10.394  0.00  0.00    -0.390 OA
HETATM   98  H   UNK N   1      39.892  13.691  11.183  0.00  0.00     0.210 HD
ENDBRANCH  66  97
BRANCH  67  99
HETATM   99  O   UNK N   1      41.129  11.604   9.063  0.00  0.00    -0.390 OA
HETATM  100  H   UNK N   1      41.002  11.367   9.994  0.00  0.00     0.210 HD
ENDBRANCH  67  99
BRANCH  68 101
HETATM  101  C   UNK N   1      40.853  11.341   6.134  0.00  0.00     0.198 C 
BRANCH 101 102
HETATM  102  O   UNK N   1      40.608  11.748   4.821  0.00  0.00    -0.398 OA
HETATM  103  H   UNK N   1      41.189  11.484   4.090  0.00  0.00     0.209 HD
ENDBRANCH 101 102
ENDBRANCH  68 101
ENDBRANCH  63  64
ENDBRANCH   1  63
BRANCH  10 104
HETATM  104  O   UNK N   1      29.231  18.448   8.401  0.00  0.00    -0.388 OA
HETATM  105  H   UNK N   1      29.505  19.355   8.191  0.00  0.00     0.210 HD
ENDBRANCH  10 104
BRANCH  32 106
HETATM  106  C   UNK N   1      28.371  14.833   2.520  0.00  0.00     0.137 C 
BRANCH 106 107
HETATM  107  C   UNK N   1      26.894  15.135   2.385  0.00  0.00     0.217 C 
HETATM  108  O   UNK N   1      26.474  16.240   2.688  0.00  0.00    -0.274 OA
HETATM  109  N   UNK N   1      26.035  14.198   1.938  0.00  0.00    -0.370 N 
HETATM  110  H   UNK N   1      25.686  13.295   2.120  0.00  0.00     0.159 HD
HETATM  111  H   UNK N   1      25.593  14.544   1.130  0.00  0.00     0.159 HD
ENDBRANCH 106 107
ENDBRANCH  32 106
BRANCH   9 112
HETATM  112  O   UNK N   1      35.934   8.748  -1.023  0.00  0.00    -0.388 OA
HETATM  113  H   UNK N   1      36.293   8.520  -1.894  0.00  0.00     0.210 HD
ENDBRANCH   9 112
BRANCH  25 114
HETATM  114  N   UNK N   1      29.038  18.310   5.270  0.00  0.00    -0.343 N 
HETATM  115  C   UNK N   1      28.188  19.368   5.157  0.00  0.00     0.240 C 
HETATM  116  O   UNK N   1      28.472  20.264   4.381  0.00  0.00    -0.271 OA
HETATM  117  H   UNK N   1      29.789  18.258   4.635  0.00  0.00     0.163 HD
BRANCH 115 118
HETATM  118  C   UNK N   1      26.884  19.482   5.926  0.00  0.00     0.169 C 
BRANCH 118 119
HETATM  119  C   UNK N   1      25.794  20.182   5.113  0.00  0.00     0.038 C 
BRANCH 119 120
HETATM  120  C   UNK N   1      25.334  19.339   3.931  0.00  0.00    -0.020 C 
HETATM  121  C   UNK N   1      25.187  20.194   2.687  0.00  0.00     0.009 C 
HETATM  122  C   UNK N   1      24.005  18.688   4.254  0.00  0.00     0.009 C 
ENDBRANCH 119 120
ENDBRANCH 118 119
BRANCH 118 123
HETATM  123  N   UNK N   1      27.026  20.047   7.262  0.00  0.00    -0.413 N 
HETATM  124  C   UNK N   1      26.312  21.313   7.272  0.00  0.00     0.140 C 
HETATM  125  H   UNK N   1      27.531  19.630   8.044  0.00  0.00     0.153 HD
ENDBRANCH 118 123
ENDBRANCH 115 118
ENDBRANCH  25 114
BRANCH  47 126
HETATM  126  O   UNK N   1      27.570   9.596  -0.680  0.00  0.00    -0.360 OA
HETATM  127  H   UNK N   1      27.403  10.019  -1.499  0.00  0.00     0.217 HD
ENDBRANCH  47 126
BRANCH  43 128
HETATM  128  C   UNK N   1      33.358   5.851  -2.198  0.00  0.00     0.168 C 
HETATM  129  O   UNK N   1      33.777   5.972  -3.340  0.00  0.00    -0.648 OA
BRANCH 128 130
HETATM  130  O   UNK N   1      33.698   4.756  -1.492  0.00  0.00    -0.775 OA
HETATM  131  H   UNK N   1      33.172   4.427  -0.790  0.00  0.00     0.167 HD
ENDBRANCH 128 130
ENDBRANCH  43 128
BRANCH  57 132
HETATM  132  O   UNK N   1      27.815   8.307  -2.542  0.00  0.00    -0.359 OA
HETATM  133  H   UNK N   1      27.615   8.647  -3.393  0.00  0.00     0.217 HD
ENDBRANCH  57 132
BRANCH  54 134
HETATM  134  C   UNK N   1      27.163   5.772  -3.524  0.00  0.00     0.159 C 
BRANCH 134 135
HETATM  135  N   UNK N   1      27.350   5.564  -4.965  0.00  0.00    -0.407 N 
HETATM  136  H   UNK N   1      27.135   4.695  -5.452  0.00  0.00     0.154 HD
BRANCH 135 137
HETATM  137  C   UNK N   1      27.881   6.758  -5.611  0.00  0.00     0.239 C 
BRANCH 137 138
HETATM  138  P   UNK N   1      26.471   7.878  -6.075  0.00  0.00     0.253 P 
HETATM  139  O   UNK N   1      25.219   7.028  -6.407  0.00  0.00    -0.652 OA
BRANCH 138 140
HETATM  140  O   UNK N   1      25.938   8.938  -4.809  0.00  0.00    -0.328 OA
HETATM  141  H   UNK N   1      25.832   9.891  -4.666  0.00  0.00     0.220 HD
ENDBRANCH 138 140
BRANCH 138 142
HETATM  142  O   UNK N   1      26.687   8.841  -7.505  0.00  0.00    -0.328 OA
HETATM  143  H   UNK N   1      26.496   9.071  -8.428  0.00  0.00     0.220 HD
ENDBRANCH 138 142
ENDBRANCH 137 138
ENDBRANCH 135 137
ENDBRANCH 134 135
ENDBRANCH  54 134
BRANCH  56 144
HETATM  144  O   UNK N   1      29.089   3.794  -2.985  0.00  0.00    -0.360 OA
HETATM  145  H   UNK N   1      28.508   3.591  -3.691  0.00  0.00     0.217 HD
ENDBRANCH  56 144
TORSDOF 42
ENDMDL
MODEL 9
REMARK VINA RESULT:      -6.4      3.678     10.062
REMARK WARNING: 32 MAX_TORS EXCEEDED!!!
REMARK  42 active torsions:
REMARK  status: ('A' for Active; 'I' for Inactive)
REMARK    1  A    between atoms: C_1  and  C_2 
REMARK    2  A    between atoms: C_1  and  N_121 
REMARK    3  A    between atoms: C_2  and  N_3 
REMARK    4  A    between atoms: N_3  and  C_4 
REMARK    5  A    between atoms: C_4  and  C_5 
REMARK    6  A    between atoms: C_5  and  C_6 
REMARK    7  A    between atoms: C_6  and  C_7 
REMARK    8  A    between atoms: C_7  and  C_8 
REMARK    9  A    between atoms: C_8  and  C_9 
REMARK   10  A    between atoms: C_9  and  C_10 
REMARK   11  A    between atoms: C_10  and  C_11 
REMARK   12  A    between atoms: C_11  and  C_12 
REMARK   13  A    between atoms: O_57  and  C_14 
REMARK   14  A    between atoms: C_22  and  O_36 
REMARK   15  A    between atoms: C_23  and  O_38 
REMARK   16  A    between atoms: C_39  and  O_50 
REMARK   17  A    between atoms: C_40  and  O_57 
REMARK   18  A    between atoms: C_41  and  O_52 
REMARK   19  A    between atoms: C_43  and  N_121 
REMARK   20  A    between atoms: C_44  and  O_53 
REMARK   21  A    between atoms: C_45  and  O_50 
REMARK   22  A    between atoms: C_46  and  C_58 
REMARK   23  A    between atoms: C_49  and  O_54 
REMARK   24  A    between atoms: C_58  and  O_59 
REMARK   25  A    between atoms: C_61  and  N_76 
REMARK   26  A    between atoms: C_68  and  C_72 
REMARK   27  A    between atoms: C_72  and  C_73 
REMARK       I    between atoms: C_73  and  N_74 
REMARK       I    between atoms: C_77  and  N_76 
REMARK   28  A    between atoms: C_78  and  C_77 
REMARK   29  A    between atoms: C_80  and  C_78 
REMARK   30  A    between atoms: C_78  and  N_81 
REMARK   31  A    between atoms: C_82  and  C_80 
REMARK   32  A    between atoms: C_93  and  O_95 
REMARK   33  A    between atoms: C_96  and  C_93 
REMARK   34  A    between atoms: O_105  and  C_100 
REMARK   35  A    between atoms: C_108  and  C_114 
REMARK   36  A    between atoms: C_110  and  O_111 
REMARK   37  A    between atoms: C_112  and  O_113 
REMARK   38  A    between atoms: C_114  and  N_115 
REMARK   39  A    between atoms: N_115  and  C_116 
REMARK   40  A    between atoms: C_116  and  P_117 
REMARK   41  A    between atoms: P_117  and  O_118 
REMARK   42  A    between atoms: P_117  and  O_120 
ROOT
HETATM    1  C   UNK N   1      35.526  13.530   5.982  0.00  0.00     0.139 A 
HETATM    2  C   UNK N   1      34.358  14.253   6.294  0.00  0.00     0.113 A 
HETATM    3  C   UNK N   1      35.470  12.640   4.894  0.00  0.00     0.113 A 
HETATM    4  C   UNK N   1      33.103  13.048   4.563  0.00  0.00    -0.021 A 
HETATM    5  C   UNK N   1      34.278  12.394   4.248  0.00  0.00     0.050 A 
HETATM    6  C   UNK N   1      33.147  13.999   5.576  0.00  0.00     0.050 A 
HETATM    7  O   UNK N   1      34.407  15.213   7.270  0.00  0.00    -0.306 OA
HETATM    8  O   UNK N   1      36.592  12.031   4.474  0.00  0.00    -0.306 OA
HETATM    9  C   UNK N   1      36.010   8.481   0.502  0.00  0.00     0.183 C 
HETATM   10  C   UNK N   1      29.290  17.164   7.435  0.00  0.00     0.183 C 
HETATM   11  C   UNK N   1      36.679   9.496   1.297  0.00  0.00    -0.025 A 
HETATM   12  C   UNK N   1      30.765  17.033   7.499  0.00  0.00    -0.025 C 
HETATM   13  C   UNK N   1      36.697  11.264   3.390  0.00  0.00     0.098 A 
HETATM   14  C   UNK N   1      33.339  16.021   7.426  0.00  0.00     0.098 C 
HETATM   15  C   UNK N   1      36.390  11.739   2.104  0.00  0.00     0.068 A 
HETATM   16  C   UNK N   1      32.639  16.005   8.632  0.00  0.00     0.068 C 
HETATM   17  C   UNK N   1      31.334  16.491   8.657  0.00  0.00     0.036 C 
HETATM   18  C   UNK N   1      31.532  17.192   6.344  0.00  0.00     0.012 C 
HETATM   19  C   UNK N   1      37.093   9.064   2.546  0.00  0.00     0.012 A 
HETATM   20  C   UNK N   1      37.108   9.954   3.587  0.00  0.00     0.040 A 
HETATM   21  C   UNK N   1      32.820  16.698   6.311  0.00  0.00     0.040 C 
HETATM   22 Cl   UNK N   1      33.281  15.172  10.034  0.00  0.00    -0.081 Cl
HETATM   23 Cl   UNK N   1      35.959  13.416   1.790  0.00  0.00    -0.081 Cl
HETATM   24  C   UNK N   1      36.354  10.838   1.059  0.00  0.00     0.036 A 
HETATM   25  C   UNK N   1      28.660  17.045   6.035  0.00  0.00     0.210 C 
HETATM   26  N   UNK N   1      30.631  13.395   3.851  0.00  0.00    -0.342 N 
HETATM   27  C   UNK N   1      27.838  15.825   5.702  0.00  0.00     0.244 C 
HETATM   28  C   UNK N   1      32.424  12.756   2.241  0.00  0.00     0.246 C 
HETATM   29  N   UNK N   1      28.083  15.008   4.642  0.00  0.00    -0.345 N 
HETATM   30  C   UNK N   1      31.920  12.720   3.672  0.00  0.00     0.210 C 
HETATM   31  C   UNK N   1      30.398  14.731   3.724  0.00  0.00     0.241 C 
HETATM   32  C   UNK N   1      28.988  15.255   3.539  0.00  0.00     0.185 C 
HETATM   33  O   UNK N   1      26.927  15.534   6.458  0.00  0.00    -0.271 OA
HETATM   34  O   UNK N   1      32.672  13.828   1.713  0.00  0.00    -0.271 OA
HETATM   35  O   UNK N   1      31.329  15.513   3.623  0.00  0.00    -0.271 OA
HETATM   36  C   UNK N   1      34.515   8.640   0.858  0.00  0.00     0.210 C 
HETATM   37  N   UNK N   1      32.786  11.604   1.613  0.00  0.00    -0.342 N 
HETATM   38  C   UNK N   1      32.333  10.316   2.083  0.00  0.00     0.210 C 
HETATM   39  O   UNK N   1      33.793   6.436   0.708  0.00  0.00    -0.271 OA
HETATM   40  N   UNK N   1      34.226   8.637   2.276  0.00  0.00    -0.343 N 
HETATM   41  C   UNK N   1      33.266   9.399   2.859  0.00  0.00     0.245 C 
HETATM   42  O   UNK N   1      33.126   9.333   4.070  0.00  0.00    -0.271 OA
HETATM   43  C   UNK N   1      32.725   6.798  -1.744  0.00  0.00     0.217 C 
HETATM   44  N   UNK N   1      33.260   7.829  -0.959  0.00  0.00    -0.341 N 
HETATM   45  C   UNK N   1      33.807   7.563   0.227  0.00  0.00     0.244 C 
HETATM   46  C   UNK N   1      30.162   8.749  -0.699  0.00  0.00     0.011 A 
HETATM   47  C   UNK N   1      28.997   9.578  -0.436  0.00  0.00     0.076 A 
HETATM   48  C   UNK N   1      31.172   9.887   1.263  0.00  0.00    -0.025 A 
HETATM   49  C   UNK N   1      31.231   8.947   0.212  0.00  0.00     0.025 A 
HETATM   50  C   UNK N   1      28.974  10.497   0.602  0.00  0.00     0.038 A 
HETATM   51  C   UNK N   1      30.042  10.654   1.434  0.00  0.00     0.012 A 
HETATM   52  C   UNK N   1      31.237   6.524  -1.764  0.00  0.00    -0.009 C 
HETATM   53  C   UNK N   1      30.966   5.271  -2.303  0.00  0.00     0.048 C 
HETATM   54  C   UNK N   1      28.886   5.998  -3.159  0.00  0.00     0.026 C 
HETATM   55  C   UNK N   1      30.188   7.532  -1.706  0.00  0.00     0.020 C 
HETATM   56  C   UNK N   1      29.785   4.977  -2.916  0.00  0.00     0.076 C 
HETATM   57  C   UNK N   1      29.089   7.271  -2.591  0.00  0.00     0.088 C 
HETATM   58  H   UNK N   1      29.861  12.828   4.084  0.00  0.00     0.163 HD
HETATM   59  H   UNK N   1      27.591  14.154   4.624  0.00  0.00     0.163 HD
HETATM   60  H   UNK N   1      33.370  11.650   0.822  0.00  0.00     0.163 HD
HETATM   61  H   UNK N   1      34.760   8.045   2.854  0.00  0.00     0.163 HD
HETATM   62  H   UNK N   1      33.230   8.757  -1.286  0.00  0.00     0.163 HD
ENDROOT
BRANCH   1  63
HETATM   63  O   UNK N   1      36.652  13.711   6.724  0.00  0.00    -0.312 OA
BRANCH  63  64
HETATM   64  C   UNK N   1      37.752  12.857   6.802  0.00  0.00     0.298 C 
HETATM   65  C   UNK N   1      37.897  12.393   8.266  0.00  0.00     0.211 C 
HETATM   66  C   UNK N   1      39.245  11.758   8.593  0.00  0.00     0.183 C 
HETATM   67  C   UNK N   1      40.368  12.531   7.939  0.00  0.00     0.180 C 
HETATM   68  C   UNK N   1      40.085  12.650   6.421  0.00  0.00     0.179 C 
HETATM   69  O   UNK N   1      38.904  13.401   6.172  0.00  0.00    -0.348 OA
BRANCH  65  70
HETATM   70  O   UNK N   1      36.796  11.564   8.621  0.00  0.00    -0.348 OA
BRANCH  70  71
HETATM   71  C   UNK N   1      36.122  12.111   9.746  0.00  0.00     0.263 C 
HETATM   72  C   UNK N   1      35.580  11.031  10.710  0.00  0.00     0.093 C 
HETATM   73  C   UNK N   1      35.862  11.413  12.193  0.00  0.00     0.054 C 
HETATM   74  C   UNK N   1      34.937  10.619  13.117  0.00  0.00     0.041 C 
HETATM   75  C   UNK N   1      35.633  12.944  12.437  0.00  0.00     0.174 C 
HETATM   76  C   UNK N   1      36.009  13.751  11.196  0.00  0.00     0.151 C 
HETATM   77  O   UNK N   1      36.927  13.026  10.455  0.00  0.00    -0.354 OA
HETATM   78  C   UNK N   1      36.510  15.149  11.493  0.00  0.00     0.042 C 
BRANCH  73  79
HETATM   79  N   UNK N   1      37.284  11.133  12.488  0.00  0.00    -0.409 N 
HETATM   80  H   UNK N   1      37.939  11.849  12.801  0.00  0.00     0.154 HD
BRANCH  79  81
HETATM   81  C   UNK N   1      37.669   9.729  12.289  0.00  0.00     0.134 C 
BRANCH  81  82
HETATM   82  C   UNK N   1      38.391   9.158  13.502  0.00  0.00     0.133 C 
BRANCH  82  83
HETATM   83  N   UNK N   1      37.459   8.451  14.367  0.00  0.00    -0.420 N 
HETATM   84  H   UNK N   1      36.722   7.813  14.067  0.00  0.00     0.153 HD
BRANCH  83  85
HETATM   85  C   UNK N   1      37.772   8.819  15.739  0.00  0.00     0.113 C 
BRANCH  85  86
HETATM   86  C   UNK N   1      36.862   9.953  16.184  0.00  0.00     0.019 C 
BRANCH  86  87
HETATM   87  C   UNK N   1      35.500   9.427  16.602  0.00  0.00     0.002 C 
BRANCH  87  88
HETATM   88  C   UNK N   1      35.467   9.171  18.102  0.00  0.00     0.000 C 
BRANCH  88  89
HETATM   89  C   UNK N   1      36.207  10.281  18.832  0.00  0.00     0.000 C 
BRANCH  89  90
HETATM   90  C   UNK N   1      35.334  10.858  19.931  0.00  0.00     0.000 C 
BRANCH  90  91
HETATM   91  C   UNK N   1      34.988  12.311  19.646  0.00  0.00     0.000 C 
BRANCH  91  92
HETATM   92  C   UNK N   1      35.757  12.796  18.431  0.00  0.00    -0.000 C 
BRANCH  92  93
HETATM   93  C   UNK N   1      34.894  13.705  17.579  0.00  0.00    -0.005 C 
HETATM   94  C   UNK N   1      34.544  12.995  16.288  0.00  0.00     0.005 C 
ENDBRANCH  92  93
ENDBRANCH  91  92
ENDBRANCH  90  91
ENDBRANCH  89  90
ENDBRANCH  88  89
ENDBRANCH  87  88
ENDBRANCH  86  87
ENDBRANCH  85  86
ENDBRANCH  83  85
ENDBRANCH  82  83
ENDBRANCH  81  82
ENDBRANCH  79  81
ENDBRANCH  73  79
BRANCH  75  95
HETATM   95  O   UNK N   1      34.307  13.250  12.751  0.00  0.00    -0.391 OA
HETATM   96  H   UNK N   1      33.953  13.361  13.646  0.00  0.00     0.210 HD
ENDBRANCH  75  95
ENDBRANCH  70  71
ENDBRANCH  65  70
BRANCH  66  97
HETATM   97  O   UNK N   1      39.421  11.734   9.979  0.00  0.00    -0.390 OA
HETATM   98  H   UNK N   1      39.413  11.476  10.914  0.00  0.00     0.210 HD
ENDBRANCH  66  97
BRANCH  67  99
HETATM   99  O   UNK N   1      41.569  11.863   8.191  0.00  0.00    -0.390 OA
HETATM  100  H   UNK N   1      42.428  12.292   8.052  0.00  0.00     0.210 HD
ENDBRANCH  67  99
BRANCH  68 101
HETATM  101  C   UNK N   1      41.212  13.401   5.695  0.00  0.00     0.198 C 
BRANCH 101 102
HETATM  102  O   UNK N   1      41.732  14.462   6.439  0.00  0.00    -0.398 OA
HETATM  103  H   UNK N   1      42.290  14.312   7.217  0.00  0.00     0.209 HD
ENDBRANCH 101 102
ENDBRANCH  68 101
ENDBRANCH  63  64
ENDBRANCH   1  63
BRANCH  10 104
HETATM  104  O   UNK N   1      28.809  18.206   8.216  0.00  0.00    -0.388 OA
HETATM  105  H   UNK N   1      28.675  18.081   9.168  0.00  0.00     0.210 HD
ENDBRANCH  10 104
BRANCH  32 106
HETATM  106  C   UNK N   1      28.389  14.679   2.235  0.00  0.00     0.137 C 
BRANCH 106 107
HETATM  107  C   UNK N   1      27.324  13.618   2.416  0.00  0.00     0.217 C 
HETATM  108  O   UNK N   1      27.587  12.599   3.033  0.00  0.00    -0.274 OA
HETATM  109  N   UNK N   1      26.089  13.783   1.901  0.00  0.00    -0.370 N 
HETATM  110  H   UNK N   1      25.598  13.927   1.060  0.00  0.00     0.159 HD
HETATM  111  H   UNK N   1      25.439  13.744   2.639  0.00  0.00     0.159 HD
ENDBRANCH 106 107
ENDBRANCH  32 106
BRANCH   9 112
HETATM  112  O   UNK N   1      36.226   8.699  -0.862  0.00  0.00    -0.388 OA
HETATM  113  H   UNK N   1      36.432   9.270  -1.619  0.00  0.00     0.210 HD
ENDBRANCH   9 112
BRANCH  25 114
HETATM  114  N   UNK N   1      28.836  18.116   5.078  0.00  0.00    -0.343 N 
HETATM  115  C   UNK N   1      28.024  19.204   4.966  0.00  0.00     0.240 C 
HETATM  116  O   UNK N   1      28.358  20.106   4.217  0.00  0.00    -0.271 OA
HETATM  117  H   UNK N   1      29.601  18.053   4.460  0.00  0.00     0.163 HD
BRANCH 115 118
HETATM  118  C   UNK N   1      26.704  19.346   5.704  0.00  0.00     0.169 C 
BRANCH 118 119
HETATM  119  C   UNK N   1      25.616  19.963   4.826  0.00  0.00     0.038 C 
BRANCH 119 120
HETATM  120  C   UNK N   1      24.511  18.965   4.500  0.00  0.00    -0.020 C 
HETATM  121  C   UNK N   1      25.091  17.706   3.886  0.00  0.00     0.009 C 
HETATM  122  C   UNK N   1      23.526  19.590   3.535  0.00  0.00     0.009 C 
ENDBRANCH 119 120
ENDBRANCH 118 119
BRANCH 118 123
HETATM  123  N   UNK N   1      26.812  20.006   6.998  0.00  0.00    -0.413 N 
HETATM  124  C   UNK N   1      26.406  21.389   6.809  0.00  0.00     0.140 C 
HETATM  125  H   UNK N   1      27.115  19.578   7.873  0.00  0.00     0.153 HD
ENDBRANCH 118 123
ENDBRANCH 115 118
ENDBRANCH  25 114
BRANCH  47 126
HETATM  126  O   UNK N   1      27.853   9.487  -1.092  0.00  0.00    -0.360 OA
HETATM  127  H   UNK N   1      27.608  10.143  -1.715  0.00  0.00     0.217 HD
ENDBRANCH  47 126
BRANCH  43 128
HETATM  128  C   UNK N   1      33.761   5.804  -2.259  0.00  0.00     0.168 C 
HETATM  129  O   UNK N   1      33.847   4.689  -1.768  0.00  0.00    -0.648 OA
BRANCH 128 130
HETATM  130  O   UNK N   1      34.664   6.179  -3.185  0.00  0.00    -0.775 OA
HETATM  131  H   UNK N   1      34.591   6.982  -3.661  0.00  0.00     0.167 HD
ENDBRANCH 128 130
ENDBRANCH  43 128
BRANCH  57 132
HETATM  132  O   UNK N   1      28.236   8.229  -2.952  0.00  0.00    -0.359 OA
HETATM  133  H   UNK N   1      27.666   8.731  -2.402  0.00  0.00     0.217 HD
ENDBRANCH  57 132
BRANCH  54 134
HETATM  134  C   UNK N   1      27.675   5.706  -4.016  0.00  0.00     0.159 C 
BRANCH 134 135
HETATM  135  N   UNK N   1      27.884   5.891  -5.456  0.00  0.00    -0.407 N 
HETATM  136  H   UNK N   1      28.796   5.875  -5.911  0.00  0.00     0.154 HD
BRANCH 135 137
HETATM  137  C   UNK N   1      26.622   6.100  -6.156  0.00  0.00     0.239 C 
BRANCH 137 138
HETATM  138  P   UNK N   1      26.344   7.926  -6.378  0.00  0.00     0.253 P 
HETATM  139  O   UNK N   1      24.910   8.292  -5.923  0.00  0.00    -0.652 OA
BRANCH 138 140
HETATM  140  O   UNK N   1      27.366   8.939  -5.409  0.00  0.00    -0.328 OA
HETATM  141  H   UNK N   1      27.493   9.887  -5.248  0.00  0.00     0.220 HD
ENDBRANCH 138 140
BRANCH 138 142
HETATM  142  O   UNK N   1      26.409   8.524  -8.008  0.00  0.00    -0.328 OA
HETATM  143  H   UNK N   1      26.148   8.513  -8.942  0.00  0.00     0.220 HD
ENDBRANCH 138 142
ENDBRANCH 137 138
ENDBRANCH 135 137
ENDBRANCH 134 135
ENDBRANCH  54 134
BRANCH  56 144
HETATM  144  O   UNK N   1      29.573   3.732  -3.374  0.00  0.00    -0.360 OA
HETATM  145  H   UNK N   1      29.154   3.060  -2.874  0.00  0.00     0.217 HD
ENDBRANCH  56 144
TORSDOF 42
ENDMDL
