MODEL 1
REMARK VINA RESULT:      -8.8      0.000      0.000
REMARK  7 active torsions:
REMARK  status: ('A' for Active; 'I' for Inactive)
REMARK    1  A    between atoms: C_5  and  O_6 
REMARK    2  A    between atoms: C_7  and  C_25 
REMARK    3  A    between atoms: C_10  and  C_11 
REMARK    4  A    between atoms: C_11  and  N_14 
REMARK       I    between atoms: N_14  and  C_15 
REMARK    5  A    between atoms: C_15  and  C_17 
REMARK       I    between atoms: C_25  and  N_27 
REMARK    6  A    between atoms: N_27  and  C_28 
REMARK    7  A    between atoms: C_28  and  C_29 
ROOT
HETATM    1  C   UNK N   1      19.622  17.518   3.488  0.00  0.00     0.161 C 
HETATM    2  N   UNK N   1      20.888  18.242   3.447  0.00  0.00    -0.304 N 
HETATM    3  C   UNK N   1      20.894  19.546   2.987  0.00  0.00     0.284 A 
HETATM    4  O   UNK N   1      19.858  20.075   2.613  0.00  0.00    -0.265 OA
HETATM    5  C   UNK N   1      22.084  20.279   2.965  0.00  0.00     0.167 A 
HETATM    6  C   UNK N   1      23.265  19.652   3.387  0.00  0.00     0.141 A 
HETATM    7  N   UNK N   1      23.207  18.387   3.848  0.00  0.00    -0.337 N 
ATOM      8  HN  UNK N   1      24.070  17.945   4.164  1.00  0.00     0.167 HD
HETATM    9  C   UNK N   1      22.055  17.674   3.911  0.00  0.00     0.115 A 
ENDROOT
BRANCH   9  10
HETATM   10  C   UNK N   1      22.095  16.331   4.635  0.00  0.00     0.085 C 
HETATM   11  C   UNK N   1      21.866  15.205   3.634  0.00  0.00     0.046 C 
HETATM   12  C   UNK N   1      23.506  16.076   5.161  0.00  0.00     0.046 C 
BRANCH  10  13
HETATM   13  N   UNK N   1      21.060  16.131   5.638  0.00  0.00    -0.338 N 
HETATM   14  C   UNK N   1      21.004  16.766   6.835  0.00  0.00     0.295 C 
HETATM   15  O   UNK N   1      21.361  17.928   6.949  0.00  0.00    -0.264 OA
HETATM   16  H   UNK N   1      20.348  15.482   5.433  0.00  0.00     0.164 HD
BRANCH  14  17
HETATM   17  C   UNK N   1      20.788  15.960   8.038  0.00  0.00     0.233 A 
HETATM   18  N   UNK N   1      19.631  15.927   8.730  0.00  0.00    -0.273 N 
HETATM   19  N   UNK N   1      19.733  14.925   9.590  0.00  0.00    -0.281 N 
ATOM     20  HN  UNK N   1      18.833  16.551   8.613  1.00  0.00     0.189 HD
HETATM   21  C   UNK N   1      20.943  14.371   9.388  0.00  0.00     0.136 A 
ATOM     22  HN  UNK N   1      19.033  14.631  10.270  1.00  0.00     0.189 HD
HETATM   23  C   UNK N   1      21.446  13.167  10.098  0.00  0.00     0.099 C 
HETATM   24  O   UNK N   1      21.586  14.999   8.436  0.00  0.00    -0.274 OA
ENDBRANCH  14  17
ENDBRANCH  10  13
ENDBRANCH   9  10
BRANCH   6  25
HETATM   25  C   UNK N   1      24.576  20.319   3.367  0.00  0.00     0.271 C 
HETATM   26  O   UNK N   1      24.911  20.961   2.385  0.00  0.00    -0.266 OA
HETATM   27  N   UNK N   1      25.398  20.193   4.457  0.00  0.00    -0.351 N 
HETATM   28  H   UNK N   1      25.035  19.670   5.209  0.00  0.00     0.163 HD
BRANCH  27  29
HETATM   29  C   UNK N   1      26.741  20.732   4.648  0.00  0.00     0.161 C 
BRANCH  29  30
HETATM   30  C   UNK N   1      27.627  19.860   5.463  0.00  0.00    -0.040 A 
HETATM   31  C   UNK N   1      27.615  19.949   6.861  0.00  0.00     0.012 A 
HETATM   32  C   UNK N   1      28.307  19.006   7.622  0.00  0.00     0.043 A 
HETATM   33  C   UNK N   1      29.009  17.976   6.987  0.00  0.00     0.116 A 
HETATM   34  F   UNK N   1      29.646  17.037   7.723  0.00  0.00    -0.206 F 
HETATM   35  C   UNK N   1      29.043  17.906   5.591  0.00  0.00     0.043 A 
HETATM   36  C   UNK N   1      28.347  18.845   4.829  0.00  0.00     0.012 A 
ENDBRANCH  29  30
ENDBRANCH  27  29
ENDBRANCH   6  25
BRANCH   5  37
HETATM   37  O   UNK N   1      22.087  21.554   2.532  0.00  0.00    -0.354 OA
HETATM   38  H   UNK N   1      21.876  22.257   3.114  0.00  0.00     0.218 HD
ENDBRANCH   5  37
TORSDOF 7
ENDMDL
MODEL 2
REMARK VINA RESULT:      -8.0      9.134     12.709
REMARK  7 active torsions:
REMARK  status: ('A' for Active; 'I' for Inactive)
REMARK    1  A    between atoms: C_5  and  O_6 
REMARK    2  A    between atoms: C_7  and  C_25 
REMARK    3  A    between atoms: C_10  and  C_11 
REMARK    4  A    between atoms: C_11  and  N_14 
REMARK       I    between atoms: N_14  and  C_15 
REMARK    5  A    between atoms: C_15  and  C_17 
REMARK       I    between atoms: C_25  and  N_27 
REMARK    6  A    between atoms: N_27  and  C_28 
REMARK    7  A    between atoms: C_28  and  C_29 
ROOT
HETATM    1  C   UNK N   1      31.999  14.804   6.816  0.00  0.00     0.161 C 
HETATM    2  N   UNK N   1      32.815  14.839   8.025  0.00  0.00    -0.304 N 
HETATM    3  C   UNK N   1      33.283  13.647   8.546  0.00  0.00     0.284 A 
HETATM    4  O   UNK N   1      33.009  12.586   8.006  0.00  0.00    -0.265 OA
HETATM    5  C   UNK N   1      34.093  13.647   9.684  0.00  0.00     0.167 A 
HETATM    6  C   UNK N   1      34.389  14.873  10.297  0.00  0.00     0.141 A 
HETATM    7  N   UNK N   1      33.928  16.012   9.741  0.00  0.00    -0.337 N 
ATOM      8  HN  UNK N   1      34.159  16.899  10.189  1.00  0.00     0.167 HD
HETATM    9  C   UNK N   1      33.172  16.032   8.615  0.00  0.00     0.115 A 
ENDROOT
BRANCH   9  10
HETATM   10  C   UNK N   1      32.885  17.391   7.984  0.00  0.00     0.085 C 
HETATM   11  C   UNK N   1      34.073  18.319   8.211  0.00  0.00     0.046 C 
HETATM   12  C   UNK N   1      32.817  17.246   6.465  0.00  0.00     0.046 C 
BRANCH  10  13
HETATM   13  N   UNK N   1      31.755  18.116   8.545  0.00  0.00    -0.338 N 
HETATM   14  C   UNK N   1      30.600  17.546   8.970  0.00  0.00     0.295 C 
HETATM   15  O   UNK N   1      30.598  16.452   9.511  0.00  0.00    -0.264 OA
HETATM   16  H   UNK N   1      31.835  19.095   8.621  0.00  0.00     0.164 HD
BRANCH  14  17
HETATM   17  C   UNK N   1      29.334  18.124   8.513  0.00  0.00     0.233 A 
HETATM   18  N   UNK N   1      28.284  18.380   9.319  0.00  0.00    -0.273 N 
HETATM   19  N   UNK N   1      27.433  19.107   8.612  0.00  0.00    -0.281 N 
ATOM     20  HN  UNK N   1      28.168  18.074  10.285  1.00  0.00     0.189 HD
HETATM   21  C   UNK N   1      27.995  19.282   7.402  0.00  0.00     0.136 A 
ATOM     22  HN  UNK N   1      26.530  19.465   8.923  1.00  0.00     0.189 HD
HETATM   23  C   UNK N   1      27.406  20.101   6.310  0.00  0.00     0.099 C 
HETATM   24  O   UNK N   1      29.160  18.687   7.342  0.00  0.00    -0.274 OA
ENDBRANCH  14  17
ENDBRANCH  10  13
ENDBRANCH   9  10
BRANCH   6  25
HETATM   25  C   UNK N   1      35.199  14.981  11.520  0.00  0.00     0.271 C 
HETATM   26  O   UNK N   1      35.958  15.926  11.659  0.00  0.00    -0.266 OA
HETATM   27  N   UNK N   1      35.088  14.003  12.474  0.00  0.00    -0.351 N 
HETATM   28  H   UNK N   1      34.438  13.289  12.282  0.00  0.00     0.163 HD
BRANCH  27  29
HETATM   29  C   UNK N   1      35.808  13.883  13.739  0.00  0.00     0.161 C 
BRANCH  29  30
HETATM   30  C   UNK N   1      35.265  12.834  14.641  0.00  0.00    -0.040 A 
HETATM   31  C   UNK N   1      34.519  11.769  14.117  0.00  0.00     0.012 A 
HETATM   32  C   UNK N   1      34.171  10.696  14.940  0.00  0.00     0.043 A 
HETATM   33  C   UNK N   1      34.569  10.688  16.281  0.00  0.00     0.116 A 
HETATM   34  F   UNK N   1      34.268   9.630  17.069  0.00  0.00    -0.206 F 
HETATM   35  C   UNK N   1      35.288  11.765  16.807  0.00  0.00     0.043 A 
HETATM   36  C   UNK N   1      35.641  12.835  15.985  0.00  0.00     0.012 A 
ENDBRANCH  29  30
ENDBRANCH  27  29
ENDBRANCH   6  25
BRANCH   5  37
HETATM   37  O   UNK N   1      34.563  12.487  10.182  0.00  0.00    -0.354 OA
HETATM   38  H   UNK N   1      34.293  11.667   9.818  0.00  0.00     0.218 HD
ENDBRANCH   5  37
TORSDOF 7
ENDMDL
MODEL 3
REMARK VINA RESULT:      -7.9      2.355      3.950
REMARK  7 active torsions:
REMARK  status: ('A' for Active; 'I' for Inactive)
REMARK    1  A    between atoms: C_5  and  O_6 
REMARK    2  A    between atoms: C_7  and  C_25 
REMARK    3  A    between atoms: C_10  and  C_11 
REMARK    4  A    between atoms: C_11  and  N_14 
REMARK       I    between atoms: N_14  and  C_15 
REMARK    5  A    between atoms: C_15  and  C_17 
REMARK       I    between atoms: C_25  and  N_27 
REMARK    6  A    between atoms: N_27  and  C_28 
REMARK    7  A    between atoms: C_28  and  C_29 
ROOT
HETATM    1  C   UNK N   1      19.552  17.314   3.777  0.00  0.00     0.161 C 
HETATM    2  N   UNK N   1      20.799  18.065   3.667  0.00  0.00    -0.304 N 
HETATM    3  C   UNK N   1      20.759  19.347   3.151  0.00  0.00     0.284 A 
HETATM    4  O   UNK N   1      19.700  19.834   2.785  0.00  0.00    -0.265 OA
HETATM    5  C   UNK N   1      21.929  20.106   3.063  0.00  0.00     0.167 A 
HETATM    6  C   UNK N   1      23.137  19.526   3.477  0.00  0.00     0.141 A 
HETATM    7  N   UNK N   1      23.124  18.282   3.994  0.00  0.00    -0.337 N 
ATOM      8  HN  UNK N   1      24.006  17.875   4.304  1.00  0.00     0.167 HD
HETATM    9  C   UNK N   1      21.992  17.545   4.122  0.00  0.00     0.115 A 
ENDROOT
BRANCH   9  10
HETATM   10  C   UNK N   1      22.086  16.238   4.902  0.00  0.00     0.085 C 
HETATM   11  C   UNK N   1      23.473  16.112   5.521  0.00  0.00     0.046 C 
HETATM   12  C   UNK N   1      21.148  16.292   6.107  0.00  0.00     0.046 C 
BRANCH  10  13
HETATM   13  N   UNK N   1      21.939  15.025   4.111  0.00  0.00    -0.338 N 
HETATM   14  C   UNK N   1      22.439  14.846   2.863  0.00  0.00     0.295 C 
HETATM   15  O   UNK N   1      23.512  15.331   2.538  0.00  0.00    -0.264 OA
HETATM   16  H   UNK N   1      21.436  14.279   4.511  0.00  0.00     0.164 HD
BRANCH  14  17
HETATM   17  C   UNK N   1      21.548  14.315   1.829  0.00  0.00     0.233 A 
HETATM   18  N   UNK N   1      21.783  13.182   1.136  0.00  0.00    -0.273 N 
HETATM   19  N   UNK N   1      20.667  12.902   0.482  0.00  0.00    -0.281 N 
ATOM     20  HN  UNK N   1      22.650  12.646   1.119  1.00  0.00     0.189 HD
HETATM   21  C   UNK N   1      19.783  13.864   0.804  0.00  0.00     0.136 A 
ATOM     22  HN  UNK N   1      20.507  12.112  -0.143  1.00  0.00     0.189 HD
HETATM   23  C   UNK N   1      18.371  13.900   0.342  0.00  0.00     0.099 C 
HETATM   24  O   UNK N   1      20.318  14.725   1.633  0.00  0.00    -0.274 OA
ENDBRANCH  14  17
ENDBRANCH  10  13
ENDBRANCH   9  10
BRANCH   6  25
HETATM   25  C   UNK N   1      24.429  20.223   3.390  0.00  0.00     0.271 C 
HETATM   26  O   UNK N   1      24.658  20.954   2.440  0.00  0.00    -0.266 OA
HETATM   27  N   UNK N   1      25.355  20.023   4.381  0.00  0.00    -0.351 N 
HETATM   28  H   UNK N   1      25.076  19.430   5.115  0.00  0.00     0.163 HD
BRANCH  27  29
HETATM   29  C   UNK N   1      26.703  20.575   4.488  0.00  0.00     0.161 C 
BRANCH  29  30
HETATM   30  C   UNK N   1      27.607  19.784   5.365  0.00  0.00    -0.040 A 
HETATM   31  C   UNK N   1      27.580  19.965   6.754  0.00  0.00     0.012 A 
HETATM   32  C   UNK N   1      28.292  19.094   7.580  0.00  0.00     0.043 A 
HETATM   33  C   UNK N   1      29.028  18.046   7.019  0.00  0.00     0.116 A 
HETATM   34  F   UNK N   1      29.686  17.176   7.820  0.00  0.00    -0.206 F 
HETATM   35  C   UNK N   1      29.076  17.885   5.630  0.00  0.00     0.043 A 
HETATM   36  C   UNK N   1      28.360  18.751   4.804  0.00  0.00     0.012 A 
ENDBRANCH  29  30
ENDBRANCH  27  29
ENDBRANCH   6  25
BRANCH   5  37
HETATM   37  O   UNK N   1      21.888  21.360   2.574  0.00  0.00    -0.354 OA
HETATM   38  H   UNK N   1      21.289  21.587   1.890  0.00  0.00     0.218 HD
ENDBRANCH   5  37
TORSDOF 7
ENDMDL
MODEL 4
REMARK VINA RESULT:      -7.8      2.578      4.188
REMARK  7 active torsions:
REMARK  status: ('A' for Active; 'I' for Inactive)
REMARK    1  A    between atoms: C_5  and  O_6 
REMARK    2  A    between atoms: C_7  and  C_25 
REMARK    3  A    between atoms: C_10  and  C_11 
REMARK    4  A    between atoms: C_11  and  N_14 
REMARK       I    between atoms: N_14  and  C_15 
REMARK    5  A    between atoms: C_15  and  C_17 
REMARK       I    between atoms: C_25  and  N_27 
REMARK    6  A    between atoms: N_27  and  C_28 
REMARK    7  A    between atoms: C_28  and  C_29 
ROOT
HETATM    1  C   UNK N   1      20.613  19.310   3.560  0.00  0.00     0.161 C 
HETATM    2  N   UNK N   1      22.070  19.270   3.618  0.00  0.00    -0.304 N 
HETATM    3  C   UNK N   1      22.788  20.285   3.014  0.00  0.00     0.284 A 
HETATM    4  O   UNK N   1      22.209  21.191   2.434  0.00  0.00    -0.265 OA
HETATM    5  C   UNK N   1      24.184  20.294   3.079  0.00  0.00     0.167 A 
HETATM    6  C   UNK N   1      24.831  19.240   3.739  0.00  0.00     0.141 A 
HETATM    7  N   UNK N   1      24.089  18.284   4.332  0.00  0.00    -0.337 N 
ATOM      8  HN  UNK N   1      24.571  17.528   4.820  1.00  0.00     0.167 HD
HETATM    9  C   UNK N   1      22.733  18.280   4.311  0.00  0.00     0.115 A 
ENDROOT
BRANCH   9  10
HETATM   10  C   UNK N   1      22.018  17.255   5.186  0.00  0.00     0.085 C 
HETATM   11  C   UNK N   1      23.046  16.448   5.971  0.00  0.00     0.046 C 
HETATM   12  C   UNK N   1      21.213  17.976   6.265  0.00  0.00     0.046 C 
BRANCH  10  13
HETATM   13  N   UNK N   1      21.249  16.248   4.469  0.00  0.00    -0.338 N 
HETATM   14  C   UNK N   1      21.557  15.765   3.240  0.00  0.00     0.295 C 
HETATM   15  O   UNK N   1      22.718  15.607   2.896  0.00  0.00    -0.264 OA
HETATM   16  H   UNK N   1      20.443  15.892   4.909  0.00  0.00     0.164 HD
BRANCH  14  17
HETATM   17  C   UNK N   1      20.496  15.710   2.232  0.00  0.00     0.233 A 
HETATM   18  N   UNK N   1      20.278  16.668   1.308  0.00  0.00    -0.273 N 
HETATM   19  N   UNK N   1      19.413  16.166   0.440  0.00  0.00    -0.281 N 
ATOM     20  HN  UNK N   1      20.699  17.597   1.282  1.00  0.00     0.189 HD
HETATM   21  C   UNK N   1      19.139  14.916   0.854  0.00  0.00     0.136 A 
ATOM     22  HN  UNK N   1      19.031  16.635  -0.381  1.00  0.00     0.189 HD
HETATM   23  C   UNK N   1      18.259  13.963   0.129  0.00  0.00     0.099 C 
HETATM   24  O   UNK N   1      19.805  14.633   1.946  0.00  0.00    -0.274 OA
ENDBRANCH  14  17
ENDBRANCH  10  13
ENDBRANCH   9  10
BRANCH   6  25
HETATM   25  C   UNK N   1      26.295  19.134   3.831  0.00  0.00     0.271 C 
HETATM   26  O   UNK N   1      26.996  19.978   3.299  0.00  0.00    -0.266 OA
HETATM   27  N   UNK N   1      26.839  18.073   4.509  0.00  0.00    -0.351 N 
HETATM   28  H   UNK N   1      26.195  17.452   4.919  0.00  0.00     0.163 HD
BRANCH  27  29
HETATM   29  C   UNK N   1      28.249  17.745   4.701  0.00  0.00     0.161 C 
BRANCH  29  30
HETATM   30  C   UNK N   1      28.746  18.017   6.075  0.00  0.00    -0.040 A 
HETATM   31  C   UNK N   1      27.998  18.814   6.952  0.00  0.00     0.012 A 
HETATM   32  C   UNK N   1      28.376  18.913   8.292  0.00  0.00     0.043 A 
HETATM   33  C   UNK N   1      29.497  18.216   8.753  0.00  0.00     0.116 A 
HETATM   34  F   UNK N   1      29.842  18.278  10.061  0.00  0.00    -0.206 F 
HETATM   35  C   UNK N   1      30.258  17.444   7.870  0.00  0.00     0.043 A 
HETATM   36  C   UNK N   1      29.878  17.340   6.532  0.00  0.00     0.012 A 
ENDBRANCH  29  30
ENDBRANCH  27  29
ENDBRANCH   6  25
BRANCH   5  37
HETATM   37  O   UNK N   1      24.882  21.292   2.503  0.00  0.00    -0.354 OA
HETATM   38  H   UNK N   1      25.794  21.188   2.312  0.00  0.00     0.218 HD
ENDBRANCH   5  37
TORSDOF 7
ENDMDL
MODEL 5
REMARK VINA RESULT:      -7.7      3.319      7.049
REMARK  7 active torsions:
REMARK  status: ('A' for Active; 'I' for Inactive)
REMARK    1  A    between atoms: C_5  and  O_6 
REMARK    2  A    between atoms: C_7  and  C_25 
REMARK    3  A    between atoms: C_10  and  C_11 
REMARK    4  A    between atoms: C_11  and  N_14 
REMARK       I    between atoms: N_14  and  C_15 
REMARK    5  A    between atoms: C_15  and  C_17 
REMARK       I    between atoms: C_25  and  N_27 
REMARK    6  A    between atoms: N_27  and  C_28 
REMARK    7  A    between atoms: C_28  and  C_29 
ROOT
HETATM    1  C   UNK N   1      26.574  20.251   3.440  0.00  0.00     0.161 C 
HETATM    2  N   UNK N   1      25.328  19.637   3.887  0.00  0.00    -0.304 N 
HETATM    3  C   UNK N   1      24.133  20.119   3.386  0.00  0.00     0.284 A 
HETATM    4  O   UNK N   1      24.124  21.049   2.593  0.00  0.00    -0.265 OA
HETATM    5  C   UNK N   1      22.923  19.532   3.767  0.00  0.00     0.167 A 
HETATM    6  C   UNK N   1      22.952  18.474   4.687  0.00  0.00     0.141 A 
HETATM    7  N   UNK N   1      24.142  18.023   5.131  0.00  0.00    -0.337 N 
ATOM      8  HN  UNK N   1      24.151  17.245   5.790  1.00  0.00     0.167 HD
HETATM    9  C   UNK N   1      25.327  18.557   4.742  0.00  0.00     0.115 A 
ENDROOT
BRANCH   9  10
HETATM   10  C   UNK N   1      26.599  17.828   5.163  0.00  0.00     0.085 C 
HETATM   11  C   UNK N   1      26.411  16.326   4.980  0.00  0.00     0.046 C 
HETATM   12  C   UNK N   1      27.732  18.177   4.199  0.00  0.00     0.046 C 
BRANCH  10  13
HETATM   13  N   UNK N   1      26.969  17.972   6.563  0.00  0.00    -0.338 N 
HETATM   14  C   UNK N   1      27.787  18.935   7.056  0.00  0.00     0.295 C 
HETATM   15  O   UNK N   1      27.783  20.064   6.592  0.00  0.00    -0.264 OA
HETATM   16  H   UNK N   1      26.598  17.319   7.201  0.00  0.00     0.164 HD
BRANCH  14  17
HETATM   17  C   UNK N   1      28.875  18.529   7.948  0.00  0.00     0.233 A 
HETATM   18  N   UNK N   1      28.827  18.621   9.293  0.00  0.00    -0.273 N 
HETATM   19  N   UNK N   1      29.869  17.949   9.756  0.00  0.00    -0.281 N 
ATOM     20  HN  UNK N   1      28.124  19.113   9.845  1.00  0.00     0.189 HD
HETATM   21  C   UNK N   1      30.514  17.458   8.682  0.00  0.00     0.136 A 
ATOM     22  HN  UNK N   1      30.131  17.827  10.733  1.00  0.00     0.189 HD
HETATM   23  C   UNK N   1      31.710  16.579   8.747  0.00  0.00     0.099 C 
HETATM   24  O   UNK N   1      29.904  17.806   7.576  0.00  0.00    -0.274 OA
ENDBRANCH  14  17
ENDBRANCH  10  13
ENDBRANCH   9  10
BRANCH   6  25
HETATM   25  C   UNK N   1      21.735  17.813   5.183  0.00  0.00     0.271 C 
HETATM   26  O   UNK N   1      20.739  17.777   4.480  0.00  0.00    -0.266 OA
HETATM   27  N   UNK N   1      21.749  17.260   6.438  0.00  0.00    -0.351 N 
HETATM   28  H   UNK N   1      22.602  17.323   6.924  0.00  0.00     0.163 HD
BRANCH  27  29
HETATM   29  C   UNK N   1      20.662  16.590   7.146  0.00  0.00     0.161 C 
BRANCH  29  30
HETATM   30  C   UNK N   1      21.107  15.441   7.977  0.00  0.00    -0.040 A 
HETATM   31  C   UNK N   1      20.401  15.092   9.137  0.00  0.00     0.012 A 
HETATM   32  C   UNK N   1      20.711  13.907   9.807  0.00  0.00     0.043 A 
HETATM   33  C   UNK N   1      21.722  13.074   9.319  0.00  0.00     0.116 A 
HETATM   34  F   UNK N   1      21.996  11.905   9.944  0.00  0.00    -0.206 F 
HETATM   35  C   UNK N   1      22.444  13.439   8.178  0.00  0.00     0.043 A 
HETATM   36  C   UNK N   1      22.132  14.619   7.504  0.00  0.00     0.012 A 
ENDBRANCH  29  30
ENDBRANCH  27  29
ENDBRANCH   6  25
BRANCH   5  37
HETATM   37  O   UNK N   1      21.759  19.992   3.268  0.00  0.00    -0.354 OA
HETATM   38  H   UNK N   1      21.502  19.787   2.391  0.00  0.00     0.218 HD
ENDBRANCH   5  37
TORSDOF 7
ENDMDL
MODEL 6
REMARK VINA RESULT:      -7.6      3.296      7.413
REMARK  7 active torsions:
REMARK  status: ('A' for Active; 'I' for Inactive)
REMARK    1  A    between atoms: C_5  and  O_6 
REMARK    2  A    between atoms: C_7  and  C_25 
REMARK    3  A    between atoms: C_10  and  C_11 
REMARK    4  A    between atoms: C_11  and  N_14 
REMARK       I    between atoms: N_14  and  C_15 
REMARK    5  A    between atoms: C_15  and  C_17 
REMARK       I    between atoms: C_25  and  N_27 
REMARK    6  A    between atoms: N_27  and  C_28 
REMARK    7  A    between atoms: C_28  and  C_29 
ROOT
HETATM    1  C   UNK N   1      24.613  18.672   4.354  0.00  0.00     0.161 C 
HETATM    2  N   UNK N   1      23.824  17.640   5.018  0.00  0.00    -0.304 N 
HETATM    3  C   UNK N   1      22.574  17.971   5.507  0.00  0.00     0.284 A 
HETATM    4  O   UNK N   1      22.146  19.110   5.390  0.00  0.00    -0.265 OA
HETATM    5  C   UNK N   1      21.778  17.000   6.119  0.00  0.00     0.167 A 
HETATM    6  C   UNK N   1      22.290  15.701   6.254  0.00  0.00     0.141 A 
HETATM    7  N   UNK N   1      23.505  15.419   5.744  0.00  0.00    -0.337 N 
ATOM      8  HN  UNK N   1      23.863  14.469   5.837  1.00  0.00     0.167 HD
HETATM    9  C   UNK N   1      24.275  16.341   5.113  0.00  0.00     0.115 A 
ENDROOT
BRANCH   9  10
HETATM   10  C   UNK N   1      25.535  15.845   4.410  0.00  0.00     0.085 C 
HETATM   11  C   UNK N   1      25.488  14.327   4.290  0.00  0.00     0.046 C 
HETATM   12  C   UNK N   1      25.538  16.329   2.961  0.00  0.00     0.046 C 
BRANCH  10  13
HETATM   13  N   UNK N   1      26.784  16.108   5.108  0.00  0.00    -0.338 N 
HETATM   14  C   UNK N   1      26.940  16.094   6.456  0.00  0.00     0.295 C 
HETATM   15  O   UNK N   1      26.326  15.303   7.154  0.00  0.00    -0.264 OA
HETATM   16  H   UNK N   1      27.577  16.312   4.561  0.00  0.00     0.164 HD
BRANCH  14  17
HETATM   17  C   UNK N   1      27.626  17.225   7.085  0.00  0.00     0.233 A 
HETATM   18  N   UNK N   1      27.233  18.510   6.968  0.00  0.00    -0.273 N 
HETATM   19  N   UNK N   1      27.936  19.201   7.852  0.00  0.00    -0.281 N 
ATOM     20  HN  UNK N   1      26.532  18.876   6.325  1.00  0.00     0.189 HD
HETATM   21  C   UNK N   1      28.725  18.317   8.488  0.00  0.00     0.136 A 
ATOM     22  HN  UNK N   1      27.887  20.206   8.018  1.00  0.00     0.189 HD
HETATM   23  C   UNK N   1      29.635  18.657   9.613  0.00  0.00     0.099 C 
HETATM   24  O   UNK N   1      28.532  17.107   8.025  0.00  0.00    -0.274 OA
ENDBRANCH  14  17
ENDBRANCH  10  13
ENDBRANCH   9  10
BRANCH   6  25
HETATM   25  C   UNK N   1      21.552  14.616   6.917  0.00  0.00     0.271 C 
HETATM   26  O   UNK N   1      20.334  14.658   6.968  0.00  0.00    -0.266 OA
HETATM   27  N   UNK N   1      22.258  13.582   7.475  0.00  0.00    -0.351 N 
HETATM   28  H   UNK N   1      23.236  13.625   7.370  0.00  0.00     0.163 HD
BRANCH  27  29
HETATM   29  C   UNK N   1      21.748  12.424   8.206  0.00  0.00     0.161 C 
BRANCH  29  30
HETATM   30  C   UNK N   1      22.166  12.384   9.632  0.00  0.00    -0.040 A 
HETATM   31  C   UNK N   1      21.203  12.363  10.650  0.00  0.00     0.012 A 
HETATM   32  C   UNK N   1      21.595  12.140  11.971  0.00  0.00     0.043 A 
HETATM   33  C   UNK N   1      22.945  11.937  12.272  0.00  0.00     0.116 A 
HETATM   34  F   UNK N   1      23.323  11.679  13.546  0.00  0.00    -0.206 F 
HETATM   35  C   UNK N   1      23.907  11.986  11.259  0.00  0.00     0.043 A 
HETATM   36  C   UNK N   1      23.516  12.204   9.937  0.00  0.00     0.012 A 
ENDBRANCH  29  30
ENDBRANCH  27  29
ENDBRANCH   6  25
BRANCH   5  37
HETATM   37  O   UNK N   1      20.553  17.319   6.581  0.00  0.00    -0.354 OA
HETATM   38  H   UNK N   1      20.299  17.095   7.454  0.00  0.00     0.218 HD
ENDBRANCH   5  37
TORSDOF 7
ENDMDL
MODEL 7
REMARK VINA RESULT:      -7.6      1.991      2.731
REMARK  7 active torsions:
REMARK  status: ('A' for Active; 'I' for Inactive)
REMARK    1  A    between atoms: C_5  and  O_6 
REMARK    2  A    between atoms: C_7  and  C_25 
REMARK    3  A    between atoms: C_10  and  C_11 
REMARK    4  A    between atoms: C_11  and  N_14 
REMARK       I    between atoms: N_14  and  C_15 
REMARK    5  A    between atoms: C_15  and  C_17 
REMARK       I    between atoms: C_25  and  N_27 
REMARK    6  A    between atoms: N_27  and  C_28 
REMARK    7  A    between atoms: C_28  and  C_29 
ROOT
HETATM    1  C   UNK N   1      20.663  19.138   3.570  0.00  0.00     0.161 C 
HETATM    2  N   UNK N   1      22.120  19.166   3.647  0.00  0.00    -0.304 N 
HETATM    3  C   UNK N   1      22.806  20.120   2.919  0.00  0.00     0.284 A 
HETATM    4  O   UNK N   1      22.201  20.916   2.218  0.00  0.00    -0.265 OA
HETATM    5  C   UNK N   1      24.200  20.196   2.995  0.00  0.00     0.167 A 
HETATM    6  C   UNK N   1      24.878  19.266   3.796  0.00  0.00     0.141 A 
HETATM    7  N   UNK N   1      24.166  18.367   4.505  0.00  0.00    -0.337 N 
ATOM      8  HN  UNK N   1      24.669  17.704   5.094  1.00  0.00     0.167 HD
HETATM    9  C   UNK N   1      22.811  18.305   4.471  0.00  0.00     0.115 A 
ENDROOT
BRANCH   9  10
HETATM   10  C   UNK N   1      22.124  17.377   5.469  0.00  0.00     0.085 C 
HETATM   11  C   UNK N   1      21.228  18.194   6.391  0.00  0.00     0.046 C 
HETATM   12  C   UNK N   1      21.152  16.459   4.729  0.00  0.00     0.046 C 
BRANCH  10  13
HETATM   13  N   UNK N   1      23.012  16.665   6.376  0.00  0.00    -0.338 N 
HETATM   14  C   UNK N   1      23.567  15.453   6.128  0.00  0.00     0.295 C 
HETATM   15  O   UNK N   1      23.916  15.137   5.001  0.00  0.00    -0.264 OA
HETATM   16  H   UNK N   1      23.225  17.096   7.235  0.00  0.00     0.164 HD
BRANCH  14  17
HETATM   17  C   UNK N   1      23.477  14.424   7.166  0.00  0.00     0.233 A 
HETATM   18  N   UNK N   1      24.523  13.696   7.605  0.00  0.00    -0.273 N 
HETATM   19  N   UNK N   1      24.112  13.058   8.690  0.00  0.00    -0.281 N 
ATOM     20  HN  UNK N   1      25.451  13.646   7.183  1.00  0.00     0.189 HD
HETATM   21  C   UNK N   1      22.833  13.426   8.886  0.00  0.00     0.136 A 
ATOM     22  HN  UNK N   1      24.657  12.415   9.264  1.00  0.00     0.189 HD
HETATM   23  C   UNK N   1      22.000  12.995  10.039  0.00  0.00     0.099 C 
HETATM   24  O   UNK N   1      22.445  14.266   7.960  0.00  0.00    -0.274 OA
ENDBRANCH  14  17
ENDBRANCH  10  13
ENDBRANCH   9  10
BRANCH   6  25
HETATM   25  C   UNK N   1      26.344  19.233   3.916  0.00  0.00     0.271 C 
HETATM   26  O   UNK N   1      26.999  20.203   3.571  0.00  0.00    -0.266 OA
HETATM   27  N   UNK N   1      26.941  18.100   4.404  0.00  0.00    -0.351 N 
HETATM   28  H   UNK N   1      26.331  17.376   4.672  0.00  0.00     0.163 HD
BRANCH  27  29
HETATM   29  C   UNK N   1      28.366  17.828   4.579  0.00  0.00     0.161 C 
BRANCH  29  30
HETATM   30  C   UNK N   1      28.812  17.858   5.997  0.00  0.00    -0.040 A 
HETATM   31  C   UNK N   1      30.026  17.264   6.368  0.00  0.00     0.012 A 
HETATM   32  C   UNK N   1      30.526  17.456   7.657  0.00  0.00     0.043 A 
HETATM   33  C   UNK N   1      29.815  18.240   8.571  0.00  0.00     0.116 A 
HETATM   34  F   UNK N   1      30.318  18.461   9.808  0.00  0.00    -0.206 F 
HETATM   35  C   UNK N   1      28.590  18.808   8.207  0.00  0.00     0.043 A 
HETATM   36  C   UNK N   1      28.092  18.622   6.917  0.00  0.00     0.012 A 
ENDBRANCH  29  30
ENDBRANCH  27  29
ENDBRANCH   6  25
BRANCH   5  37
HETATM   37  O   UNK N   1      24.867  21.135   2.298  0.00  0.00    -0.354 OA
HETATM   38  H   UNK N   1      25.795  21.077   2.185  0.00  0.00     0.218 HD
ENDBRANCH   5  37
TORSDOF 7
ENDMDL
MODEL 8
REMARK VINA RESULT:      -7.6      4.280      8.300
REMARK  7 active torsions:
REMARK  status: ('A' for Active; 'I' for Inactive)
REMARK    1  A    between atoms: C_5  and  O_6 
REMARK    2  A    between atoms: C_7  and  C_25 
REMARK    3  A    between atoms: C_10  and  C_11 
REMARK    4  A    between atoms: C_11  and  N_14 
REMARK       I    between atoms: N_14  and  C_15 
REMARK    5  A    between atoms: C_15  and  C_17 
REMARK       I    between atoms: C_25  and  N_27 
REMARK    6  A    between atoms: N_27  and  C_28 
REMARK    7  A    between atoms: C_28  and  C_29 
ROOT
HETATM    1  C   UNK N   1      25.450  19.924   4.501  0.00  0.00     0.161 C 
HETATM    2  N   UNK N   1      25.354  18.543   4.963  0.00  0.00    -0.304 N 
HETATM    3  C   UNK N   1      24.219  17.816   4.653  0.00  0.00     0.284 A 
HETATM    4  O   UNK N   1      23.313  18.327   4.013  0.00  0.00    -0.265 OA
HETATM    5  C   UNK N   1      24.109  16.481   5.052  0.00  0.00     0.167 A 
HETATM    6  C   UNK N   1      25.154  15.915   5.796  0.00  0.00     0.141 A 
HETATM    7  N   UNK N   1      26.250  16.656   6.055  0.00  0.00    -0.337 N 
ATOM      8  HN  UNK N   1      27.010  16.230   6.586  1.00  0.00     0.167 HD
HETATM    9  C   UNK N   1      26.390  17.941   5.643  0.00  0.00     0.115 A 
ENDROOT
BRANCH   9  10
HETATM   10  C   UNK N   1      27.755  18.596   5.830  0.00  0.00     0.085 C 
HETATM   11  C   UNK N   1      28.227  19.178   4.503  0.00  0.00     0.046 C 
HETATM   12  C   UNK N   1      27.616  19.816   6.739  0.00  0.00     0.046 C 
BRANCH  10  13
HETATM   13  N   UNK N   1      28.830  17.700   6.227  0.00  0.00    -0.338 N 
HETATM   14  C   UNK N   1      29.155  17.396   7.509  0.00  0.00     0.295 C 
HETATM   15  O   UNK N   1      28.295  17.290   8.369  0.00  0.00    -0.264 OA
HETATM   16  H   UNK N   1      29.363  17.284   5.511  0.00  0.00     0.164 HD
BRANCH  14  17
HETATM   17  C   UNK N   1      30.562  17.482   7.905  0.00  0.00     0.233 A 
HETATM   18  N   UNK N   1      31.016  17.220   9.147  0.00  0.00    -0.273 N 
HETATM   19  N   UNK N   1      32.337  17.168   9.064  0.00  0.00    -0.281 N 
ATOM     20  HN  UNK N   1      30.453  17.088   9.987  1.00  0.00     0.189 HD
HETATM   21  C   UNK N   1      32.646  17.388   7.773  0.00  0.00     0.136 A 
ATOM     22  HN  UNK N   1      32.990  16.995   9.827  1.00  0.00     0.189 HD
HETATM   23  C   UNK N   1      34.024  17.350   7.219  0.00  0.00     0.099 C 
HETATM   24  O   UNK N   1      31.562  17.574   7.062  0.00  0.00    -0.274 OA
ENDBRANCH  14  17
ENDBRANCH  10  13
ENDBRANCH   9  10
BRANCH   6  25
HETATM   25  C   UNK N   1      25.121  14.533   6.297  0.00  0.00     0.271 C 
HETATM   26  O   UNK N   1      26.141  13.863   6.288  0.00  0.00    -0.266 OA
HETATM   27  N   UNK N   1      23.933  14.025   6.756  0.00  0.00    -0.351 N 
HETATM   28  H   UNK N   1      23.169  14.645   6.741  0.00  0.00     0.163 HD
BRANCH  27  29
HETATM   29  C   UNK N   1      23.655  12.685   7.264  0.00  0.00     0.161 C 
BRANCH  29  30
HETATM   30  C   UNK N   1      23.499  12.624   8.741  0.00  0.00    -0.040 A 
HETATM   31  C   UNK N   1      22.224  12.523   9.313  0.00  0.00     0.012 A 
HETATM   32  C   UNK N   1      22.096  12.281  10.682  0.00  0.00     0.043 A 
HETATM   33  C   UNK N   1      23.239  12.139  11.475  0.00  0.00     0.116 A 
HETATM   34  F   UNK N   1      23.117  11.863  12.795  0.00  0.00    -0.206 F 
HETATM   35  C   UNK N   1      24.510  12.267  10.906  0.00  0.00     0.043 A 
HETATM   36  C   UNK N   1      24.639  12.504   9.538  0.00  0.00     0.012 A 
ENDBRANCH  29  30
ENDBRANCH  27  29
ENDBRANCH   6  25
BRANCH   5  37
HETATM   37  O   UNK N   1      23.010  15.768   4.737  0.00  0.00    -0.354 OA
HETATM   38  H   UNK N   1      23.085  14.883   4.441  0.00  0.00     0.218 HD
ENDBRANCH   5  37
TORSDOF 7
ENDMDL
MODEL 9
REMARK VINA RESULT:      -7.5      2.807      4.547
REMARK  7 active torsions:
REMARK  status: ('A' for Active; 'I' for Inactive)
REMARK    1  A    between atoms: C_5  and  O_6 
REMARK    2  A    between atoms: C_7  and  C_25 
REMARK    3  A    between atoms: C_10  and  C_11 
REMARK    4  A    between atoms: C_11  and  N_14 
REMARK       I    between atoms: N_14  and  C_15 
REMARK    5  A    between atoms: C_15  and  C_17 
REMARK       I    between atoms: C_25  and  N_27 
REMARK    6  A    between atoms: N_27  and  C_28 
REMARK    7  A    between atoms: C_28  and  C_29 
ROOT
HETATM    1  C   UNK N   1      20.434  14.336   8.950  0.00  0.00     0.161 C 
HETATM    2  N   UNK N   1      20.898  15.322   7.980  0.00  0.00    -0.304 N 
HETATM    3  C   UNK N   1      20.518  16.642   8.139  0.00  0.00     0.284 A 
HETATM    4  O   UNK N   1      19.799  16.970   9.071  0.00  0.00    -0.265 OA
HETATM    5  C   UNK N   1      20.972  17.617   7.248  0.00  0.00     0.167 A 
HETATM    6  C   UNK N   1      21.787  17.220   6.178  0.00  0.00     0.141 A 
HETATM    7  N   UNK N   1      22.150  15.926   6.075  0.00  0.00    -0.337 N 
ATOM      8  HN  UNK N   1      22.753  15.651   5.300  1.00  0.00     0.167 HD
HETATM    9  C   UNK N   1      21.749  14.973   6.953  0.00  0.00     0.115 A 
ENDROOT
BRANCH   9  10
HETATM   10  C   UNK N   1      22.390  13.594   6.837  0.00  0.00     0.085 C 
HETATM   11  C   UNK N   1      21.366  12.524   7.198  0.00  0.00     0.046 C 
HETATM   12  C   UNK N   1      22.722  13.306   5.374  0.00  0.00     0.046 C 
BRANCH  10  13
HETATM   13  N   UNK N   1      23.501  13.341   7.741  0.00  0.00    -0.338 N 
HETATM   14  C   UNK N   1      23.835  12.126   8.243  0.00  0.00     0.295 C 
HETATM   15  O   UNK N   1      23.710  11.112   7.575  0.00  0.00    -0.264 OA
HETATM   16  H   UNK N   1      24.053  14.112   8.010  0.00  0.00     0.164 HD
BRANCH  14  17
HETATM   17  C   UNK N   1      24.070  12.013   9.684  0.00  0.00     0.233 A 
HETATM   18  N   UNK N   1      25.174  12.469  10.310  0.00  0.00    -0.273 N 
HETATM   19  N   UNK N   1      24.925  12.408  11.608  0.00  0.00    -0.281 N 
ATOM     20  HN  UNK N   1      26.033  12.798   9.868  1.00  0.00     0.189 HD
HETATM   21  C   UNK N   1      23.674  11.928  11.735  0.00  0.00     0.136 A 
ATOM     22  HN  UNK N   1      25.556  12.673  12.364  1.00  0.00     0.189 HD
HETATM   23  C   UNK N   1      22.963  11.761  13.028  0.00  0.00     0.099 C 
HETATM   24  O   UNK N   1      23.148  11.692  10.559  0.00  0.00    -0.274 OA
ENDBRANCH  14  17
ENDBRANCH  10  13
ENDBRANCH   9  10
BRANCH   6  25
HETATM   25  C   UNK N   1      22.286  18.159   5.162  0.00  0.00     0.271 C 
HETATM   26  O   UNK N   1      21.496  18.730   4.428  0.00  0.00    -0.266 OA
HETATM   27  N   UNK N   1      23.638  18.362   5.057  0.00  0.00    -0.351 N 
HETATM   28  H   UNK N   1      24.196  17.872   5.703  0.00  0.00     0.163 HD
BRANCH  27  29
HETATM   29  C   UNK N   1      24.358  19.212   4.112  0.00  0.00     0.161 C 
BRANCH  29  30
HETATM   30  C   UNK N   1      25.831  19.016   4.131  0.00  0.00    -0.040 A 
HETATM   31  C   UNK N   1      26.668  20.005   4.665  0.00  0.00     0.012 A 
HETATM   32  C   UNK N   1      28.026  19.738   4.849  0.00  0.00     0.043 A 
HETATM   33  C   UNK N   1      28.544  18.487   4.501  0.00  0.00     0.116 A 
HETATM   34  F   UNK N   1      29.852  18.212   4.717  0.00  0.00    -0.206 F 
HETATM   35  C   UNK N   1      27.712  17.512   3.944  0.00  0.00     0.043 A 
HETATM   36  C   UNK N   1      26.354  17.775   3.764  0.00  0.00     0.012 A 
ENDBRANCH  29  30
ENDBRANCH  27  29
ENDBRANCH   6  25
BRANCH   5  37
HETATM   37  O   UNK N   1      20.614  18.906   7.412  0.00  0.00    -0.354 OA
HETATM   38  H   UNK N   1      21.075  19.590   6.968  0.00  0.00     0.218 HD
ENDBRANCH   5  37
TORSDOF 7
ENDMDL
