MODEL 1
REMARK VINA RESULT:      -8.3      0.000      0.000
REMARK  3 active torsions:
REMARK  status: ('A' for Active; 'I' for Inactive)
REMARK    1  A    between atoms: C_12  and  C_16 
REMARK    2  A    between atoms: C_16  and  C_18 
REMARK    3  A    between atoms: C_18  and  O_19 
ROOT
HETATM    1  C   UNK N   1      27.153  20.203   6.582  0.00  0.00     0.016 A 
HETATM    2  C   UNK N   1      26.474  20.881   5.571  0.00  0.00     0.001 A 
HETATM    3  C   UNK N   1      26.618  20.478   4.250  0.00  0.00     0.001 A 
HETATM    4  C   UNK N   1      27.447  19.402   3.941  0.00  0.00     0.020 A 
HETATM    5  C   UNK N   1      28.140  18.703   4.939  0.00  0.00     0.019 A 
HETATM    6  C   UNK N   1      27.987  19.102   6.302  0.00  0.00     0.027 A 
HETATM    7  C   UNK N   1      31.895  17.222   7.303  0.00  0.00     0.017 A 
HETATM    8  C   UNK N   1      30.671  17.319   6.633  0.00  0.00    -0.033 A 
HETATM    9  C   UNK N   1      30.641  17.464   5.246  0.00  0.00     0.012 A 
HETATM   10  C   UNK N   1      31.843  17.554   4.532  0.00  0.00     0.020 A 
HETATM   11  C   UNK N   1      33.069  17.463   5.203  0.00  0.00     0.009 A 
HETATM   12  C   UNK N   1      33.103  17.276   6.596  0.00  0.00    -0.044 A 
HETATM   13  S   UNK N   1      29.089  17.285   4.359  0.00  0.00    -0.089 SA
HETATM   14  C   UNK N   1      28.622  18.429   7.478  0.00  0.00     0.165 C 
HETATM   15  C   UNK N   1      29.406  17.156   7.395  0.00  0.00     0.123 C 
HETATM   16  O   UNK N   1      28.461  18.912   8.589  0.00  0.00    -0.292 OA
ENDROOT
BRANCH  12  17
HETATM   17  C   UNK N   1      34.392  17.005   7.340  0.00  0.00     0.112 C 
HETATM   18  C   UNK N   1      34.532  15.526   7.673  0.00  0.00     0.026 C 
BRANCH  17  19
HETATM   19  C   UNK N   1      34.650  17.891   8.538  0.00  0.00     0.148 C 
HETATM   20  O   UNK N   1      35.016  19.044   8.369  0.00  0.00    -0.649 OA
BRANCH  19  21
HETATM   21  O   UNK N   1      34.536  17.410   9.790  0.00  0.00    -0.776 OA
HETATM   22  H   UNK N   1      34.036  16.809  10.308  0.00  0.00     0.167 HD
ENDBRANCH  19  21
ENDBRANCH  17  19
ENDBRANCH  12  17
TORSDOF 3
ENDMDL
MODEL 2
REMARK VINA RESULT:      -7.3      5.005      9.070
REMARK  3 active torsions:
REMARK  status: ('A' for Active; 'I' for Inactive)
REMARK    1  A    between atoms: C_12  and  C_16 
REMARK    2  A    between atoms: C_16  and  C_18 
REMARK    3  A    between atoms: C_18  and  O_19 
ROOT
HETATM    1  C   UNK N   1      35.176  12.533  14.468  0.00  0.00     0.016 A 
HETATM    2  C   UNK N   1      34.652  11.322  14.919  0.00  0.00     0.001 A 
HETATM    3  C   UNK N   1      34.189  10.385  14.004  0.00  0.00     0.001 A 
HETATM    4  C   UNK N   1      34.244  10.663  12.640  0.00  0.00     0.020 A 
HETATM    5  C   UNK N   1      34.766  11.872  12.161  0.00  0.00     0.019 A 
HETATM    6  C   UNK N   1      35.257  12.836  13.094  0.00  0.00     0.027 A 
HETATM    7  C   UNK N   1      34.641  16.068  10.097  0.00  0.00     0.017 A 
HETATM    8  C   UNK N   1      34.979  14.777  10.516  0.00  0.00    -0.033 A 
HETATM    9  C   UNK N   1      34.234  13.681  10.081  0.00  0.00     0.012 A 
HETATM   10  C   UNK N   1      33.120  13.883   9.256  0.00  0.00     0.020 A 
HETATM   11  C   UNK N   1      32.777  15.176   8.841  0.00  0.00     0.009 A 
HETATM   12  C   UNK N   1      33.549  16.279   9.244  0.00  0.00    -0.044 A 
HETATM   13  S   UNK N   1      34.840  12.014  10.367  0.00  0.00    -0.089 SA
HETATM   14  C   UNK N   1      35.883  14.147  12.736  0.00  0.00     0.165 C 
HETATM   15  C   UNK N   1      36.201  14.573  11.336  0.00  0.00     0.123 C 
HETATM   16  O   UNK N   1      36.203  14.911  13.635  0.00  0.00    -0.292 OA
ENDROOT
BRANCH  12  17
HETATM   17  C   UNK N   1      33.320  17.668   8.689  0.00  0.00     0.112 C 
HETATM   18  C   UNK N   1      32.000  17.746   7.936  0.00  0.00     0.026 C 
BRANCH  17  19
HETATM   19  C   UNK N   1      34.469  18.249   7.898  0.00  0.00     0.148 C 
HETATM   20  O   UNK N   1      35.223  19.052   8.427  0.00  0.00    -0.649 OA
BRANCH  19  21
HETATM   21  O   UNK N   1      34.641  17.937   6.599  0.00  0.00    -0.776 OA
HETATM   22  H   UNK N   1      34.597  18.307   5.739  0.00  0.00     0.167 HD
ENDBRANCH  19  21
ENDBRANCH  17  19
ENDBRANCH  12  17
TORSDOF 3
ENDMDL
MODEL 3
REMARK VINA RESULT:      -7.2      8.151     12.043
REMARK  3 active torsions:
REMARK  status: ('A' for Active; 'I' for Inactive)
REMARK    1  A    between atoms: C_12  and  C_16 
REMARK    2  A    between atoms: C_16  and  C_18 
REMARK    3  A    between atoms: C_18  and  O_19 
ROOT
HETATM    1  C   UNK N   1      35.271  11.208  17.868  0.00  0.00     0.016 A 
HETATM    2  C   UNK N   1      35.221   9.858  18.214  0.00  0.00     0.001 A 
HETATM    3  C   UNK N   1      35.836   8.913  17.402  0.00  0.00     0.001 A 
HETATM    4  C   UNK N   1      36.496   9.319  16.245  0.00  0.00     0.020 A 
HETATM    5  C   UNK N   1      36.561  10.669  15.876  0.00  0.00     0.019 A 
HETATM    6  C   UNK N   1      35.942  11.649  16.711  0.00  0.00     0.027 A 
HETATM    7  C   UNK N   1      35.663  14.436  13.252  0.00  0.00     0.017 A 
HETATM    8  C   UNK N   1      36.267  13.448  14.036  0.00  0.00    -0.033 A 
HETATM    9  C   UNK N   1      36.496  12.177  13.509  0.00  0.00     0.012 A 
HETATM   10  C   UNK N   1      36.082  11.884  12.203  0.00  0.00     0.020 A 
HETATM   11  C   UNK N   1      35.472  12.871  11.419  0.00  0.00     0.009 A 
HETATM   12  C   UNK N   1      35.276  14.165  11.934  0.00  0.00    -0.044 A 
HETATM   13  S   UNK N   1      37.533  11.011  14.398  0.00  0.00    -0.089 SA
HETATM   14  C   UNK N   1      35.966  13.127  16.475  0.00  0.00     0.165 C 
HETATM   15  C   UNK N   1      36.759  13.793  15.395  0.00  0.00     0.123 C 
HETATM   16  O   UNK N   1      35.340  13.853  17.233  0.00  0.00    -0.292 OA
ENDROOT
BRANCH  12  17
HETATM   17  C   UNK N   1      34.778  15.305  11.074  0.00  0.00     0.112 C 
HETATM   18  C   UNK N   1      34.016  14.787   9.862  0.00  0.00     0.026 C 
BRANCH  17  19
HETATM   19  C   UNK N   1      35.816  16.339  10.701  0.00  0.00     0.148 C 
HETATM   20  O   UNK N   1      35.460  17.419  10.254  0.00  0.00    -0.649 OA
BRANCH  19  21
HETATM   21  O   UNK N   1      37.130  16.067  10.803  0.00  0.00    -0.776 OA
HETATM   22  H   UNK N   1      37.802  15.893  11.433  0.00  0.00     0.167 HD
ENDBRANCH  19  21
ENDBRANCH  17  19
ENDBRANCH  12  17
TORSDOF 3
ENDMDL
MODEL 4
REMARK VINA RESULT:      -7.1      3.275      5.506
REMARK  3 active torsions:
REMARK  status: ('A' for Active; 'I' for Inactive)
REMARK    1  A    between atoms: C_12  and  C_16 
REMARK    2  A    between atoms: C_16  and  C_18 
REMARK    3  A    between atoms: C_18  and  O_19 
ROOT
HETATM    1  C   UNK N   1      22.200  17.950   3.816  0.00  0.00     0.016 A 
HETATM    2  C   UNK N   1      21.196  18.848   3.460  0.00  0.00     0.001 A 
HETATM    3  C   UNK N   1      21.531  20.130   3.040  0.00  0.00     0.001 A 
HETATM    4  C   UNK N   1      22.869  20.511   2.982  0.00  0.00     0.020 A 
HETATM    5  C   UNK N   1      23.897  19.627   3.334  0.00  0.00     0.019 A 
HETATM    6  C   UNK N   1      23.562  18.303   3.755  0.00  0.00     0.027 A 
HETATM    7  C   UNK N   1      27.443  17.995   5.912  0.00  0.00     0.017 A 
HETATM    8  C   UNK N   1      26.604  18.395   4.867  0.00  0.00    -0.033 A 
HETATM    9  C   UNK N   1      26.390  19.751   4.618  0.00  0.00     0.012 A 
HETATM   10  C   UNK N   1      26.990  20.710   5.446  0.00  0.00     0.020 A 
HETATM   11  C   UNK N   1      27.826  20.310   6.496  0.00  0.00     0.009 A 
HETATM   12  C   UNK N   1      28.075  18.946   6.724  0.00  0.00    -0.044 A 
HETATM   13  S   UNK N   1      25.566  20.267   3.108  0.00  0.00    -0.089 SA
HETATM   14  C   UNK N   1      24.546  17.235   4.116  0.00  0.00     0.165 C 
HETATM   15  C   UNK N   1      26.029  17.369   3.959  0.00  0.00     0.123 C 
HETATM   16  O   UNK N   1      24.125  16.162   4.523  0.00  0.00    -0.292 OA
ENDROOT
BRANCH  12  17
HETATM   17  C   UNK N   1      29.098  18.473   7.734  0.00  0.00     0.112 C 
HETATM   18  C   UNK N   1      29.739  17.164   7.293  0.00  0.00     0.026 C 
BRANCH  17  19
HETATM   19  C   UNK N   1      28.623  18.425   9.168  0.00  0.00     0.148 C 
HETATM   20  O   UNK N   1      29.379  18.759  10.067  0.00  0.00    -0.649 OA
BRANCH  19  21
HETATM   21  O   UNK N   1      27.394  17.968   9.473  0.00  0.00    -0.776 OA
HETATM   22  H   UNK N   1      26.674  17.487   9.113  0.00  0.00     0.167 HD
ENDBRANCH  19  21
ENDBRANCH  17  19
ENDBRANCH  12  17
TORSDOF 3
ENDMDL
MODEL 5
REMARK VINA RESULT:      -7.0      4.923      9.460
REMARK  3 active torsions:
REMARK  status: ('A' for Active; 'I' for Inactive)
REMARK    1  A    between atoms: C_12  and  C_16 
REMARK    2  A    between atoms: C_16  and  C_18 
REMARK    3  A    between atoms: C_18  and  O_19 
ROOT
HETATM    1  C   UNK N   1      27.750  19.630   6.872  0.00  0.00     0.016 A 
HETATM    2  C   UNK N   1      28.389  18.728   7.721  0.00  0.00     0.001 A 
HETATM    3  C   UNK N   1      28.330  17.366   7.454  0.00  0.00     0.001 A 
HETATM    4  C   UNK N   1      27.628  16.908   6.341  0.00  0.00     0.020 A 
HETATM    5  C   UNK N   1      26.977  17.794   5.472  0.00  0.00     0.019 A 
HETATM    6  C   UNK N   1      27.044  19.198   5.732  0.00  0.00     0.027 A 
HETATM    7  C   UNK N   1      23.320  19.821   3.375  0.00  0.00     0.017 A 
HETATM    8  C   UNK N   1      24.548  19.219   3.666  0.00  0.00    -0.033 A 
HETATM    9  C   UNK N   1      24.609  17.858   3.966  0.00  0.00     0.012 A 
HETATM   10  C   UNK N   1      23.428  17.105   4.014  0.00  0.00     0.020 A 
HETATM   11  C   UNK N   1      22.197  17.709   3.729  0.00  0.00     0.009 A 
HETATM   12  C   UNK N   1      22.137  19.071   3.387  0.00  0.00    -0.044 A 
HETATM   13  S   UNK N   1      26.200  17.026   4.040  0.00  0.00    -0.089 SA
HETATM   14  C   UNK N   1      26.442  20.266   4.873  0.00  0.00     0.165 C 
HETATM   15  C   UNK N   1      25.797  20.015   3.546  0.00  0.00     0.123 C 
HETATM   16  O   UNK N   1      26.516  21.428   5.244  0.00  0.00    -0.292 OA
ENDROOT
BRANCH  12  17
HETATM   17  C   UNK N   1      20.858  19.724   2.909  0.00  0.00     0.112 C 
HETATM   18  C   UNK N   1      19.674  18.778   3.048  0.00  0.00     0.026 C 
BRANCH  17  19
HETATM   19  C   UNK N   1      20.927  20.363   1.541  0.00  0.00     0.148 C 
HETATM   20  O   UNK N   1      21.129  21.564   1.444  0.00  0.00    -0.649 OA
BRANCH  19  21
HETATM   21  O   UNK N   1      20.713  19.637   0.428  0.00  0.00    -0.776 OA
HETATM   22  H   UNK N   1      20.195  19.618  -0.354  0.00  0.00     0.167 HD
ENDBRANCH  19  21
ENDBRANCH  17  19
ENDBRANCH  12  17
TORSDOF 3
ENDMDL
MODEL 6
REMARK VINA RESULT:      -6.7      2.766      7.274
REMARK  3 active torsions:
REMARK  status: ('A' for Active; 'I' for Inactive)
REMARK    1  A    between atoms: C_12  and  C_16 
REMARK    2  A    between atoms: C_16  and  C_18 
REMARK    3  A    between atoms: C_18  and  O_19 
ROOT
HETATM    1  C   UNK N   1      33.068  16.925   5.918  0.00  0.00     0.016 A 
HETATM    2  C   UNK N   1      34.036  17.427   6.787  0.00  0.00     0.001 A 
HETATM    3  C   UNK N   1      33.655  17.966   8.010  0.00  0.00     0.001 A 
HETATM    4  C   UNK N   1      32.307  18.007   8.359  0.00  0.00     0.020 A 
HETATM    5  C   UNK N   1      31.315  17.510   7.503  0.00  0.00     0.019 A 
HETATM    6  C   UNK N   1      31.699  16.942   6.250  0.00  0.00     0.027 A 
HETATM    7  C   UNK N   1      27.631  17.742   4.630  0.00  0.00     0.017 A 
HETATM    8  C   UNK N   1      28.552  17.387   5.620  0.00  0.00    -0.033 A 
HETATM    9  C   UNK N   1      28.689  18.174   6.765  0.00  0.00     0.012 A 
HETATM   10  C   UNK N   1      27.929  19.344   6.897  0.00  0.00     0.020 A 
HETATM   11  C   UNK N   1      27.010  19.703   5.902  0.00  0.00     0.009 A 
HETATM   12  C   UNK N   1      26.841  18.891   4.767  0.00  0.00    -0.044 A 
HETATM   13  S   UNK N   1      29.640  17.566   8.163  0.00  0.00    -0.089 SA
HETATM   14  C   UNK N   1      30.763  16.330   5.254  0.00  0.00     0.165 C 
HETATM   15  C   UNK N   1      29.302  16.111   5.497  0.00  0.00     0.123 C 
HETATM   16  O   UNK N   1      31.215  15.937   4.188  0.00  0.00    -0.292 OA
ENDROOT
BRANCH  12  17
HETATM   17  C   UNK N   1      25.748  19.146   3.752  0.00  0.00     0.112 C 
HETATM   18  C   UNK N   1      25.922  20.504   3.088  0.00  0.00     0.026 C 
BRANCH  17  19
HETATM   19  C   UNK N   1      24.337  18.924   4.247  0.00  0.00     0.148 C 
HETATM   20  O   UNK N   1      23.409  19.511   3.711  0.00  0.00    -0.649 OA
BRANCH  19  21
HETATM   21  O   UNK N   1      24.093  18.131   5.308  0.00  0.00    -0.776 OA
HETATM   22  H   UNK N   1      24.083  18.135   6.246  0.00  0.00     0.167 HD
ENDBRANCH  19  21
ENDBRANCH  17  19
ENDBRANCH  12  17
TORSDOF 3
ENDMDL
MODEL 7
REMARK VINA RESULT:      -6.6      2.816      3.776
REMARK  3 active torsions:
REMARK  status: ('A' for Active; 'I' for Inactive)
REMARK    1  A    between atoms: C_12  and  C_16 
REMARK    2  A    between atoms: C_16  and  C_18 
REMARK    3  A    between atoms: C_18  and  O_19 
ROOT
HETATM    1  C   UNK N   1      27.283  14.065   4.844  0.00  0.00     0.016 A 
HETATM    2  C   UNK N   1      26.120  13.638   5.483  0.00  0.00     0.001 A 
HETATM    3  C   UNK N   1      25.580  14.395   6.515  0.00  0.00     0.001 A 
HETATM    4  C   UNK N   1      26.208  15.574   6.910  0.00  0.00     0.020 A 
HETATM    5  C   UNK N   1      27.377  16.025   6.284  0.00  0.00     0.019 A 
HETATM    6  C   UNK N   1      27.932  15.259   5.213  0.00  0.00     0.027 A 
HETATM    7  C   UNK N   1      31.922  17.085   5.960  0.00  0.00     0.017 A 
HETATM    8  C   UNK N   1      30.526  17.082   5.880  0.00  0.00    -0.033 A 
HETATM    9  C   UNK N   1      29.758  17.318   7.021  0.00  0.00     0.012 A 
HETATM   10  C   UNK N   1      30.392  17.517   8.255  0.00  0.00     0.020 A 
HETATM   11  C   UNK N   1      31.790  17.514   8.336  0.00  0.00     0.009 A 
HETATM   12  C   UNK N   1      32.567  17.317   7.181  0.00  0.00    -0.044 A 
HETATM   13  S   UNK N   1      27.992  17.614   6.869  0.00  0.00    -0.089 SA
HETATM   14  C   UNK N   1      29.145  15.633   4.419  0.00  0.00     0.165 C 
HETATM   15  C   UNK N   1      29.870  16.936   4.555  0.00  0.00     0.123 C 
HETATM   16  O   UNK N   1      29.553  14.856   3.569  0.00  0.00    -0.292 OA
ENDROOT
BRANCH  12  17
HETATM   17  C   UNK N   1      34.072  17.472   7.189  0.00  0.00     0.112 C 
HETATM   18  C   UNK N   1      34.761  16.159   6.842  0.00  0.00     0.026 C 
BRANCH  17  19
HETATM   19  C   UNK N   1      34.653  18.116   8.427  0.00  0.00     0.148 C 
HETATM   20  O   UNK N   1      35.018  19.281   8.388  0.00  0.00    -0.649 OA
BRANCH  19  21
HETATM   21  O   UNK N   1      34.827  17.407   9.558  0.00  0.00    -0.776 OA
HETATM   22  H   UNK N   1      35.392  17.329  10.302  0.00  0.00     0.167 HD
ENDBRANCH  19  21
ENDBRANCH  17  19
ENDBRANCH  12  17
TORSDOF 3
ENDMDL
MODEL 8
REMARK VINA RESULT:      -6.6     10.994     12.960
REMARK  3 active torsions:
REMARK  status: ('A' for Active; 'I' for Inactive)
REMARK    1  A    between atoms: C_12  and  C_16 
REMARK    2  A    between atoms: C_16  and  C_18 
REMARK    3  A    between atoms: C_18  and  O_19 
ROOT
HETATM    1  C   UNK N   1      26.118  26.987  -3.372  0.00  0.00     0.016 A 
HETATM    2  C   UNK N   1      26.006  28.370  -3.501  0.00  0.00     0.001 A 
HETATM    3  C   UNK N   1      26.639  29.020  -4.553  0.00  0.00     0.001 A 
HETATM    4  C   UNK N   1      27.388  28.286  -5.470  0.00  0.00     0.020 A 
HETATM    5  C   UNK N   1      27.516  26.895  -5.362  0.00  0.00     0.019 A 
HETATM    6  C   UNK N   1      26.857  26.217  -4.291  0.00  0.00     0.027 A 
HETATM    7  C   UNK N   1      29.742  22.845  -4.636  0.00  0.00     0.017 A 
HETATM    8  C   UNK N   1      28.929  23.871  -5.128  0.00  0.00    -0.033 A 
HETATM    9  C   UNK N   1      29.497  24.954  -5.801  0.00  0.00     0.012 A 
HETATM   10  C   UNK N   1      30.888  25.029  -5.945  0.00  0.00     0.020 A 
HETATM   11  C   UNK N   1      31.703  24.004  -5.447  0.00  0.00     0.009 A 
HETATM   12  C   UNK N   1      31.132  22.892  -4.805  0.00  0.00    -0.044 A 
HETATM   13  S   UNK N   1      28.446  26.109  -6.690  0.00  0.00    -0.089 SA
HETATM   14  C   UNK N   1      26.861  24.736  -4.071  0.00  0.00     0.165 C 
HETATM   15  C   UNK N   1      27.452  23.746  -5.026  0.00  0.00     0.123 C 
HETATM   16  O   UNK N   1      26.310  24.289  -3.077  0.00  0.00    -0.292 OA
ENDROOT
BRANCH  12  17
HETATM   17  C   UNK N   1      31.953  21.686  -4.402  0.00  0.00     0.112 C 
HETATM   18  C   UNK N   1      31.304  20.396  -4.883  0.00  0.00     0.026 C 
BRANCH  17  19
HETATM   19  C   UNK N   1      32.343  21.624  -2.943  0.00  0.00     0.148 C 
HETATM   20  O   UNK N   1      33.365  21.040  -2.615  0.00  0.00    -0.649 OA
BRANCH  19  21
HETATM   21  O   UNK N   1      31.552  22.156  -1.992  0.00  0.00    -0.776 OA
HETATM   22  H   UNK N   1      31.426  22.178  -1.063  0.00  0.00     0.167 HD
ENDBRANCH  19  21
ENDBRANCH  17  19
ENDBRANCH  12  17
TORSDOF 3
ENDMDL
MODEL 9
REMARK VINA RESULT:      -6.4      1.859      2.414
REMARK  3 active torsions:
REMARK  status: ('A' for Active; 'I' for Inactive)
REMARK    1  A    between atoms: C_12  and  C_16 
REMARK    2  A    between atoms: C_16  and  C_18 
REMARK    3  A    between atoms: C_18  and  O_19 
ROOT
HETATM    1  C   UNK N   1      26.409  20.337   4.667  0.00  0.00     0.016 A 
HETATM    2  C   UNK N   1      25.579  20.179   3.558  0.00  0.00     0.001 A 
HETATM    3  C   UNK N   1      25.224  18.903   3.136  0.00  0.00     0.001 A 
HETATM    4  C   UNK N   1      25.703  17.789   3.820  0.00  0.00     0.020 A 
HETATM    5  C   UNK N   1      26.538  17.921   4.938  0.00  0.00     0.019 A 
HETATM    6  C   UNK N   1      26.898  19.229   5.387  0.00  0.00     0.027 A 
HETATM    7  C   UNK N   1      30.515  17.563   7.375  0.00  0.00     0.017 A 
HETATM    8  C   UNK N   1      29.181  17.549   6.955  0.00  0.00    -0.033 A 
HETATM    9  C   UNK N   1      28.741  16.582   6.051  0.00  0.00     0.012 A 
HETATM   10  C   UNK N   1      29.651  15.651   5.533  0.00  0.00     0.020 A 
HETATM   11  C   UNK N   1      30.989  15.669   5.948  0.00  0.00     0.009 A 
HETATM   12  C   UNK N   1      31.427  16.616   6.890  0.00  0.00    -0.044 A 
HETATM   13  S   UNK N   1      26.983  16.373   5.746  0.00  0.00    -0.089 SA
HETATM   14  C   UNK N   1      27.740  19.531   6.587  0.00  0.00     0.165 C 
HETATM   15  C   UNK N   1      28.215  18.500   7.562  0.00  0.00     0.123 C 
HETATM   16  O   UNK N   1      28.028  20.695   6.824  0.00  0.00    -0.292 OA
ENDROOT
BRANCH  12  17
HETATM   17  C   UNK N   1      32.814  16.569   7.493  0.00  0.00     0.112 C 
HETATM   18  C   UNK N   1      32.924  17.507   8.687  0.00  0.00     0.026 C 
BRANCH  17  19
HETATM   19  C   UNK N   1      33.953  16.745   6.516  0.00  0.00     0.148 C 
HETATM   20  O   UNK N   1      34.704  15.809   6.287  0.00  0.00    -0.649 OA
BRANCH  19  21
HETATM   21  O   UNK N   1      34.188  17.937   5.935  0.00  0.00    -0.776 OA
HETATM   22  H   UNK N   1      34.321  18.338   5.098  0.00  0.00     0.167 HD
ENDBRANCH  19  21
ENDBRANCH  17  19
ENDBRANCH  12  17
TORSDOF 3
ENDMDL
