MODEL 1
REMARK VINA RESULT:      -7.8      0.000      0.000
REMARK  15 active torsions:
REMARK  status: ('A' for Active; 'I' for Inactive)
REMARK    1  A    between atoms: C_20  and  C_19 
REMARK    2  A    between atoms: C_29  and  C_19 
REMARK    3  A    between atoms: C_30  and  N_44 
REMARK    4  A    between atoms: C_31  and  O_47 
REMARK    5  A    between atoms: C_32  and  O_57 
REMARK    6  A    between atoms: C_34  and  O_57 
REMARK    7  A    between atoms: C_35  and  O_58 
REMARK    8  A    between atoms: C_36  and  N_45 
REMARK    9  A    between atoms: C_37  and  O_49 
REMARK   10  A    between atoms: C_38  and  O_58 
REMARK   11  A    between atoms: C_39  and  O_59 
REMARK   12  A    between atoms: C_40  and  O_52 
REMARK   13  A    between atoms: C_41  and  O_50 
REMARK   14  A    between atoms: C_42  and  O_59 
REMARK   15  A    between atoms: C_43  and  O_51 
ROOT
HETATM    1  C   UNK N   1      25.738  14.448   6.257  0.00  0.00     0.012 C 
HETATM    2  C   UNK N   1      28.938   9.597  -0.956  0.00  0.00     0.040 C 
HETATM    3  C   UNK N   1      25.630  11.584   1.968  0.00  0.00    -0.004 C 
HETATM    4  C   UNK N   1      26.892  11.471   1.495  0.00  0.00    -0.024 C 
HETATM    5  C   UNK N   1      25.134  12.763   2.746  0.00  0.00    -0.002 C 
HETATM    6  C   UNK N   1      27.339  10.229   0.784  0.00  0.00     0.059 C 
HETATM    7  C   UNK N   1      25.853  13.887   2.890  0.00  0.00     0.005 C 
HETATM    8  C   UNK N   1      27.827  14.252   5.040  0.00  0.00     0.014 C 
HETATM    9  C   UNK N   1      29.910  11.304   2.966  0.00  0.00     0.145 C 
HETATM   10  C   UNK N   1      26.478  15.025   5.060  0.00  0.00     0.015 C 
HETATM   11  C   UNK N   1      28.831  10.235   0.412  0.00  0.00     0.131 C 
HETATM   12  C   UNK N   1      28.854  14.304   3.888  0.00  0.00     0.024 C 
HETATM   13  C   UNK N   1      31.266  11.914   3.340  0.00  0.00     0.159 C 
HETATM   14  C   UNK N   1      25.486  15.015   3.822  0.00  0.00     0.151 C 
HETATM   15  C   UNK N   1      30.011   9.866   2.522  0.00  0.00     0.261 C 
HETATM   16  C   UNK N   1      30.359  14.252   4.339  0.00  0.00     0.160 C 
HETATM   17  C   UNK N   1      31.291  13.484   3.334  0.00  0.00     0.179 C 
HETATM   18  O   UNK N   1      30.555   9.048   3.251  0.00  0.00    -0.265 OA
HETATM   19  O   UNK N   1      29.574   9.468   1.297  0.00  0.00    -0.316 OA
ENDROOT
BRANCH  16  20
HETATM   20  O   UNK N   1      30.564  13.806   5.688  0.00  0.00    -0.350 OA
BRANCH  20  21
HETATM   21  C   UNK N   1      31.833  14.232   6.213  0.00  0.00     0.291 C 
HETATM   22  C   UNK N   1      31.695  15.582   6.984  0.00  0.00     0.209 C 
HETATM   23  C   UNK N   1      32.945  15.958   7.829  0.00  0.00     0.286 C 
HETATM   24  C   UNK N   1      33.342  14.690   8.657  0.00  0.00     0.189 C 
HETATM   25  C   UNK N   1      33.589  13.534   7.638  0.00  0.00     0.152 C 
HETATM   26  C   UNK N   1      34.730  13.798   6.658  0.00  0.00     0.042 C 
HETATM   27  O   UNK N   1      32.385  13.189   6.994  0.00  0.00    -0.351 OA
BRANCH  22  28
HETATM   28  O   UNK N   1      31.410  16.581   6.049  0.00  0.00    -0.388 OA
HETATM   29  H   UNK N   1      30.828  17.342   6.200  0.00  0.00     0.210 HD
ENDBRANCH  22  28
BRANCH  23  30
HETATM   30  N   UNK N   1      32.648  17.119   8.718  0.00  0.00     0.089 N 
HETATM   31  C   UNK N   1      33.337  18.326   8.279  0.00  0.00     0.310 C 
HETATM   32  C   UNK N   1      31.238  17.488   8.687  0.00  0.00     0.310 C 
ENDBRANCH  23  30
BRANCH  24  33
HETATM   33  O   UNK N   1      34.468  14.992   9.479  0.00  0.00    -0.351 OA
BRANCH  33  34
HETATM   34  C   UNK N   1      35.084  13.924  10.193  0.00  0.00     0.264 C 
HETATM   35  C   UNK N   1      36.636  13.892  10.118  0.00  0.00     0.101 C 
HETATM   36  C   UNK N   1      37.308  12.991  11.152  0.00  0.00     0.087 C 
HETATM   37  C   UNK N   1      37.365  11.571  10.619  0.00  0.00     0.049 C 
HETATM   38  C   UNK N   1      36.583  13.062  12.513  0.00  0.00     0.180 C 
HETATM   39  C   UNK N   1      35.065  12.934  12.337  0.00  0.00     0.152 C 
HETATM   40  C   UNK N   1      34.600  11.561  11.852  0.00  0.00     0.042 C 
HETATM   41  O   UNK N   1      34.589  13.988  11.522  0.00  0.00    -0.354 OA
BRANCH  36  42
HETATM   42  O   UNK N   1      38.614  13.437  11.312  0.00  0.00    -0.387 OA
HETATM   43  H   UNK N   1      38.875  13.893  12.128  0.00  0.00     0.210 HD
ENDBRANCH  36  42
BRANCH  38  44
HETATM   44  O   UNK N   1      36.840  14.296  13.121  0.00  0.00    -0.390 OA
HETATM   45  H   UNK N   1      36.669  15.251  13.085  0.00  0.00     0.210 HD
ENDBRANCH  38  44
ENDBRANCH  33  34
ENDBRANCH  24  33
ENDBRANCH  20  21
ENDBRANCH  16  20
BRANCH  12  46
HETATM   46  C   UNK N   1      28.632  15.474   2.903  0.00  0.00     0.076 C 
BRANCH  46  47
HETATM   47  C   UNK N   1      29.365  16.720   3.294  0.00  0.00     0.231 C 
HETATM   48  O   UNK N   1      28.956  17.405   4.215  0.00  0.00    -0.307 OA
ENDBRANCH  46  47
ENDBRANCH  12  46
BRANCH  17  49
HETATM   49  O   UNK N   1      32.616  13.994   3.408  0.00  0.00    -0.386 OA
HETATM   50  C   UNK N   1      32.679  15.337   3.008  0.00  0.00     0.202 C 
ENDBRANCH  17  49
BRANCH  13  51
HETATM   51  O   UNK N   1      32.228  11.471   2.424  0.00  0.00    -0.392 OA
HETATM   52  H   UNK N   1      32.936  11.952   1.969  0.00  0.00     0.210 HD
ENDBRANCH  13  51
BRANCH  14  53
HETATM   53  O   UNK N   1      25.490  16.252   3.103  0.00  0.00    -0.352 OA
BRANCH  53  54
HETATM   54  C   UNK N   1      24.222  16.906   3.190  0.00  0.00     0.261 C 
HETATM   55  C   UNK N   1      23.083  15.879   3.062  0.00  0.00     0.063 C 
HETATM   56  C   UNK N   1      21.691  16.540   3.193  0.00  0.00     0.043 C 
HETATM   57  C   UNK N   1      21.809  18.062   3.417  0.00  0.00     0.250 C 
HETATM   58  C   UNK N   1      22.846  18.313   4.560  0.00  0.00     0.153 C 
HETATM   59  C   UNK N   1      22.283  17.926   5.919  0.00  0.00     0.042 C 
HETATM   60  O   UNK N   1      24.091  17.614   4.415  0.00  0.00    -0.354 OA
BRANCH  57  61
HETATM   61  N   UNK N   1      20.513  18.749   3.630  0.00  0.00     0.087 N 
HETATM   62  C   UNK N   1      19.474  18.313   2.705  0.00  0.00     0.310 C 
HETATM   63  C   UNK N   1      20.668  20.186   3.437  0.00  0.00     0.310 C 
ENDBRANCH  57  61
ENDBRANCH  53  54
ENDBRANCH  14  53
TORSDOF 15
ENDMDL
MODEL 2
REMARK VINA RESULT:      -7.8      3.358      9.153
REMARK  15 active torsions:
REMARK  status: ('A' for Active; 'I' for Inactive)
REMARK    1  A    between atoms: C_20  and  C_19 
REMARK    2  A    between atoms: C_29  and  C_19 
REMARK    3  A    between atoms: C_30  and  N_44 
REMARK    4  A    between atoms: C_31  and  O_47 
REMARK    5  A    between atoms: C_32  and  O_57 
REMARK    6  A    between atoms: C_34  and  O_57 
REMARK    7  A    between atoms: C_35  and  O_58 
REMARK    8  A    between atoms: C_36  and  N_45 
REMARK    9  A    between atoms: C_37  and  O_49 
REMARK   10  A    between atoms: C_38  and  O_58 
REMARK   11  A    between atoms: C_39  and  O_59 
REMARK   12  A    between atoms: C_40  and  O_52 
REMARK   13  A    between atoms: C_41  and  O_50 
REMARK   14  A    between atoms: C_42  and  O_59 
REMARK   15  A    between atoms: C_43  and  O_51 
ROOT
HETATM    1  C   UNK N   1      32.308  17.166   2.995  0.00  0.00     0.012 C 
HETATM    2  C   UNK N   1      32.653   8.493  -0.238  0.00  0.00     0.040 C 
HETATM    3  C   UNK N   1      34.361  12.792   1.188  0.00  0.00    -0.004 C 
HETATM    4  C   UNK N   1      33.389  11.855   1.126  0.00  0.00    -0.024 C 
HETATM    5  C   UNK N   1      34.378  13.912   2.182  0.00  0.00    -0.002 C 
HETATM    6  C   UNK N   1      33.402  10.803   0.058  0.00  0.00     0.059 C 
HETATM    7  C   UNK N   1      33.516  13.979   3.209  0.00  0.00     0.005 C 
HETATM    8  C   UNK N   1      30.860  15.221   2.981  0.00  0.00     0.014 C 
HETATM    9  C   UNK N   1      30.091  11.979   0.487  0.00  0.00     0.145 C 
HETATM   10  C   UNK N   1      31.993  15.911   3.793  0.00  0.00     0.015 C 
HETATM   11  C   UNK N   1      32.165   9.889   0.077  0.00  0.00     0.131 C 
HETATM   12  C   UNK N   1      30.331  13.794   3.245  0.00  0.00     0.024 C 
HETATM   13  C   UNK N   1      28.625  11.906   0.931  0.00  0.00     0.159 C 
HETATM   14  C   UNK N   1      33.363  15.177   4.112  0.00  0.00     0.151 C 
HETATM   15  C   UNK N   1      30.350  11.264  -0.817  0.00  0.00     0.261 C 
HETATM   16  C   UNK N   1      28.787  13.607   3.021  0.00  0.00     0.160 C 
HETATM   17  C   UNK N   1      28.400  12.192   2.458  0.00  0.00     0.179 C 
HETATM   18  O   UNK N   1      29.688  11.553  -1.804  0.00  0.00    -0.265 OA
HETATM   19  O   UNK N   1      31.255  10.252  -0.904  0.00  0.00    -0.316 OA
ENDROOT
BRANCH  16  20
HETATM   20  O   UNK N   1      28.160  14.658   2.271  0.00  0.00    -0.350 OA
BRANCH  20  21
HETATM   21  C   UNK N   1      27.206  15.391   3.058  0.00  0.00     0.291 C 
HETATM   22  C   UNK N   1      25.755  14.879   2.800  0.00  0.00     0.209 C 
HETATM   23  C   UNK N   1      24.707  15.406   3.822  0.00  0.00     0.286 C 
HETATM   24  C   UNK N   1      25.306  15.190   5.252  0.00  0.00     0.189 C 
HETATM   25  C   UNK N   1      26.672  15.943   5.297  0.00  0.00     0.152 C 
HETATM   26  C   UNK N   1      26.561  17.452   5.088  0.00  0.00     0.042 C 
HETATM   27  O   UNK N   1      27.590  15.336   4.420  0.00  0.00    -0.351 OA
BRANCH  22  28
HETATM   28  O   UNK N   1      25.401  15.239   1.497  0.00  0.00    -0.388 OA
HETATM   29  H   UNK N   1      25.722  16.021   1.023  0.00  0.00     0.210 HD
ENDBRANCH  22  28
BRANCH  23  30
HETATM   30  N   UNK N   1      23.408  14.690   3.659  0.00  0.00     0.089 N 
HETATM   31  C   UNK N   1      22.570  15.313   2.643  0.00  0.00     0.310 C 
HETATM   32  C   UNK N   1      23.590  13.326   3.178  0.00  0.00     0.310 C 
ENDBRANCH  23  30
BRANCH  24  33
HETATM   33  O   UNK N   1      24.367  15.627   6.232  0.00  0.00    -0.351 OA
BRANCH  33  34
HETATM   34  C   UNK N   1      23.938  14.691   7.216  0.00  0.00     0.264 C 
HETATM   35  C   UNK N   1      22.407  14.423   7.246  0.00  0.00     0.101 C 
HETATM   36  C   UNK N   1      21.991  13.181   8.031  0.00  0.00     0.087 C 
HETATM   37  C   UNK N   1      21.844  13.540   9.498  0.00  0.00     0.049 C 
HETATM   38  C   UNK N   1      22.992  12.024   7.823  0.00  0.00     0.180 C 
HETATM   39  C   UNK N   1      24.438  12.512   7.978  0.00  0.00     0.152 C 
HETATM   40  C   UNK N   1      24.810  12.943   9.397  0.00  0.00     0.042 C 
HETATM   41  O   UNK N   1      24.708  13.515   7.017  0.00  0.00    -0.354 OA
BRANCH  36  42
HETATM   42  O   UNK N   1      20.743  12.787   7.563  0.00  0.00    -0.387 OA
HETATM   43  H   UNK N   1      20.610  11.882   7.240  0.00  0.00     0.210 HD
ENDBRANCH  36  42
BRANCH  38  44
HETATM   44  O   UNK N   1      22.852  11.505   6.532  0.00  0.00    -0.390 OA
HETATM   45  H   UNK N   1      22.476  10.785   6.001  0.00  0.00     0.210 HD
ENDBRANCH  38  44
ENDBRANCH  33  34
ENDBRANCH  24  33
ENDBRANCH  20  21
ENDBRANCH  16  20
BRANCH  12  46
HETATM   46  C   UNK N   1      30.745  13.216   4.617  0.00  0.00     0.076 C 
BRANCH  46  47
HETATM   47  C   UNK N   1      31.103  11.763   4.559  0.00  0.00     0.231 C 
HETATM   48  O   UNK N   1      30.462  10.950   5.203  0.00  0.00    -0.307 OA
ENDBRANCH  46  47
ENDBRANCH  12  46
BRANCH  17  49
HETATM   49  O   UNK N   1      27.085  11.843   2.874  0.00  0.00    -0.386 OA
HETATM   50  C   UNK N   1      26.991  11.746   4.271  0.00  0.00     0.202 C 
ENDBRANCH  17  49
BRANCH  13  51
HETATM   51  O   UNK N   1      28.136  10.623   0.662  0.00  0.00    -0.392 OA
HETATM   52  H   UNK N   1      28.392   9.760   1.025  0.00  0.00     0.210 HD
ENDBRANCH  13  51
BRANCH  14  53
HETATM   53  O   UNK N   1      33.462  14.765   5.477  0.00  0.00    -0.352 OA
BRANCH  53  54
HETATM   54  C   UNK N   1      32.617  15.551   6.319  0.00  0.00     0.261 C 
HETATM   55  C   UNK N   1      32.445  14.867   7.688  0.00  0.00     0.063 C 
HETATM   56  C   UNK N   1      31.569  15.708   8.647  0.00  0.00     0.043 C 
HETATM   57  C   UNK N   1      31.094  17.014   7.979  0.00  0.00     0.250 C 
HETATM   58  C   UNK N   1      32.332  17.710   7.323  0.00  0.00     0.153 C 
HETATM   59  C   UNK N   1      33.253  18.313   8.373  0.00  0.00     0.042 C 
HETATM   60  O   UNK N   1      33.144  16.858   6.502  0.00  0.00    -0.354 OA
BRANCH  57  61
HETATM   61  N   UNK N   1      30.315  17.907   8.870  0.00  0.00     0.087 N 
HETATM   62  C   UNK N   1      29.605  17.188   9.921  0.00  0.00     0.310 C 
HETATM   63  C   UNK N   1      29.307  18.628   8.102  0.00  0.00     0.310 C 
ENDBRANCH  57  61
ENDBRANCH  53  54
ENDBRANCH  14  53
TORSDOF 15
ENDMDL
MODEL 3
REMARK VINA RESULT:      -7.8      2.604      3.705
REMARK  15 active torsions:
REMARK  status: ('A' for Active; 'I' for Inactive)
REMARK    1  A    between atoms: C_20  and  C_19 
REMARK    2  A    between atoms: C_29  and  C_19 
REMARK    3  A    between atoms: C_30  and  N_44 
REMARK    4  A    between atoms: C_31  and  O_47 
REMARK    5  A    between atoms: C_32  and  O_57 
REMARK    6  A    between atoms: C_34  and  O_57 
REMARK    7  A    between atoms: C_35  and  O_58 
REMARK    8  A    between atoms: C_36  and  N_45 
REMARK    9  A    between atoms: C_37  and  O_49 
REMARK   10  A    between atoms: C_38  and  O_58 
REMARK   11  A    between atoms: C_39  and  O_59 
REMARK   12  A    between atoms: C_40  and  O_52 
REMARK   13  A    between atoms: C_41  and  O_50 
REMARK   14  A    between atoms: C_42  and  O_59 
REMARK   15  A    between atoms: C_43  and  O_51 
ROOT
HETATM    1  C   UNK N   1      24.982  13.920   8.304  0.00  0.00     0.012 C 
HETATM    2  C   UNK N   1      24.273  10.329  -0.205  0.00  0.00     0.040 C 
HETATM    3  C   UNK N   1      22.887  11.432   4.300  0.00  0.00    -0.004 C 
HETATM    4  C   UNK N   1      23.692  11.593   3.226  0.00  0.00    -0.024 C 
HETATM    5  C   UNK N   1      22.762  12.432   5.406  0.00  0.00    -0.002 C 
HETATM    6  C   UNK N   1      23.818  10.515   2.191  0.00  0.00     0.059 C 
HETATM    7  C   UNK N   1      23.310  13.656   5.338  0.00  0.00     0.005 C 
HETATM    8  C   UNK N   1      26.079  14.211   6.161  0.00  0.00     0.014 C 
HETATM    9  C   UNK N   1      27.019  11.875   2.847  0.00  0.00     0.145 C 
HETATM   10  C   UNK N   1      24.880  14.716   7.013  0.00  0.00     0.015 C 
HETATM   11  C   UNK N   1      24.855  10.827   1.100  0.00  0.00     0.131 C 
HETATM   12  C   UNK N   1      26.301  14.544   4.669  0.00  0.00     0.024 C 
HETATM   13  C   UNK N   1      28.281  12.695   2.550  0.00  0.00     0.159 C 
HETATM   14  C   UNK N   1      23.383  14.620   6.496  0.00  0.00     0.151 C 
HETATM   15  C   UNK N   1      27.026  10.519   2.183  0.00  0.00     0.261 C 
HETATM   16  C   UNK N   1      27.802  14.738   4.249  0.00  0.00     0.160 C 
HETATM   17  C   UNK N   1      28.118  14.238   2.794  0.00  0.00     0.179 C 
HETATM   18  O   UNK N   1      27.968   9.762   2.371  0.00  0.00    -0.265 OA
HETATM   19  O   UNK N   1      26.042  10.145   1.322  0.00  0.00    -0.316 OA
ENDROOT
BRANCH  16  20
HETATM   20  O   UNK N   1      28.757  14.233   5.194  0.00  0.00    -0.350 OA
BRANCH  20  21
HETATM   21  C   UNK N   1      29.928  15.063   5.277  0.00  0.00     0.291 C 
HETATM   22  C   UNK N   1      29.933  15.896   6.596  0.00  0.00     0.209 C 
HETATM   23  C   UNK N   1      31.292  16.586   6.904  0.00  0.00     0.286 C 
HETATM   24  C   UNK N   1      32.411  15.504   6.728  0.00  0.00     0.189 C 
HETATM   25  C   UNK N   1      32.293  14.953   5.273  0.00  0.00     0.152 C 
HETATM   26  C   UNK N   1      32.520  16.002   4.188  0.00  0.00     0.042 C 
HETATM   27  O   UNK N   1      31.080  14.256   5.115  0.00  0.00    -0.351 OA
BRANCH  22  28
HETATM   28  O   UNK N   1      28.907  16.840   6.508  0.00  0.00    -0.388 OA
HETATM   29  H   UNK N   1      28.372  17.160   7.252  0.00  0.00     0.210 HD
ENDBRANCH  22  28
BRANCH  23  30
HETATM   30  N   UNK N   1      31.293  17.153   8.284  0.00  0.00     0.089 N 
HETATM   31  C   UNK N   1      30.453  18.340   8.381  0.00  0.00     0.310 C 
HETATM   32  C   UNK N   1      30.717  16.233   9.256  0.00  0.00     0.310 C 
ENDBRANCH  23  30
BRANCH  24  33
HETATM   33  O   UNK N   1      33.680  16.078   7.033  0.00  0.00    -0.351 OA
BRANCH  33  34
HETATM   34  C   UNK N   1      34.420  15.532   8.121  0.00  0.00     0.264 C 
HETATM   35  C   UNK N   1      34.773  16.541   9.249  0.00  0.00     0.101 C 
HETATM   36  C   UNK N   1      35.237  15.903  10.556  0.00  0.00     0.087 C 
HETATM   37  C   UNK N   1      36.729  15.635  10.482  0.00  0.00     0.049 C 
HETATM   38  C   UNK N   1      34.440  14.617  10.867  0.00  0.00     0.180 C 
HETATM   39  C   UNK N   1      34.344  13.716   9.629  0.00  0.00     0.152 C 
HETATM   40  C   UNK N   1      35.675  13.111   9.185  0.00  0.00     0.042 C 
HETATM   41  O   UNK N   1      33.686  14.409   8.585  0.00  0.00    -0.354 OA
BRANCH  36  42
HETATM   42  O   UNK N   1      35.021  16.824  11.574  0.00  0.00    -0.387 OA
HETATM   43  H   UNK N   1      35.707  17.473  11.795  0.00  0.00     0.210 HD
ENDBRANCH  36  42
BRANCH  38  44
HETATM   44  O   UNK N   1      33.138  14.952  11.254  0.00  0.00    -0.390 OA
HETATM   45  H   UNK N   1      32.341  14.642  11.713  0.00  0.00     0.210 HD
ENDBRANCH  38  44
ENDBRANCH  33  34
ENDBRANCH  24  33
ENDBRANCH  20  21
ENDBRANCH  16  20
BRANCH  12  46
HETATM   46  C   UNK N   1      25.446  15.726   4.157  0.00  0.00     0.076 C 
BRANCH  46  47
HETATM   47  C   UNK N   1      25.999  17.063   4.544  0.00  0.00     0.231 C 
HETATM   48  O   UNK N   1      26.232  17.898   3.689  0.00  0.00    -0.307 OA
ENDBRANCH  46  47
ENDBRANCH  12  46
BRANCH  17  49
HETATM   49  O   UNK N   1      29.203  14.977   2.246  0.00  0.00    -0.386 OA
HETATM   50  C   UNK N   1      29.132  16.336   2.594  0.00  0.00     0.202 C 
ENDBRANCH  17  49
BRANCH  13  51
HETATM   51  O   UNK N   1      28.632  12.511   1.207  0.00  0.00    -0.392 OA
HETATM   52  H   UNK N   1      29.129  11.798   0.777  0.00  0.00     0.210 HD
ENDBRANCH  13  51
BRANCH  14  53
HETATM   53  O   UNK N   1      22.854  15.887   6.099  0.00  0.00    -0.352 OA
BRANCH  53  54
HETATM   54  C   UNK N   1      21.731  16.256   6.903  0.00  0.00     0.261 C 
HETATM   55  C   UNK N   1      20.422  16.011   6.133  0.00  0.00     0.063 C 
HETATM   56  C   UNK N   1      19.177  16.358   6.984  0.00  0.00     0.043 C 
HETATM   57  C   UNK N   1      19.576  16.861   8.387  0.00  0.00     0.250 C 
HETATM   58  C   UNK N   1      20.617  15.862   8.991  0.00  0.00     0.153 C 
HETATM   59  C   UNK N   1      19.962  14.551   9.396  0.00  0.00     0.042 C 
HETATM   60  O   UNK N   1      21.711  15.527   8.123  0.00  0.00    -0.354 OA
BRANCH  57  61
HETATM   61  N   UNK N   1      18.429  17.136   9.285  0.00  0.00     0.087 N 
HETATM   62  C   UNK N   1      17.148  17.155   8.588  0.00  0.00     0.310 C 
HETATM   63  C   UNK N   1      18.584  18.443   9.911  0.00  0.00     0.310 C 
ENDBRANCH  57  61
ENDBRANCH  53  54
ENDBRANCH  14  53
TORSDOF 15
ENDMDL
MODEL 4
REMARK VINA RESULT:      -7.7      4.418     12.940
REMARK  15 active torsions:
REMARK  status: ('A' for Active; 'I' for Inactive)
REMARK    1  A    between atoms: C_20  and  C_19 
REMARK    2  A    between atoms: C_29  and  C_19 
REMARK    3  A    between atoms: C_30  and  N_44 
REMARK    4  A    between atoms: C_31  and  O_47 
REMARK    5  A    between atoms: C_32  and  O_57 
REMARK    6  A    between atoms: C_34  and  O_57 
REMARK    7  A    between atoms: C_35  and  O_58 
REMARK    8  A    between atoms: C_36  and  N_45 
REMARK    9  A    between atoms: C_37  and  O_49 
REMARK   10  A    between atoms: C_38  and  O_58 
REMARK   11  A    between atoms: C_39  and  O_59 
REMARK   12  A    between atoms: C_40  and  O_52 
REMARK   13  A    between atoms: C_41  and  O_50 
REMARK   14  A    between atoms: C_42  and  O_59 
REMARK   15  A    between atoms: C_43  and  O_51 
ROOT
HETATM    1  C   UNK N   1      36.905   9.910   7.071  0.00  0.00     0.012 C 
HETATM    2  C   UNK N   1      37.166   9.537  16.322  0.00  0.00     0.040 C 
HETATM    3  C   UNK N   1      37.986   8.091  11.775  0.00  0.00    -0.004 C 
HETATM    4  C   UNK N   1      37.650   9.032  12.687  0.00  0.00    -0.024 C 
HETATM    5  C   UNK N   1      38.427   8.403  10.379  0.00  0.00    -0.002 C 
HETATM    6  C   UNK N   1      37.150   8.642  14.045  0.00  0.00     0.059 C 
HETATM    7  C   UNK N   1      38.694   9.653   9.968  0.00  0.00     0.005 C 
HETATM    8  C   UNK N   1      36.626  11.460   8.915  0.00  0.00     0.014 C 
HETATM    9  C   UNK N   1      35.224  11.353  12.833  0.00  0.00     0.145 C 
HETATM   10  C   UNK N   1      37.698  10.843   7.972  0.00  0.00     0.015 C 
HETATM   11  C   UNK N   1      36.718   9.839  14.909  0.00  0.00     0.131 C 
HETATM   12  C   UNK N   1      36.938  12.309  10.166  0.00  0.00     0.024 C 
HETATM   13  C   UNK N   1      34.739  12.807  12.763  0.00  0.00     0.159 C 
HETATM   14  C   UNK N   1      38.945  10.038   8.532  0.00  0.00     0.151 C 
HETATM   15  C   UNK N   1      34.588  10.571  13.955  0.00  0.00     0.261 C 
HETATM   16  C   UNK N   1      35.931  13.485  10.438  0.00  0.00     0.160 C 
HETATM   17  C   UNK N   1      35.691  13.767  11.965  0.00  0.00     0.179 C 
HETATM   18  O   UNK N   1      33.369  10.519  14.037  0.00  0.00    -0.265 OA
HETATM   19  O   UNK N   1      35.338   9.978  14.922  0.00  0.00    -0.316 OA
ENDROOT
BRANCH  16  20
HETATM   20  O   UNK N   1      34.691  13.387   9.723  0.00  0.00    -0.350 OA
BRANCH  20  21
HETATM   21  C   UNK N   1      34.431  14.556   8.927  0.00  0.00     0.291 C 
HETATM   22  C   UNK N   1      34.292  14.187   7.418  0.00  0.00     0.209 C 
HETATM   23  C   UNK N   1      33.719  15.333   6.535  0.00  0.00     0.286 C 
HETATM   24  C   UNK N   1      32.448  15.886   7.264  0.00  0.00     0.189 C 
HETATM   25  C   UNK N   1      32.896  16.342   8.687  0.00  0.00     0.152 C 
HETATM   26  C   UNK N   1      33.929  17.467   8.687  0.00  0.00     0.042 C 
HETATM   27  O   UNK N   1      33.301  15.229   9.450  0.00  0.00    -0.351 OA
BRANCH  22  28
HETATM   28  O   UNK N   1      35.551  13.790   6.958  0.00  0.00    -0.388 OA
HETATM   29  H   UNK N   1      36.308  13.561   7.520  0.00  0.00     0.210 HD
ENDBRANCH  22  28
BRANCH  23  30
HETATM   30  N   UNK N   1      33.391  14.831   5.170  0.00  0.00     0.089 N 
HETATM   31  C   UNK N   1      34.591  14.582   4.381  0.00  0.00     0.310 C 
HETATM   32  C   UNK N   1      32.720  13.537   5.207  0.00  0.00     0.310 C 
ENDBRANCH  23  30
BRANCH  24  33
HETATM   33  O   UNK N   1      31.862  16.920   6.478  0.00  0.00    -0.351 OA
BRANCH  33  34
HETATM   34  C   UNK N   1      30.509  16.762   6.060  0.00  0.00     0.264 C 
HETATM   35  C   UNK N   1      29.463  17.531   6.915  0.00  0.00     0.101 C 
HETATM   36  C   UNK N   1      28.084  17.659   6.273  0.00  0.00     0.087 C 
HETATM   37  C   UNK N   1      27.266  16.420   6.588  0.00  0.00     0.049 C 
HETATM   38  C   UNK N   1      28.192  17.900   4.752  0.00  0.00     0.180 C 
HETATM   39  C   UNK N   1      29.188  16.927   4.109  0.00  0.00     0.152 C 
HETATM   40  C   UNK N   1      28.739  15.465   4.122  0.00  0.00     0.042 C 
HETATM   41  O   UNK N   1      30.469  17.107   4.684  0.00  0.00    -0.354 OA
BRANCH  36  42
HETATM   42  O   UNK N   1      27.448  18.748   6.858  0.00  0.00    -0.387 OA
HETATM   43  H   UNK N   1      27.924  19.304   7.493  0.00  0.00     0.210 HD
ENDBRANCH  36  42
BRANCH  38  44
HETATM   44  O   UNK N   1      28.651  19.201   4.512  0.00  0.00    -0.390 OA
HETATM   45  H   UNK N   1      28.453  20.045   4.076  0.00  0.00     0.210 HD
ENDBRANCH  38  44
ENDBRANCH  33  34
ENDBRANCH  24  33
ENDBRANCH  20  21
ENDBRANCH  16  20
BRANCH  12  46
HETATM   46  C   UNK N   1      38.393  12.828  10.224  0.00  0.00     0.076 C 
BRANCH  46  47
HETATM   47  C   UNK N   1      38.588  14.116   9.484  0.00  0.00     0.231 C 
HETATM   48  O   UNK N   1      38.395  14.164   8.282  0.00  0.00    -0.307 OA
ENDBRANCH  46  47
ENDBRANCH  12  46
BRANCH  17  49
HETATM   49  O   UNK N   1      35.352  15.134  12.163  0.00  0.00    -0.386 OA
HETATM   50  C   UNK N   1      36.153  15.985  11.386  0.00  0.00     0.202 C 
ENDBRANCH  17  49
BRANCH  13  51
HETATM   51  O   UNK N   1      34.626  13.307  14.066  0.00  0.00    -0.392 OA
HETATM   52  H   UNK N   1      34.884  14.165  14.438  0.00  0.00     0.210 HD
ENDBRANCH  13  51
BRANCH  14  53
HETATM   53  O   UNK N   1      40.165  10.779   8.440  0.00  0.00    -0.352 OA
BRANCH  53  54
HETATM   54  C   UNK N   1      40.279  11.436   7.176  0.00  0.00     0.261 C 
HETATM   55  C   UNK N   1      41.307  12.578   7.261  0.00  0.00     0.063 C 
HETATM   56  C   UNK N   1      41.494  13.289   5.899  0.00  0.00     0.043 C 
HETATM   57  C   UNK N   1      40.598  12.666   4.810  0.00  0.00     0.250 C 
HETATM   58  C   UNK N   1      40.778  11.113   4.852  0.00  0.00     0.153 C 
HETATM   59  C   UNK N   1      42.132  10.694   4.300  0.00  0.00     0.042 C 
HETATM   60  O   UNK N   1      40.663  10.523   6.156  0.00  0.00    -0.354 OA
BRANCH  57  61
HETATM   61  N   UNK N   1      40.785  13.249   3.460  0.00  0.00     0.087 N 
HETATM   62  C   UNK N   1      41.414  14.564   3.485  0.00  0.00     0.310 C 
HETATM   63  C   UNK N   1      39.495  13.415   2.801  0.00  0.00     0.310 C 
ENDBRANCH  57  61
ENDBRANCH  53  54
ENDBRANCH  14  53
TORSDOF 15
ENDMDL
MODEL 5
REMARK VINA RESULT:      -7.5      4.024     10.039
REMARK  15 active torsions:
REMARK  status: ('A' for Active; 'I' for Inactive)
REMARK    1  A    between atoms: C_20  and  C_19 
REMARK    2  A    between atoms: C_29  and  C_19 
REMARK    3  A    between atoms: C_30  and  N_44 
REMARK    4  A    between atoms: C_31  and  O_47 
REMARK    5  A    between atoms: C_32  and  O_57 
REMARK    6  A    between atoms: C_34  and  O_57 
REMARK    7  A    between atoms: C_35  and  O_58 
REMARK    8  A    between atoms: C_36  and  N_45 
REMARK    9  A    between atoms: C_37  and  O_49 
REMARK   10  A    between atoms: C_38  and  O_58 
REMARK   11  A    between atoms: C_39  and  O_59 
REMARK   12  A    between atoms: C_40  and  O_52 
REMARK   13  A    between atoms: C_41  and  O_50 
REMARK   14  A    between atoms: C_42  and  O_59 
REMARK   15  A    between atoms: C_43  and  O_51 
ROOT
HETATM    1  C   UNK N   1      26.218  15.971   6.608  0.00  0.00     0.012 C 
HETATM    2  C   UNK N   1      20.799  20.679   0.755  0.00  0.00     0.040 C 
HETATM    3  C   UNK N   1      24.413  19.971   3.897  0.00  0.00    -0.004 C 
HETATM    4  C   UNK N   1      23.470  19.518   3.040  0.00  0.00    -0.024 C 
HETATM    5  C   UNK N   1      25.572  19.151   4.371  0.00  0.00    -0.002 C 
HETATM    6  C   UNK N   1      22.298  20.374   2.663  0.00  0.00     0.059 C 
HETATM    7  C   UNK N   1      25.870  17.951   3.848  0.00  0.00     0.005 C 
HETATM    8  C   UNK N   1      24.669  15.447   4.818  0.00  0.00     0.014 C 
HETATM    9  C   UNK N   1      21.189  17.055   3.197  0.00  0.00     0.145 C 
HETATM   10  C   UNK N   1      26.162  15.774   5.102  0.00  0.00     0.015 C 
HETATM   11  C   UNK N   1      21.277  19.658   1.764  0.00  0.00     0.131 C 
HETATM   12  C   UNK N   1      24.035  15.378   3.411  0.00  0.00     0.024 C 
HETATM   13  C   UNK N   1      20.664  15.672   2.793  0.00  0.00     0.159 C 
HETATM   14  C   UNK N   1      26.896  17.006   4.421  0.00  0.00     0.151 C 
HETATM   15  C   UNK N   1      20.106  18.106   3.248  0.00  0.00     0.261 C 
HETATM   16  C   UNK N   1      22.931  14.273   3.235  0.00  0.00     0.160 C 
HETATM   17  C   UNK N   1      21.771  14.693   2.262  0.00  0.00     0.179 C 
HETATM   18  O   UNK N   1      19.113  17.913   3.935  0.00  0.00    -0.265 OA
HETATM   19  O   UNK N   1      20.175  19.234   2.492  0.00  0.00    -0.316 OA
ENDROOT
BRANCH  16  20
HETATM   20  O   UNK N   1      22.415  13.742   4.465  0.00  0.00    -0.350 OA
BRANCH  20  21
HETATM   21  C   UNK N   1      22.967  12.450   4.771  0.00  0.00     0.291 C 
HETATM   22  C   UNK N   1      23.072  11.568   3.488  0.00  0.00     0.209 C 
HETATM   23  C   UNK N   1      23.926  10.281   3.673  0.00  0.00     0.286 C 
HETATM   24  C   UNK N   1      25.263  10.709   4.367  0.00  0.00     0.189 C 
HETATM   25  C   UNK N   1      24.881  11.416   5.704  0.00  0.00     0.152 C 
HETATM   26  C   UNK N   1      24.137  10.522   6.693  0.00  0.00     0.042 C 
HETATM   27  O   UNK N   1      24.203  12.621   5.440  0.00  0.00    -0.351 OA
BRANCH  22  28
HETATM   28  O   UNK N   1      21.773  11.246   3.084  0.00  0.00    -0.388 OA
HETATM   29  H   UNK N   1      21.515  10.440   2.610  0.00  0.00     0.210 HD
ENDBRANCH  22  28
BRANCH  23  30
HETATM   30  N   UNK N   1      24.179   9.625   2.357  0.00  0.00     0.089 N 
HETATM   31  C   UNK N   1      23.077   8.756   1.965  0.00  0.00     0.310 C 
HETATM   32  C   UNK N   1      24.270  10.592   1.270  0.00  0.00     0.310 C 
ENDBRANCH  23  30
BRANCH  24  33
HETATM   33  O   UNK N   1      26.101   9.567   4.530  0.00  0.00    -0.351 OA
BRANCH  33  34
HETATM   34  C   UNK N   1      27.454   9.659   4.093  0.00  0.00     0.264 C 
HETATM   35  C   UNK N   1      28.167  10.996   4.440  0.00  0.00     0.101 C 
HETATM   36  C   UNK N   1      29.687  10.964   4.303  0.00  0.00     0.087 C 
HETATM   37  C   UNK N   1      30.068  11.263   2.865  0.00  0.00     0.049 C 
HETATM   38  C   UNK N   1      30.265   9.613   4.778  0.00  0.00     0.180 C 
HETATM   39  C   UNK N   1      29.472   8.438   4.192  0.00  0.00     0.152 C 
HETATM   40  C   UNK N   1      29.611   8.277   2.678  0.00  0.00     0.042 C 
HETATM   41  O   UNK N   1      28.123   8.518   4.608  0.00  0.00    -0.354 OA
BRANCH  36  42
HETATM   42  O   UNK N   1      30.203  11.979   5.100  0.00  0.00    -0.387 OA
HETATM   43  H   UNK N   1      31.158  12.031   5.262  0.00  0.00     0.210 HD
ENDBRANCH  36  42
BRANCH  38  44
HETATM   44  O   UNK N   1      30.185   9.529   6.172  0.00  0.00    -0.390 OA
HETATM   45  H   UNK N   1      29.701   9.826   6.959  0.00  0.00     0.210 HD
ENDBRANCH  38  44
ENDBRANCH  33  34
ENDBRANCH  24  33
ENDBRANCH  20  21
ENDBRANCH  16  20
BRANCH  12  46
HETATM   46  C   UNK N   1      25.066  15.290   2.263  0.00  0.00     0.076 C 
BRANCH  46  47
HETATM   47  C   UNK N   1      25.542  13.893   2.005  0.00  0.00     0.231 C 
HETATM   48  O   UNK N   1      26.658  13.554   2.357  0.00  0.00    -0.307 OA
ENDBRANCH  46  47
ENDBRANCH  12  46
BRANCH  17  49
HETATM   49  O   UNK N   1      21.208  13.541   1.646  0.00  0.00    -0.386 OA
HETATM   50  C   UNK N   1      21.820  13.259   0.415  0.00  0.00     0.202 C 
ENDBRANCH  17  49
BRANCH  13  51
HETATM   51  O   UNK N   1      19.713  15.829   1.779  0.00  0.00    -0.392 OA
HETATM   52  H   UNK N   1      19.566  15.319   0.966  0.00  0.00     0.210 HD
ENDBRANCH  13  51
BRANCH  14  53
HETATM   53  O   UNK N   1      27.806  16.605   3.394  0.00  0.00    -0.352 OA
BRANCH  53  54
HETATM   54  C   UNK N   1      29.047  16.159   3.945  0.00  0.00     0.261 C 
HETATM   55  C   UNK N   1      29.797  15.282   2.926  0.00  0.00     0.063 C 
HETATM   56  C   UNK N   1      31.168  14.812   3.467  0.00  0.00     0.043 C 
HETATM   57  C   UNK N   1      31.425  15.345   4.892  0.00  0.00     0.250 C 
HETATM   58  C   UNK N   1      31.123  16.880   4.905  0.00  0.00     0.153 C 
HETATM   59  C   UNK N   1      32.198  17.665   4.170  0.00  0.00     0.042 C 
HETATM   60  O   UNK N   1      29.866  17.257   4.324  0.00  0.00    -0.354 OA
BRANCH  57  61
HETATM   61  N   UNK N   1      32.756  14.998   5.442  0.00  0.00     0.087 N 
HETATM   62  C   UNK N   1      33.595  14.271   4.496  0.00  0.00     0.310 C 
HETATM   63  C   UNK N   1      32.609  14.143   6.613  0.00  0.00     0.310 C 
ENDBRANCH  57  61
ENDBRANCH  53  54
ENDBRANCH  14  53
TORSDOF 15
ENDMDL
MODEL 6
REMARK VINA RESULT:      -7.4      4.677     11.122
REMARK  15 active torsions:
REMARK  status: ('A' for Active; 'I' for Inactive)
REMARK    1  A    between atoms: C_20  and  C_19 
REMARK    2  A    between atoms: C_29  and  C_19 
REMARK    3  A    between atoms: C_30  and  N_44 
REMARK    4  A    between atoms: C_31  and  O_47 
REMARK    5  A    between atoms: C_32  and  O_57 
REMARK    6  A    between atoms: C_34  and  O_57 
REMARK    7  A    between atoms: C_35  and  O_58 
REMARK    8  A    between atoms: C_36  and  N_45 
REMARK    9  A    between atoms: C_37  and  O_49 
REMARK   10  A    between atoms: C_38  and  O_58 
REMARK   11  A    between atoms: C_39  and  O_59 
REMARK   12  A    between atoms: C_40  and  O_52 
REMARK   13  A    between atoms: C_41  and  O_50 
REMARK   14  A    between atoms: C_42  and  O_59 
REMARK   15  A    between atoms: C_43  and  O_51 
ROOT
HETATM    1  C   UNK N   1      26.109  11.056   4.984  0.00  0.00     0.012 C 
HETATM    2  C   UNK N   1      32.607  17.488   3.502  0.00  0.00     0.040 C 
HETATM    3  C   UNK N   1      30.615  13.075   3.494  0.00  0.00    -0.004 C 
HETATM    4  C   UNK N   1      30.534  14.422   3.586  0.00  0.00    -0.024 C 
HETATM    5  C   UNK N   1      29.444  12.186   3.215  0.00  0.00    -0.002 C 
HETATM    6  C   UNK N   1      31.737  15.244   3.938  0.00  0.00     0.059 C 
HETATM    7  C   UNK N   1      28.242  12.666   2.858  0.00  0.00     0.005 C 
HETATM    8  C   UNK N   1      26.203  13.473   4.818  0.00  0.00     0.014 C 
HETATM    9  C   UNK N   1      28.922  16.508   5.671  0.00  0.00     0.145 C 
HETATM   10  C   UNK N   1      26.022  12.184   3.968  0.00  0.00     0.015 C 
HETATM   11  C   UNK N   1      31.434  16.742   4.100  0.00  0.00     0.131 C 
HETATM   12  C   UNK N   1      26.416  14.888   4.237  0.00  0.00     0.024 C 
HETATM   13  C   UNK N   1      27.802  17.508   5.983  0.00  0.00     0.159 C 
HETATM   14  C   UNK N   1      26.990  11.831   2.762  0.00  0.00     0.151 C 
HETATM   15  C   UNK N   1      30.258  16.922   6.237  0.00  0.00     0.261 C 
HETATM   16  C   UNK N   1      25.732  16.048   5.048  0.00  0.00     0.160 C 
HETATM   17  C   UNK N   1      26.551  17.388   5.040  0.00  0.00     0.179 C 
HETATM   18  O   UNK N   1      30.355  17.170   7.431  0.00  0.00    -0.265 OA
HETATM   19  O   UNK N   1      31.345  17.097   5.438  0.00  0.00    -0.316 OA
ENDROOT
BRANCH  16  20
HETATM   20  O   UNK N   1      25.327  15.689   6.378  0.00  0.00    -0.350 OA
BRANCH  20  21
HETATM   21  C   UNK N   1      23.926  15.378   6.452  0.00  0.00     0.291 C 
HETATM   22  C   UNK N   1      23.092  16.323   5.532  0.00  0.00     0.209 C 
HETATM   23  C   UNK N   1      21.620  15.868   5.323  0.00  0.00     0.286 C 
HETATM   24  C   UNK N   1      21.655  14.346   4.955  0.00  0.00     0.189 C 
HETATM   25  C   UNK N   1      22.390  13.608   6.117  0.00  0.00     0.152 C 
HETATM   26  C   UNK N   1      21.690  13.720   7.469  0.00  0.00     0.042 C 
HETATM   27  O   UNK N   1      23.741  14.004   6.166  0.00  0.00    -0.351 OA
BRANCH  22  28
HETATM   28  O   UNK N   1      23.140  17.607   6.082  0.00  0.00    -0.388 OA
HETATM   29  H   UNK N   1      23.950  18.106   6.273  0.00  0.00     0.210 HD
ENDBRANCH  22  28
BRANCH  23  30
HETATM   30  N   UNK N   1      20.967  16.673   4.251  0.00  0.00     0.089 N 
HETATM   31  C   UNK N   1      20.713  18.042   4.682  0.00  0.00     0.310 C 
HETATM   32  C   UNK N   1      21.822  16.826   3.080  0.00  0.00     0.310 C 
ENDBRANCH  23  30
BRANCH  24  33
HETATM   33  O   UNK N   1      20.327  13.883   4.719  0.00  0.00    -0.351 OA
BRANCH  33  34
HETATM   34  C   UNK N   1      20.018  13.355   3.433  0.00  0.00     0.264 C 
HETATM   35  C   UNK N   1      19.179  14.293   2.521  0.00  0.00     0.101 C 
HETATM   36  C   UNK N   1      19.154  13.898   1.047  0.00  0.00     0.087 C 
HETATM   37  C   UNK N   1      18.054  12.877   0.820  0.00  0.00     0.049 C 
HETATM   38  C   UNK N   1      20.529  13.369   0.584  0.00  0.00     0.180 C 
HETATM   39  C   UNK N   1      21.093  12.353   1.584  0.00  0.00     0.152 C 
HETATM   40  C   UNK N   1      20.310  11.042   1.662  0.00  0.00     0.042 C 
HETATM   41  O   UNK N   1      21.253  12.967   2.849  0.00  0.00    -0.354 OA
BRANCH  36  42
HETATM   42  O   UNK N   1      18.837  15.034   0.312  0.00  0.00    -0.387 OA
HETATM   43  H   UNK N   1      19.261  15.881   0.521  0.00  0.00     0.210 HD
ENDBRANCH  36  42
BRANCH  38  44
HETATM   44  O   UNK N   1      21.436  14.431   0.495  0.00  0.00    -0.390 OA
HETATM   45  H   UNK N   1      21.540  15.394   0.547  0.00  0.00     0.210 HD
ENDBRANCH  38  44
ENDBRANCH  33  34
ENDBRANCH  24  33
ENDBRANCH  20  21
ENDBRANCH  16  20
BRANCH  12  46
HETATM   46  C   UNK N   1      26.066  15.009   2.736  0.00  0.00     0.076 C 
BRANCH  46  47
HETATM   47  C   UNK N   1      24.596  14.907   2.465  0.00  0.00     0.231 C 
HETATM   48  O   UNK N   1      24.197  14.701   1.332  0.00  0.00    -0.307 OA
ENDBRANCH  46  47
ENDBRANCH  12  46
BRANCH  17  49
HETATM   49  O   UNK N   1      25.674  18.499   5.182  0.00  0.00    -0.386 OA
HETATM   50  C   UNK N   1      25.339  19.058   3.939  0.00  0.00     0.202 C 
ENDBRANCH  17  49
BRANCH  13  51
HETATM   51  O   UNK N   1      28.308  18.807   5.855  0.00  0.00    -0.392 OA
HETATM   52  H   UNK N   1      28.565  19.309   5.066  0.00  0.00     0.210 HD
ENDBRANCH  13  51
BRANCH  14  53
HETATM   53  O   UNK N   1      26.376  12.032   1.486  0.00  0.00    -0.352 OA
BRANCH  53  54
HETATM   54  C   UNK N   1      25.412  11.014   1.208  0.00  0.00     0.261 C 
HETATM   55  C   UNK N   1      24.432  11.493   0.121  0.00  0.00     0.063 C 
HETATM   56  C   UNK N   1      23.396  10.403  -0.241  0.00  0.00     0.043 C 
HETATM   57  C   UNK N   1      23.614   9.119   0.585  0.00  0.00     0.250 C 
HETATM   58  C   UNK N   1      25.129   8.737   0.511  0.00  0.00     0.153 C 
HETATM   59  C   UNK N   1      25.499   8.192  -0.860  0.00  0.00     0.042 C 
HETATM   60  O   UNK N   1      26.040   9.811   0.788  0.00  0.00    -0.354 OA
BRANCH  57  61
HETATM   61  N   UNK N   1      22.703   8.004   0.232  0.00  0.00     0.087 N 
HETATM   62  C   UNK N   1      21.725   8.364  -0.789  0.00  0.00     0.310 C 
HETATM   63  C   UNK N   1      21.947   7.583   1.405  0.00  0.00     0.310 C 
ENDBRANCH  57  61
ENDBRANCH  53  54
ENDBRANCH  14  53
TORSDOF 15
ENDMDL
MODEL 7
REMARK VINA RESULT:      -7.4      4.376     13.700
REMARK  15 active torsions:
REMARK  status: ('A' for Active; 'I' for Inactive)
REMARK    1  A    between atoms: C_20  and  C_19 
REMARK    2  A    between atoms: C_29  and  C_19 
REMARK    3  A    between atoms: C_30  and  N_44 
REMARK    4  A    between atoms: C_31  and  O_47 
REMARK    5  A    between atoms: C_32  and  O_57 
REMARK    6  A    between atoms: C_34  and  O_57 
REMARK    7  A    between atoms: C_35  and  O_58 
REMARK    8  A    between atoms: C_36  and  N_45 
REMARK    9  A    between atoms: C_37  and  O_49 
REMARK   10  A    between atoms: C_38  and  O_58 
REMARK   11  A    between atoms: C_39  and  O_59 
REMARK   12  A    between atoms: C_40  and  O_52 
REMARK   13  A    between atoms: C_41  and  O_50 
REMARK   14  A    between atoms: C_42  and  O_59 
REMARK   15  A    between atoms: C_43  and  O_51 
ROOT
HETATM    1  C   UNK N   1      37.721  11.118   5.376  0.00  0.00     0.012 C 
HETATM    2  C   UNK N   1      37.433   9.593  14.508  0.00  0.00     0.040 C 
HETATM    3  C   UNK N   1      38.833   8.943   9.919  0.00  0.00    -0.004 C 
HETATM    4  C   UNK N   1      38.252   9.673  10.899  0.00  0.00    -0.024 C 
HETATM    5  C   UNK N   1      39.293   9.514   8.615  0.00  0.00    -0.002 C 
HETATM    6  C   UNK N   1      37.752   9.019  12.152  0.00  0.00     0.059 C 
HETATM    7  C   UNK N   1      39.326  10.835   8.377  0.00  0.00     0.005 C 
HETATM    8  C   UNK N   1      37.008  12.328   7.353  0.00  0.00     0.014 C 
HETATM    9  C   UNK N   1      35.399  11.440  11.088  0.00  0.00     0.145 C 
HETATM   10  C   UNK N   1      38.244  12.061   6.448  0.00  0.00     0.015 C 
HETATM   11  C   UNK N   1      37.028   9.985  13.104  0.00  0.00     0.131 C 
HETATM   12  C   UNK N   1      37.056  13.051   8.717  0.00  0.00     0.024 C 
HETATM   13  C   UNK N   1      34.633  12.767  11.141  0.00  0.00     0.159 C 
HETATM   14  C   UNK N   1      39.589  11.447   7.024  0.00  0.00     0.151 C 
HETATM   15  C   UNK N   1      34.862  10.408  12.049  0.00  0.00     0.261 C 
HETATM   16  C   UNK N   1      35.815  13.962   9.029  0.00  0.00     0.160 C 
HETATM   17  C   UNK N   1      35.421  13.990  10.549  0.00  0.00     0.179 C 
HETATM   18  O   UNK N   1      33.676  10.110  12.012  0.00  0.00    -0.265 OA
HETATM   19  O   UNK N   1      35.651   9.851  13.007  0.00  0.00    -0.316 OA
ENDROOT
BRANCH  16  20
HETATM   20  O   UNK N   1      34.671  13.720   8.196  0.00  0.00    -0.350 OA
BRANCH  20  21
HETATM   21  C   UNK N   1      34.286  14.888   7.452  0.00  0.00     0.291 C 
HETATM   22  C   UNK N   1      33.876  14.514   5.994  0.00  0.00     0.209 C 
HETATM   23  C   UNK N   1      33.167  15.663   5.221  0.00  0.00     0.286 C 
HETATM   24  C   UNK N   1      32.053  16.234   6.161  0.00  0.00     0.189 C 
HETATM   25  C   UNK N   1      32.752  16.692   7.479  0.00  0.00     0.152 C 
HETATM   26  C   UNK N   1      33.781  17.804   7.286  0.00  0.00     0.042 C 
HETATM   27  O   UNK N   1      33.275  15.578   8.164  0.00  0.00    -0.351 OA
BRANCH  22  28
HETATM   28  O   UNK N   1      35.028  14.100   5.319  0.00  0.00    -0.388 OA
HETATM   29  H   UNK N   1      35.885  13.915   5.733  0.00  0.00     0.210 HD
ENDBRANCH  22  28
BRANCH  23  30
HETATM   30  N   UNK N   1      32.594  15.159   3.939  0.00  0.00     0.089 N 
HETATM   31  C   UNK N   1      33.519  15.333   2.827  0.00  0.00     0.310 C 
HETATM   32  C   UNK N   1      32.352  13.721   3.973  0.00  0.00     0.310 C 
ENDBRANCH  23  30
BRANCH  24  33
HETATM   33  O   UNK N   1      31.347  17.272   5.486  0.00  0.00    -0.351 OA
BRANCH  33  34
HETATM   34  C   UNK N   1      29.923  17.213   5.465  0.00  0.00     0.264 C 
HETATM   35  C   UNK N   1      29.257  16.918   6.839  0.00  0.00     0.101 C 
HETATM   36  C   UNK N   1      27.760  17.207   6.898  0.00  0.00     0.087 C 
HETATM   37  C   UNK N   1      26.994  15.997   6.393  0.00  0.00     0.049 C 
HETATM   38  C   UNK N   1      27.402  18.482   6.105  0.00  0.00     0.180 C 
HETATM   39  C   UNK N   1      28.072  18.478   4.725  0.00  0.00     0.152 C 
HETATM   40  C   UNK N   1      27.544  17.406   3.771  0.00  0.00     0.042 C 
HETATM   41  O   UNK N   1      29.477  18.426   4.877  0.00  0.00    -0.354 OA
BRANCH  36  42
HETATM   42  O   UNK N   1      27.421  17.397   8.233  0.00  0.00    -0.387 OA
HETATM   43  H   UNK N   1      27.763  16.794   8.911  0.00  0.00     0.210 HD
ENDBRANCH  36  42
BRANCH  38  44
HETATM   44  O   UNK N   1      27.855  19.611   6.796  0.00  0.00    -0.390 OA
HETATM   45  H   UNK N   1      28.404  20.409   6.742  0.00  0.00     0.210 HD
ENDBRANCH  38  44
ENDBRANCH  33  34
ENDBRANCH  24  33
ENDBRANCH  20  21
ENDBRANCH  16  20
BRANCH  12  46
HETATM   46  C   UNK N   1      38.367  13.830   8.968  0.00  0.00     0.076 C 
BRANCH  46  47
HETATM   47  C   UNK N   1      39.086  13.390  10.206  0.00  0.00     0.231 C 
HETATM   48  O   UNK N   1      38.455  13.000  11.172  0.00  0.00    -0.307 OA
ENDBRANCH  46  47
ENDBRANCH  12  46
BRANCH  17  49
HETATM   49  O   UNK N   1      34.797  15.227  10.871  0.00  0.00    -0.386 OA
HETATM   50  C   UNK N   1      35.687  16.305  10.744  0.00  0.00     0.202 C 
ENDBRANCH  17  49
BRANCH  13  51
HETATM   51  O   UNK N   1      34.333  13.061  12.477  0.00  0.00    -0.392 OA
HETATM   52  H   UNK N   1      33.846  13.804  12.866  0.00  0.00     0.210 HD
ENDBRANCH  13  51
BRANCH  14  53
HETATM   53  O   UNK N   1      40.635  12.416   7.130  0.00  0.00    -0.352 OA
BRANCH  53  54
HETATM   54  C   UNK N   1      41.918  11.819   6.932  0.00  0.00     0.261 C 
HETATM   55  C   UNK N   1      42.597  11.554   8.288  0.00  0.00     0.063 C 
HETATM   56  C   UNK N   1      43.973  10.867   8.120  0.00  0.00     0.043 C 
HETATM   57  C   UNK N   1      44.307  10.628   6.634  0.00  0.00     0.250 C 
HETATM   58  C   UNK N   1      43.069   9.956   5.953  0.00  0.00     0.153 C 
HETATM   59  C   UNK N   1      42.913   8.507   6.388  0.00  0.00     0.042 C 
HETATM   60  O   UNK N   1      41.812  10.601   6.206  0.00  0.00    -0.354 OA
BRANCH  57  61
HETATM   61  N   UNK N   1      45.578   9.901   6.403  0.00  0.00     0.087 N 
HETATM   62  C   UNK N   1      46.541  10.073   7.485  0.00  0.00     0.310 C 
HETATM   63  C   UNK N   1      46.222  10.386   5.189  0.00  0.00     0.310 C 
ENDBRANCH  57  61
ENDBRANCH  53  54
ENDBRANCH  14  53
TORSDOF 15
ENDMDL
MODEL 8
REMARK VINA RESULT:      -7.3      3.742      8.356
REMARK  15 active torsions:
REMARK  status: ('A' for Active; 'I' for Inactive)
REMARK    1  A    between atoms: C_20  and  C_19 
REMARK    2  A    between atoms: C_29  and  C_19 
REMARK    3  A    between atoms: C_30  and  N_44 
REMARK    4  A    between atoms: C_31  and  O_47 
REMARK    5  A    between atoms: C_32  and  O_57 
REMARK    6  A    between atoms: C_34  and  O_57 
REMARK    7  A    between atoms: C_35  and  O_58 
REMARK    8  A    between atoms: C_36  and  N_45 
REMARK    9  A    between atoms: C_37  and  O_49 
REMARK   10  A    between atoms: C_38  and  O_58 
REMARK   11  A    between atoms: C_39  and  O_59 
REMARK   12  A    between atoms: C_40  and  O_52 
REMARK   13  A    between atoms: C_41  and  O_50 
REMARK   14  A    between atoms: C_42  and  O_59 
REMARK   15  A    between atoms: C_43  and  O_51 
ROOT
HETATM    1  C   UNK N   1      26.304  15.275   1.441  0.00  0.00     0.012 C 
HETATM    2  C   UNK N   1      17.953  11.874   3.558  0.00  0.00     0.040 C 
HETATM    3  C   UNK N   1      21.750  12.951   0.755  0.00  0.00    -0.004 C 
HETATM    4  C   UNK N   1      21.168  12.781   1.964  0.00  0.00    -0.024 C 
HETATM    5  C   UNK N   1      23.231  12.978   0.539  0.00  0.00    -0.002 C 
HETATM    6  C   UNK N   1      19.678  12.836   2.115  0.00  0.00     0.059 C 
HETATM    7  C   UNK N   1      24.108  12.661   1.505  0.00  0.00     0.005 C 
HETATM    8  C   UNK N   1      25.114  14.624   3.451  0.00  0.00     0.014 C 
HETATM    9  C   UNK N   1      21.180  14.568   4.811  0.00  0.00     0.145 C 
HETATM   10  C   UNK N   1      26.038  14.071   2.330  0.00  0.00     0.015 C 
HETATM   11  C   UNK N   1      19.201  12.728   3.573  0.00  0.00     0.131 C 
HETATM   12  C   UNK N   1      24.373  13.755   4.491  0.00  0.00     0.024 C 
HETATM   13  C   UNK N   1      21.615  14.791   6.265  0.00  0.00     0.159 C 
HETATM   14  C   UNK N   1      25.598  12.864   1.399  0.00  0.00     0.151 C 
HETATM   15  C   UNK N   1      19.727  14.898   4.572  0.00  0.00     0.261 C 
HETATM   16  C   UNK N   1      24.262  14.387   5.925  0.00  0.00     0.160 C 
HETATM   17  C   UNK N   1      22.926  14.028   6.669  0.00  0.00     0.179 C 
HETATM   18  O   UNK N   1      19.301  16.002   4.881  0.00  0.00    -0.265 OA
HETATM   19  O   UNK N   1      18.859  13.971   4.084  0.00  0.00    -0.316 OA
ENDROOT
BRANCH  16  20
HETATM   20  O   UNK N   1      24.529  15.796   5.980  0.00  0.00    -0.350 OA
BRANCH  20  21
HETATM   21  C   UNK N   1      25.823  16.124   5.445  0.00  0.00     0.291 C 
HETATM   22  C   UNK N   1      25.950  17.656   5.183  0.00  0.00     0.209 C 
HETATM   23  C   UNK N   1      27.402  18.131   4.892  0.00  0.00     0.286 C 
HETATM   24  C   UNK N   1      28.323  17.506   5.994  0.00  0.00     0.189 C 
HETATM   25  C   UNK N   1      28.134  15.959   5.928  0.00  0.00     0.152 C 
HETATM   26  C   UNK N   1      28.551  15.335   4.599  0.00  0.00     0.042 C 
HETATM   27  O   UNK N   1      26.823  15.613   6.307  0.00  0.00    -0.351 OA
BRANCH  22  28
HETATM   28  O   UNK N   1      25.100  17.981   4.122  0.00  0.00    -0.388 OA
HETATM   29  H   UNK N   1      25.050  18.846   3.687  0.00  0.00     0.210 HD
ENDBRANCH  22  28
BRANCH  23  30
HETATM   30  N   UNK N   1      27.479  19.620   4.895  0.00  0.00     0.089 N 
HETATM   31  C   UNK N   1      26.986  20.191   3.648  0.00  0.00     0.310 C 
HETATM   32  C   UNK N   1      26.623  20.212   5.916  0.00  0.00     0.310 C 
ENDBRANCH  23  30
BRANCH  24  33
HETATM   33  O   UNK N   1      29.666  17.939   5.792  0.00  0.00    -0.351 OA
BRANCH  33  34
HETATM   34  C   UNK N   1      30.709  17.219   6.445  0.00  0.00     0.264 C 
HETATM   35  C   UNK N   1      32.094  17.287   5.743  0.00  0.00     0.101 C 
HETATM   36  C   UNK N   1      33.270  16.835   6.605  0.00  0.00     0.087 C 
HETATM   37  C   UNK N   1      33.417  15.328   6.504  0.00  0.00     0.049 C 
HETATM   38  C   UNK N   1      33.103  17.296   8.069  0.00  0.00     0.180 C 
HETATM   39  C   UNK N   1      31.689  16.999   8.582  0.00  0.00     0.152 C 
HETATM   40  C   UNK N   1      31.371  15.510   8.727  0.00  0.00     0.042 C 
HETATM   41  O   UNK N   1      30.739  17.682   7.787  0.00  0.00    -0.354 OA
BRANCH  36  42
HETATM   42  O   UNK N   1      34.421  17.410   6.079  0.00  0.00    -0.387 OA
HETATM   43  H   UNK N   1      35.189  16.855   5.871  0.00  0.00     0.210 HD
ENDBRANCH  36  42
BRANCH  38  44
HETATM   44  O   UNK N   1      33.307  18.678   8.154  0.00  0.00    -0.390 OA
HETATM   45  H   UNK N   1      33.164  19.470   8.696  0.00  0.00     0.210 HD
ENDBRANCH  38  44
ENDBRANCH  33  34
ENDBRANCH  24  33
ENDBRANCH  20  21
ENDBRANCH  16  20
BRANCH  12  46
HETATM   46  C   UNK N   1      24.901  12.305   4.585  0.00  0.00     0.076 C 
BRANCH  46  47
HETATM   47  C   UNK N   1      26.121  12.178   5.445  0.00  0.00     0.231 C 
HETATM   48  O   UNK N   1      27.217  12.034   4.933  0.00  0.00    -0.307 OA
ENDBRANCH  46  47
ENDBRANCH  12  46
BRANCH  17  49
HETATM   49  O   UNK N   1      23.131  14.037   8.076  0.00  0.00    -0.386 OA
HETATM   50  C   UNK N   1      24.176  13.180   8.454  0.00  0.00     0.202 C 
ENDBRANCH  17  49
BRANCH  13  51
HETATM   51  O   UNK N   1      20.590  14.356   7.113  0.00  0.00    -0.392 OA
HETATM   52  H   UNK N   1      20.539  14.333   8.082  0.00  0.00     0.210 HD
ENDBRANCH  13  51
BRANCH  14  53
HETATM   53  O   UNK N   1      26.273  11.645   1.721  0.00  0.00    -0.352 OA
BRANCH  53  54
HETATM   54  C   UNK N   1      27.427  11.457   0.899  0.00  0.00     0.261 C 
HETATM   55  C   UNK N   1      28.648  12.148   1.530  0.00  0.00     0.063 C 
HETATM   56  C   UNK N   1      29.930  11.933   0.691  0.00  0.00     0.043 C 
HETATM   57  C   UNK N   1      29.648  11.080  -0.562  0.00  0.00     0.250 C 
HETATM   58  C   UNK N   1      28.842   9.813  -0.125  0.00  0.00     0.153 C 
HETATM   59  C   UNK N   1      29.720   8.827   0.629  0.00  0.00     0.042 C 
HETATM   60  O   UNK N   1      27.704  10.076   0.711  0.00  0.00    -0.354 OA
BRANCH  57  61
HETATM   61  N   UNK N   1      30.850  10.767  -1.371  0.00  0.00     0.087 N 
HETATM   62  C   UNK N   1      31.894  11.779  -1.260  0.00  0.00     0.310 C 
HETATM   63  C   UNK N   1      30.498  10.683  -2.783  0.00  0.00     0.310 C 
ENDBRANCH  57  61
ENDBRANCH  53  54
ENDBRANCH  14  53
TORSDOF 15
ENDMDL
MODEL 9
REMARK VINA RESULT:      -7.3      4.027     11.716
REMARK  15 active torsions:
REMARK  status: ('A' for Active; 'I' for Inactive)
REMARK    1  A    between atoms: C_20  and  C_19 
REMARK    2  A    between atoms: C_29  and  C_19 
REMARK    3  A    between atoms: C_30  and  N_44 
REMARK    4  A    between atoms: C_31  and  O_47 
REMARK    5  A    between atoms: C_32  and  O_57 
REMARK    6  A    between atoms: C_34  and  O_57 
REMARK    7  A    between atoms: C_35  and  O_58 
REMARK    8  A    between atoms: C_36  and  N_45 
REMARK    9  A    between atoms: C_37  and  O_49 
REMARK   10  A    between atoms: C_38  and  O_58 
REMARK   11  A    between atoms: C_39  and  O_59 
REMARK   12  A    between atoms: C_40  and  O_52 
REMARK   13  A    between atoms: C_41  and  O_50 
REMARK   14  A    between atoms: C_42  and  O_59 
REMARK   15  A    between atoms: C_43  and  O_51 
ROOT
HETATM    1  C   UNK N   1      26.363  11.492   4.840  0.00  0.00     0.012 C 
HETATM    2  C   UNK N   1      33.279  17.579   5.794  0.00  0.00     0.040 C 
HETATM    3  C   UNK N   1      31.195  13.295   4.935  0.00  0.00    -0.004 C 
HETATM    4  C   UNK N   1      31.149  14.640   5.067  0.00  0.00    -0.024 C 
HETATM    5  C   UNK N   1      30.132  12.486   4.259  0.00  0.00    -0.002 C 
HETATM    6  C   UNK N   1      32.217  15.376   5.819  0.00  0.00     0.059 C 
HETATM    7  C   UNK N   1      29.125  13.048   3.572  0.00  0.00     0.005 C 
HETATM    8  C   UNK N   1      26.613  13.904   4.839  0.00  0.00     0.014 C 
HETATM    9  C   UNK N   1      29.060  16.741   6.654  0.00  0.00     0.145 C 
HETATM   10  C   UNK N   1      26.650  12.659   3.908  0.00  0.00     0.015 C 
HETATM   11  C   UNK N   1      31.946  16.883   5.957  0.00  0.00     0.131 C 
HETATM   12  C   UNK N   1      27.060  15.324   4.428  0.00  0.00     0.024 C 
HETATM   13  C   UNK N   1      27.944  17.793   6.653  0.00  0.00     0.159 C 
HETATM   14  C   UNK N   1      27.931  12.293   3.046  0.00  0.00     0.151 C 
HETATM   15  C   UNK N   1      30.168  17.055   7.628  0.00  0.00     0.261 C 
HETATM   16  C   UNK N   1      26.209  16.492   5.045  0.00  0.00     0.160 C 
HETATM   17  C   UNK N   1      27.048  17.782   5.363  0.00  0.00     0.179 C 
HETATM   18  O   UNK N   1      29.897  17.254   8.804  0.00  0.00    -0.265 OA
HETATM   19  O   UNK N   1      31.457  17.194   7.218  0.00  0.00    -0.316 OA
ENDROOT
BRANCH  16  20
HETATM   20  O   UNK N   1      25.392  16.111   6.162  0.00  0.00    -0.350 OA
BRANCH  20  21
HETATM   21  C   UNK N   1      24.005  15.992   5.803  0.00  0.00     0.291 C 
HETATM   22  C   UNK N   1      23.525  17.239   4.998  0.00  0.00     0.209 C 
HETATM   23  C   UNK N   1      22.138  17.060   4.319  0.00  0.00     0.286 C 
HETATM   24  C   UNK N   1      22.163  15.683   3.573  0.00  0.00     0.189 C 
HETATM   25  C   UNK N   1      22.497  14.590   4.634  0.00  0.00     0.152 C 
HETATM   26  C   UNK N   1      21.464  14.468   5.752  0.00  0.00     0.042 C 
HETATM   27  O   UNK N   1      23.807  14.768   5.119  0.00  0.00    -0.351 OA
BRANCH  22  28
HETATM   28  O   UNK N   1      23.513  18.332   5.870  0.00  0.00    -0.388 OA
HETATM   29  H   UNK N   1      22.721  18.813   6.156  0.00  0.00     0.210 HD
ENDBRANCH  22  28
BRANCH  23  30
HETATM   30  N   UNK N   1      21.862  18.185   3.380  0.00  0.00     0.089 N 
HETATM   31  C   UNK N   1      20.665  18.925   3.757  0.00  0.00     0.310 C 
HETATM   32  C   UNK N   1      22.918  19.190   3.402  0.00  0.00     0.310 C 
ENDBRANCH  23  30
BRANCH  24  33
HETATM   33  O   UNK N   1      20.921  15.483   2.902  0.00  0.00    -0.351 OA
BRANCH  33  34
HETATM   34  C   UNK N   1      20.628  14.181   2.405  0.00  0.00     0.264 C 
HETATM   35  C   UNK N   1      19.258  13.598   2.855  0.00  0.00     0.101 C 
HETATM   36  C   UNK N   1      18.785  12.387   2.054  0.00  0.00     0.087 C 
HETATM   37  C   UNK N   1      19.389  11.127   2.646  0.00  0.00     0.049 C 
HETATM   38  C   UNK N   1      19.127  12.536   0.556  0.00  0.00     0.180 C 
HETATM   39  C   UNK N   1      20.579  12.992   0.365  0.00  0.00     0.152 C 
HETATM   40  C   UNK N   1      21.625  11.958   0.781  0.00  0.00     0.042 C 
HETATM   41  O   UNK N   1      20.772  14.245   0.994  0.00  0.00    -0.354 OA
BRANCH  36  42
HETATM   42  O   UNK N   1      17.405  12.304   2.195  0.00  0.00    -0.387 OA
HETATM   43  H   UNK N   1      16.987  11.448   2.383  0.00  0.00     0.210 HD
ENDBRANCH  36  42
BRANCH  38  44
HETATM   44  O   UNK N   1      18.296  13.501  -0.024  0.00  0.00    -0.390 OA
HETATM   45  H   UNK N   1      18.220  14.434  -0.279  0.00  0.00     0.210 HD
ENDBRANCH  38  44
ENDBRANCH  33  34
ENDBRANCH  24  33
ENDBRANCH  20  21
ENDBRANCH  16  20
BRANCH  12  46
HETATM   46  C   UNK N   1      27.204  15.518   2.901  0.00  0.00     0.076 C 
BRANCH  46  47
HETATM   47  C   UNK N   1      25.920  15.902   2.233  0.00  0.00     0.231 C 
HETATM   48  O   UNK N   1      25.203  15.043   1.750  0.00  0.00    -0.307 OA
ENDBRANCH  46  47
ENDBRANCH  12  46
BRANCH  17  49
HETATM   49  O   UNK N   1      26.222  18.936   5.283  0.00  0.00    -0.386 OA
HETATM   50  C   UNK N   1      26.435  19.645   4.090  0.00  0.00     0.202 C 
ENDBRANCH  17  49
BRANCH  13  51
HETATM   51  O   UNK N   1      28.523  19.064   6.757  0.00  0.00    -0.392 OA
HETATM   52  H   UNK N   1      28.939  19.625   6.085  0.00  0.00     0.210 HD
ENDBRANCH  13  51
BRANCH  14  53
HETATM   53  O   UNK N   1      27.758  12.575   1.655  0.00  0.00    -0.352 OA
BRANCH  53  54
HETATM   54  C   UNK N   1      28.274  11.518   0.843  0.00  0.00     0.261 C 
HETATM   55  C   UNK N   1      29.591  11.954   0.177  0.00  0.00     0.063 C 
HETATM   56  C   UNK N   1      30.207  10.822  -0.679  0.00  0.00     0.043 C 
HETATM   57  C   UNK N   1      29.337   9.550  -0.643  0.00  0.00     0.250 C 
HETATM   58  C   UNK N   1      28.993   9.230   0.850  0.00  0.00     0.153 C 
HETATM   59  C   UNK N   1      30.205   8.699   1.599  0.00  0.00     0.042 C 
HETATM   60  O   UNK N   1      28.493  10.341   1.609  0.00  0.00    -0.354 OA
BRANCH  57  61
HETATM   61  N   UNK N   1      29.909   8.398  -1.379  0.00  0.00     0.087 N 
HETATM   62  C   UNK N   1      30.840   8.794  -2.429  0.00  0.00     0.310 C 
HETATM   63  C   UNK N   1      28.848   7.637  -2.026  0.00  0.00     0.310 C 
ENDBRANCH  57  61
ENDBRANCH  53  54
ENDBRANCH  14  53
TORSDOF 15
ENDMDL
