MODEL 1
REMARK VINA RESULT:      -1.3      0.000      0.000
REMARK  4 active torsions:
REMARK  status: ('A' for Active; 'I' for Inactive)
REMARK    1  A    between atoms: Fe_1  and  Fe_1 
REMARK    2  A    between atoms: Fe_2  and  Fe_2 
REMARK    3  A    between atoms: Fe_3  and  Fe_3 
REMARK    4  A    between atoms: Fe_4  and  Fe_4 
ROOT
HETATM    1 Fe   UNK N   1      38.596  29.706  19.362  0.00  0.00     0.000 Fe
ENDROOT
TORSDOF 4
ENDMDL
MODEL 2
REMARK VINA RESULT:      -1.2     10.767     10.767
REMARK  4 active torsions:
REMARK  status: ('A' for Active; 'I' for Inactive)
REMARK    1  A    between atoms: Fe_1  and  Fe_1 
REMARK    2  A    between atoms: Fe_2  and  Fe_2 
REMARK    3  A    between atoms: Fe_3  and  Fe_3 
REMARK    4  A    between atoms: Fe_4  and  Fe_4 
ROOT
HETATM    1 Fe   UNK N   1      39.964  21.073  13.075  0.00  0.00     0.000 Fe
ENDROOT
TORSDOF 4
ENDMDL
MODEL 3
REMARK VINA RESULT:      -1.2     11.042     11.042
REMARK  4 active torsions:
REMARK  status: ('A' for Active; 'I' for Inactive)
REMARK    1  A    between atoms: Fe_1  and  Fe_1 
REMARK    2  A    between atoms: Fe_2  and  Fe_2 
REMARK    3  A    between atoms: Fe_3  and  Fe_3 
REMARK    4  A    between atoms: Fe_4  and  Fe_4 
ROOT
HETATM    1 Fe   UNK N   1      35.636  21.382  12.738  0.00  0.00     0.000 Fe
ENDROOT
TORSDOF 4
ENDMDL
MODEL 4
REMARK VINA RESULT:      -1.2     31.889     31.889
REMARK  4 active torsions:
REMARK  status: ('A' for Active; 'I' for Inactive)
REMARK    1  A    between atoms: Fe_1  and  Fe_1 
REMARK    2  A    between atoms: Fe_2  and  Fe_2 
REMARK    3  A    between atoms: Fe_3  and  Fe_3 
REMARK    4  A    between atoms: Fe_4  and  Fe_4 
ROOT
HETATM    1 Fe   UNK N   1      21.453  21.778  -6.332  0.00  0.00     0.000 Fe
ENDROOT
TORSDOF 4
ENDMDL
MODEL 5
REMARK VINA RESULT:      -1.1     15.613     15.613
REMARK  4 active torsions:
REMARK  status: ('A' for Active; 'I' for Inactive)
REMARK    1  A    between atoms: Fe_1  and  Fe_1 
REMARK    2  A    between atoms: Fe_2  and  Fe_2 
REMARK    3  A    between atoms: Fe_3  and  Fe_3 
REMARK    4  A    between atoms: Fe_4  and  Fe_4 
ROOT
HETATM    1 Fe   UNK N   1      43.320  25.304   5.147  0.00  0.00     0.000 Fe
ENDROOT
TORSDOF 4
ENDMDL
MODEL 6
REMARK VINA RESULT:      -1.1     10.189     10.189
REMARK  4 active torsions:
REMARK  status: ('A' for Active; 'I' for Inactive)
REMARK    1  A    between atoms: Fe_1  and  Fe_1 
REMARK    2  A    between atoms: Fe_2  and  Fe_2 
REMARK    3  A    between atoms: Fe_3  and  Fe_3 
REMARK    4  A    between atoms: Fe_4  and  Fe_4 
ROOT
HETATM    1 Fe   UNK N   1      45.119  25.582  12.711  0.00  0.00     0.000 Fe
ENDROOT
TORSDOF 4
ENDMDL
MODEL 7
REMARK VINA RESULT:      -1.1      7.085      7.085
REMARK  4 active torsions:
REMARK  status: ('A' for Active; 'I' for Inactive)
REMARK    1  A    between atoms: Fe_1  and  Fe_1 
REMARK    2  A    between atoms: Fe_2  and  Fe_2 
REMARK    3  A    between atoms: Fe_3  and  Fe_3 
REMARK    4  A    between atoms: Fe_4  and  Fe_4 
ROOT
HETATM    1 Fe   UNK N   1      31.932  29.579  16.958  0.00  0.00     0.000 Fe
ENDROOT
TORSDOF 4
ENDMDL
MODEL 8
REMARK VINA RESULT:      -1.0      9.040      9.040
REMARK  4 active torsions:
REMARK  status: ('A' for Active; 'I' for Inactive)
REMARK    1  A    between atoms: Fe_1  and  Fe_1 
REMARK    2  A    between atoms: Fe_2  and  Fe_2 
REMARK    3  A    between atoms: Fe_3  and  Fe_3 
REMARK    4  A    between atoms: Fe_4  and  Fe_4 
ROOT
HETATM    1 Fe   UNK N   1      41.691  21.639  22.017  0.00  0.00     0.000 Fe
ENDROOT
TORSDOF 4
ENDMDL
MODEL 9
REMARK VINA RESULT:      -0.9     24.671     24.671
REMARK  4 active torsions:
REMARK  status: ('A' for Active; 'I' for Inactive)
REMARK    1  A    between atoms: Fe_1  and  Fe_1 
REMARK    2  A    between atoms: Fe_2  and  Fe_2 
REMARK    3  A    between atoms: Fe_3  and  Fe_3 
REMARK    4  A    between atoms: Fe_4  and  Fe_4 
ROOT
HETATM    1 Fe   UNK N   1      17.494  20.405  10.597  0.00  0.00     0.000 Fe
ENDROOT
TORSDOF 4
ENDMDL
