MODEL 1
REMARK VINA RESULT:      -1.3      0.000      0.000
REMARK  2 active torsions:
REMARK  status: ('A' for Active; 'I' for Inactive)
REMARK    1  A    between atoms: K_1  and  K_1 
REMARK    2  A    between atoms: I_2  and  I_2 
ROOT
HETATM    1  K   UNK N   1      38.596  29.706  19.362  0.00  0.00     0.000 K 
ENDROOT
TORSDOF 2
ENDMDL
MODEL 2
REMARK VINA RESULT:      -1.2     11.042     11.042
REMARK  2 active torsions:
REMARK  status: ('A' for Active; 'I' for Inactive)
REMARK    1  A    between atoms: K_1  and  K_1 
REMARK    2  A    between atoms: I_2  and  I_2 
ROOT
HETATM    1  K   UNK N   1      35.636  21.382  12.738  0.00  0.00     0.000 K 
ENDROOT
TORSDOF 2
ENDMDL
MODEL 3
REMARK VINA RESULT:      -1.1     15.613     15.613
REMARK  2 active torsions:
REMARK  status: ('A' for Active; 'I' for Inactive)
REMARK    1  A    between atoms: K_1  and  K_1 
REMARK    2  A    between atoms: I_2  and  I_2 
ROOT
HETATM    1  K   UNK N   1      43.320  25.304   5.147  0.00  0.00     0.000 K 
ENDROOT
TORSDOF 2
ENDMDL
MODEL 4
REMARK VINA RESULT:      -1.1     10.189     10.189
REMARK  2 active torsions:
REMARK  status: ('A' for Active; 'I' for Inactive)
REMARK    1  A    between atoms: K_1  and  K_1 
REMARK    2  A    between atoms: I_2  and  I_2 
ROOT
HETATM    1  K   UNK N   1      45.119  25.582  12.711  0.00  0.00     0.000 K 
ENDROOT
TORSDOF 2
ENDMDL
MODEL 5
REMARK VINA RESULT:      -1.0      9.039      9.039
REMARK  2 active torsions:
REMARK  status: ('A' for Active; 'I' for Inactive)
REMARK    1  A    between atoms: K_1  and  K_1 
REMARK    2  A    between atoms: I_2  and  I_2 
ROOT
HETATM    1  K   UNK N   1      41.691  21.639  22.017  0.00  0.00     0.000 K 
ENDROOT
TORSDOF 2
ENDMDL
MODEL 6
REMARK VINA RESULT:      -1.0      8.596      8.596
REMARK  2 active torsions:
REMARK  status: ('A' for Active; 'I' for Inactive)
REMARK    1  A    between atoms: K_1  and  K_1 
REMARK    2  A    between atoms: I_2  and  I_2 
ROOT
HETATM    1  K   UNK N   1      32.042  29.153  24.897  0.00  0.00     0.000 K 
ENDROOT
TORSDOF 2
ENDMDL
MODEL 7
REMARK VINA RESULT:      -1.0      4.994      4.994
REMARK  2 active torsions:
REMARK  status: ('A' for Active; 'I' for Inactive)
REMARK    1  A    between atoms: K_1  and  K_1 
REMARK    2  A    between atoms: I_2  and  I_2 
ROOT
HETATM    1  K   UNK N   1      42.899  29.357  16.852  0.00  0.00     0.000 K 
ENDROOT
TORSDOF 2
ENDMDL
MODEL 8
REMARK VINA RESULT:      -1.0     11.888     11.888
REMARK  2 active torsions:
REMARK  status: ('A' for Active; 'I' for Inactive)
REMARK    1  A    between atoms: K_1  and  K_1 
REMARK    2  A    between atoms: I_2  and  I_2 
ROOT
HETATM    1  K   UNK N   1      35.995  21.678  10.990  0.00  0.00     0.000 K 
ENDROOT
TORSDOF 2
ENDMDL
MODEL 9
REMARK VINA RESULT:      -1.0     25.523     25.523
REMARK  2 active torsions:
REMARK  status: ('A' for Active; 'I' for Inactive)
REMARK    1  A    between atoms: K_1  and  K_1 
REMARK    2  A    between atoms: I_2  and  I_2 
ROOT
HETATM    1  K   UNK N   1      17.313  25.063   6.062  0.00  0.00     0.000 K 
ENDROOT
TORSDOF 2
ENDMDL
