MODEL 1
REMARK VINA RESULT:      -3.2      0.000      0.000
REMARK WARNING: 32 MAX_TORS EXCEEDED!!!
REMARK  55 active torsions:
REMARK  status: ('A' for Active; 'I' for Inactive)
REMARK    1  A    between atoms: N_72  and  C_4 
REMARK    2  A    between atoms: C_16  and  C_10 
REMARK    3  A    between atoms: C_24  and  C_10 
REMARK    4  A    between atoms: C_48  and  C_16 
REMARK    5  A    between atoms: N_74  and  C_24 
REMARK    6  A    between atoms: C_38  and  C_26 
REMARK    7  A    between atoms: C_49  and  C_26 
REMARK    8  A    between atoms: C_39  and  C_27 
REMARK    9  A    between atoms: C_50  and  C_27 
REMARK   10  A    between atoms: C_41  and  C_28 
REMARK   11  A    between atoms: C_51  and  C_28 
REMARK   12  A    between atoms: C_42  and  C_29 
REMARK   13  A    between atoms: C_52  and  C_29 
REMARK   14  A    between atoms: C_43  and  C_30 
REMARK   15  A    between atoms: C_53  and  C_30 
REMARK   16  A    between atoms: C_40  and  C_33 
REMARK   17  A    between atoms: N_95  and  C_33 
REMARK   18  A    between atoms: C_54  and  C_35 
REMARK   19  A    between atoms: O_97  and  C_35 
REMARK   20  A    between atoms: O_98  and  C_44 
REMARK   21  A    between atoms: C_47  and  C_57 
REMARK   22  A    between atoms: C_65  and  C_48 
REMARK   23  A    between atoms: C_48  and  N_81 
REMARK   24  A    between atoms: C_58  and  C_49 
REMARK   25  A    between atoms: C_49  and  N_83 
REMARK   26  A    between atoms: C_59  and  C_50 
REMARK   27  A    between atoms: C_50  and  N_85 
REMARK   28  A    between atoms: C_60  and  C_51 
REMARK   29  A    between atoms: C_51  and  N_87 
REMARK   30  A    between atoms: C_61  and  C_52 
REMARK   31  A    between atoms: C_52  and  N_89 
REMARK   32  A    between atoms: C_62  and  C_53 
REMARK   33  A    between atoms: C_53  and  N_91 
REMARK   34  A    between atoms: C_63  and  C_54 
REMARK   35  A    between atoms: C_54  and  N_93 
REMARK   36  A    between atoms: C_55  and  C_64 
REMARK   37  A    between atoms: O_99  and  C_56 
REMARK   38  A    between atoms: N_89  and  C_57 
REMARK   39  A    between atoms: C_57  and  O_100 
REMARK   40  A    between atoms: N_81  and  C_58 
REMARK   41  A    between atoms: C_58  and  O_101 
REMARK   42  A    between atoms: N_91  and  C_59 
REMARK   43  A    between atoms: C_59  and  O_102 
REMARK   44  A    between atoms: N_93  and  C_60 
REMARK   45  A    between atoms: C_60  and  O_103 
REMARK   46  A    between atoms: N_87  and  C_61 
REMARK   47  A    between atoms: C_61  and  O_104 
REMARK   48  A    between atoms: N_83  and  C_62 
REMARK   49  A    between atoms: C_62  and  O_105 
REMARK   50  A    between atoms: N_85  and  C_63 
REMARK   51  A    between atoms: C_63  and  O_106 
REMARK   52  A    between atoms: N_72  and  C_64 
REMARK   53  A    between atoms: O_107  and  C_64 
REMARK       I    between atoms: N_96  and  C_65 
REMARK       I    between atoms: N_67  and  C_66 
REMARK       I    between atoms: N_69  and  C_66 
REMARK       I    between atoms: N_74  and  C_66 
REMARK   54  A    between atoms: O_112  and  C_110 
REMARK   55  A    between atoms: O_116  and  C_114 
ROOT
HETATM    1  C   UNK N   1      17.753  26.694   8.849  0.00  0.00     0.125 C 
HETATM    2  C   UNK N   1      18.740  26.467   9.940  0.00  0.00     0.135 C 
HETATM    3  O   UNK N   1      19.475  27.373  10.296  0.00  0.00    -0.650 OA
ENDROOT
BRANCH   2   4
HETATM    4  O   UNK N   1      18.830  25.259  10.524  0.00  0.00    -0.777 OA
HETATM    5  H   UNK N   1      18.393  24.437  10.417  0.00  0.00     0.167 HD
ENDBRANCH   2   4
TORSDOF 55
ENDMDL
MODEL 2
REMARK VINA RESULT:      -2.9     10.674     10.953
REMARK WARNING: 32 MAX_TORS EXCEEDED!!!
REMARK  55 active torsions:
REMARK  status: ('A' for Active; 'I' for Inactive)
REMARK    1  A    between atoms: N_72  and  C_4 
REMARK    2  A    between atoms: C_16  and  C_10 
REMARK    3  A    between atoms: C_24  and  C_10 
REMARK    4  A    between atoms: C_48  and  C_16 
REMARK    5  A    between atoms: N_74  and  C_24 
REMARK    6  A    between atoms: C_38  and  C_26 
REMARK    7  A    between atoms: C_49  and  C_26 
REMARK    8  A    between atoms: C_39  and  C_27 
REMARK    9  A    between atoms: C_50  and  C_27 
REMARK   10  A    between atoms: C_41  and  C_28 
REMARK   11  A    between atoms: C_51  and  C_28 
REMARK   12  A    between atoms: C_42  and  C_29 
REMARK   13  A    between atoms: C_52  and  C_29 
REMARK   14  A    between atoms: C_43  and  C_30 
REMARK   15  A    between atoms: C_53  and  C_30 
REMARK   16  A    between atoms: C_40  and  C_33 
REMARK   17  A    between atoms: N_95  and  C_33 
REMARK   18  A    between atoms: C_54  and  C_35 
REMARK   19  A    between atoms: O_97  and  C_35 
REMARK   20  A    between atoms: O_98  and  C_44 
REMARK   21  A    between atoms: C_47  and  C_57 
REMARK   22  A    between atoms: C_65  and  C_48 
REMARK   23  A    between atoms: C_48  and  N_81 
REMARK   24  A    between atoms: C_58  and  C_49 
REMARK   25  A    between atoms: C_49  and  N_83 
REMARK   26  A    between atoms: C_59  and  C_50 
REMARK   27  A    between atoms: C_50  and  N_85 
REMARK   28  A    between atoms: C_60  and  C_51 
REMARK   29  A    between atoms: C_51  and  N_87 
REMARK   30  A    between atoms: C_61  and  C_52 
REMARK   31  A    between atoms: C_52  and  N_89 
REMARK   32  A    between atoms: C_62  and  C_53 
REMARK   33  A    between atoms: C_53  and  N_91 
REMARK   34  A    between atoms: C_63  and  C_54 
REMARK   35  A    between atoms: C_54  and  N_93 
REMARK   36  A    between atoms: C_55  and  C_64 
REMARK   37  A    between atoms: O_99  and  C_56 
REMARK   38  A    between atoms: N_89  and  C_57 
REMARK   39  A    between atoms: C_57  and  O_100 
REMARK   40  A    between atoms: N_81  and  C_58 
REMARK   41  A    between atoms: C_58  and  O_101 
REMARK   42  A    between atoms: N_91  and  C_59 
REMARK   43  A    between atoms: C_59  and  O_102 
REMARK   44  A    between atoms: N_93  and  C_60 
REMARK   45  A    between atoms: C_60  and  O_103 
REMARK   46  A    between atoms: N_87  and  C_61 
REMARK   47  A    between atoms: C_61  and  O_104 
REMARK   48  A    between atoms: N_83  and  C_62 
REMARK   49  A    between atoms: C_62  and  O_105 
REMARK   50  A    between atoms: N_85  and  C_63 
REMARK   51  A    between atoms: C_63  and  O_106 
REMARK   52  A    between atoms: N_72  and  C_64 
REMARK   53  A    between atoms: O_107  and  C_64 
REMARK       I    between atoms: N_96  and  C_65 
REMARK       I    between atoms: N_67  and  C_66 
REMARK       I    between atoms: N_69  and  C_66 
REMARK       I    between atoms: N_74  and  C_66 
REMARK   54  A    between atoms: O_112  and  C_110 
REMARK   55  A    between atoms: O_116  and  C_114 
ROOT
HETATM    1  C   UNK N   1      20.509  19.133   1.919  0.00  0.00     0.125 C 
HETATM    2  C   UNK N   1      20.901  20.396   1.235  0.00  0.00     0.135 C 
HETATM    3  O   UNK N   1      21.464  21.279   1.858  0.00  0.00    -0.650 OA
ENDROOT
BRANCH   2   4
HETATM    4  O   UNK N   1      20.623  20.566  -0.071  0.00  0.00    -0.777 OA
HETATM    5  H   UNK N   1      20.238  21.251  -0.582  0.00  0.00     0.167 HD
ENDBRANCH   2   4
TORSDOF 55
ENDMDL
MODEL 3
REMARK VINA RESULT:      -2.9     17.375     17.660
REMARK WARNING: 32 MAX_TORS EXCEEDED!!!
REMARK  55 active torsions:
REMARK  status: ('A' for Active; 'I' for Inactive)
REMARK    1  A    between atoms: N_72  and  C_4 
REMARK    2  A    between atoms: C_16  and  C_10 
REMARK    3  A    between atoms: C_24  and  C_10 
REMARK    4  A    between atoms: C_48  and  C_16 
REMARK    5  A    between atoms: N_74  and  C_24 
REMARK    6  A    between atoms: C_38  and  C_26 
REMARK    7  A    between atoms: C_49  and  C_26 
REMARK    8  A    between atoms: C_39  and  C_27 
REMARK    9  A    between atoms: C_50  and  C_27 
REMARK   10  A    between atoms: C_41  and  C_28 
REMARK   11  A    between atoms: C_51  and  C_28 
REMARK   12  A    between atoms: C_42  and  C_29 
REMARK   13  A    between atoms: C_52  and  C_29 
REMARK   14  A    between atoms: C_43  and  C_30 
REMARK   15  A    between atoms: C_53  and  C_30 
REMARK   16  A    between atoms: C_40  and  C_33 
REMARK   17  A    between atoms: N_95  and  C_33 
REMARK   18  A    between atoms: C_54  and  C_35 
REMARK   19  A    between atoms: O_97  and  C_35 
REMARK   20  A    between atoms: O_98  and  C_44 
REMARK   21  A    between atoms: C_47  and  C_57 
REMARK   22  A    between atoms: C_65  and  C_48 
REMARK   23  A    between atoms: C_48  and  N_81 
REMARK   24  A    between atoms: C_58  and  C_49 
REMARK   25  A    between atoms: C_49  and  N_83 
REMARK   26  A    between atoms: C_59  and  C_50 
REMARK   27  A    between atoms: C_50  and  N_85 
REMARK   28  A    between atoms: C_60  and  C_51 
REMARK   29  A    between atoms: C_51  and  N_87 
REMARK   30  A    between atoms: C_61  and  C_52 
REMARK   31  A    between atoms: C_52  and  N_89 
REMARK   32  A    between atoms: C_62  and  C_53 
REMARK   33  A    between atoms: C_53  and  N_91 
REMARK   34  A    between atoms: C_63  and  C_54 
REMARK   35  A    between atoms: C_54  and  N_93 
REMARK   36  A    between atoms: C_55  and  C_64 
REMARK   37  A    between atoms: O_99  and  C_56 
REMARK   38  A    between atoms: N_89  and  C_57 
REMARK   39  A    between atoms: C_57  and  O_100 
REMARK   40  A    between atoms: N_81  and  C_58 
REMARK   41  A    between atoms: C_58  and  O_101 
REMARK   42  A    between atoms: N_91  and  C_59 
REMARK   43  A    between atoms: C_59  and  O_102 
REMARK   44  A    between atoms: N_93  and  C_60 
REMARK   45  A    between atoms: C_60  and  O_103 
REMARK   46  A    between atoms: N_87  and  C_61 
REMARK   47  A    between atoms: C_61  and  O_104 
REMARK   48  A    between atoms: N_83  and  C_62 
REMARK   49  A    between atoms: C_62  and  O_105 
REMARK   50  A    between atoms: N_85  and  C_63 
REMARK   51  A    between atoms: C_63  and  O_106 
REMARK   52  A    between atoms: N_72  and  C_64 
REMARK   53  A    between atoms: O_107  and  C_64 
REMARK       I    between atoms: N_96  and  C_65 
REMARK       I    between atoms: N_67  and  C_66 
REMARK       I    between atoms: N_69  and  C_66 
REMARK       I    between atoms: N_74  and  C_66 
REMARK   54  A    between atoms: O_112  and  C_110 
REMARK   55  A    between atoms: O_116  and  C_114 
ROOT
HETATM    1  C   UNK N   1      32.896  17.960   8.408  0.00  0.00     0.125 C 
HETATM    2  C   UNK N   1      34.209  18.304   7.796  0.00  0.00     0.135 C 
HETATM    3  O   UNK N   1      34.969  19.065   8.371  0.00  0.00    -0.650 OA
ENDROOT
BRANCH   2   4
HETATM    4  O   UNK N   1      34.552  17.783   6.604  0.00  0.00    -0.777 OA
HETATM    5  H   UNK N   1      35.239  17.940   5.987  0.00  0.00     0.167 HD
ENDBRANCH   2   4
TORSDOF 55
ENDMDL
MODEL 4
REMARK VINA RESULT:      -2.8     15.284     15.411
REMARK WARNING: 32 MAX_TORS EXCEEDED!!!
REMARK  55 active torsions:
REMARK  status: ('A' for Active; 'I' for Inactive)
REMARK    1  A    between atoms: N_72  and  C_4 
REMARK    2  A    between atoms: C_16  and  C_10 
REMARK    3  A    between atoms: C_24  and  C_10 
REMARK    4  A    between atoms: C_48  and  C_16 
REMARK    5  A    between atoms: N_74  and  C_24 
REMARK    6  A    between atoms: C_38  and  C_26 
REMARK    7  A    between atoms: C_49  and  C_26 
REMARK    8  A    between atoms: C_39  and  C_27 
REMARK    9  A    between atoms: C_50  and  C_27 
REMARK   10  A    between atoms: C_41  and  C_28 
REMARK   11  A    between atoms: C_51  and  C_28 
REMARK   12  A    between atoms: C_42  and  C_29 
REMARK   13  A    between atoms: C_52  and  C_29 
REMARK   14  A    between atoms: C_43  and  C_30 
REMARK   15  A    between atoms: C_53  and  C_30 
REMARK   16  A    between atoms: C_40  and  C_33 
REMARK   17  A    between atoms: N_95  and  C_33 
REMARK   18  A    between atoms: C_54  and  C_35 
REMARK   19  A    between atoms: O_97  and  C_35 
REMARK   20  A    between atoms: O_98  and  C_44 
REMARK   21  A    between atoms: C_47  and  C_57 
REMARK   22  A    between atoms: C_65  and  C_48 
REMARK   23  A    between atoms: C_48  and  N_81 
REMARK   24  A    between atoms: C_58  and  C_49 
REMARK   25  A    between atoms: C_49  and  N_83 
REMARK   26  A    between atoms: C_59  and  C_50 
REMARK   27  A    between atoms: C_50  and  N_85 
REMARK   28  A    between atoms: C_60  and  C_51 
REMARK   29  A    between atoms: C_51  and  N_87 
REMARK   30  A    between atoms: C_61  and  C_52 
REMARK   31  A    between atoms: C_52  and  N_89 
REMARK   32  A    between atoms: C_62  and  C_53 
REMARK   33  A    between atoms: C_53  and  N_91 
REMARK   34  A    between atoms: C_63  and  C_54 
REMARK   35  A    between atoms: C_54  and  N_93 
REMARK   36  A    between atoms: C_55  and  C_64 
REMARK   37  A    between atoms: O_99  and  C_56 
REMARK   38  A    between atoms: N_89  and  C_57 
REMARK   39  A    between atoms: C_57  and  O_100 
REMARK   40  A    between atoms: N_81  and  C_58 
REMARK   41  A    between atoms: C_58  and  O_101 
REMARK   42  A    between atoms: N_91  and  C_59 
REMARK   43  A    between atoms: C_59  and  O_102 
REMARK   44  A    between atoms: N_93  and  C_60 
REMARK   45  A    between atoms: C_60  and  O_103 
REMARK   46  A    between atoms: N_87  and  C_61 
REMARK   47  A    between atoms: C_61  and  O_104 
REMARK   48  A    between atoms: N_83  and  C_62 
REMARK   49  A    between atoms: C_62  and  O_105 
REMARK   50  A    between atoms: N_85  and  C_63 
REMARK   51  A    between atoms: C_63  and  O_106 
REMARK   52  A    between atoms: N_72  and  C_64 
REMARK   53  A    between atoms: O_107  and  C_64 
REMARK       I    between atoms: N_96  and  C_65 
REMARK       I    between atoms: N_67  and  C_66 
REMARK       I    between atoms: N_69  and  C_66 
REMARK       I    between atoms: N_74  and  C_66 
REMARK   54  A    between atoms: O_112  and  C_110 
REMARK   55  A    between atoms: O_116  and  C_114 
ROOT
HETATM    1  C   UNK N   1      22.612  12.015  10.998  0.00  0.00     0.125 C 
HETATM    2  C   UNK N   1      23.604  12.050  12.108  0.00  0.00     0.135 C 
HETATM    3  O   UNK N   1      23.236  11.905  13.260  0.00  0.00    -0.650 OA
ENDROOT
BRANCH   2   4
HETATM    4  O   UNK N   1      24.907  12.253  11.838  0.00  0.00    -0.777 OA
HETATM    5  H   UNK N   1      25.539  11.845  11.281  0.00  0.00     0.167 HD
ENDBRANCH   2   4
TORSDOF 55
ENDMDL
MODEL 5
REMARK VINA RESULT:      -2.7     19.504     19.867
REMARK WARNING: 32 MAX_TORS EXCEEDED!!!
REMARK  55 active torsions:
REMARK  status: ('A' for Active; 'I' for Inactive)
REMARK    1  A    between atoms: N_72  and  C_4 
REMARK    2  A    between atoms: C_16  and  C_10 
REMARK    3  A    between atoms: C_24  and  C_10 
REMARK    4  A    between atoms: C_48  and  C_16 
REMARK    5  A    between atoms: N_74  and  C_24 
REMARK    6  A    between atoms: C_38  and  C_26 
REMARK    7  A    between atoms: C_49  and  C_26 
REMARK    8  A    between atoms: C_39  and  C_27 
REMARK    9  A    between atoms: C_50  and  C_27 
REMARK   10  A    between atoms: C_41  and  C_28 
REMARK   11  A    between atoms: C_51  and  C_28 
REMARK   12  A    between atoms: C_42  and  C_29 
REMARK   13  A    between atoms: C_52  and  C_29 
REMARK   14  A    between atoms: C_43  and  C_30 
REMARK   15  A    between atoms: C_53  and  C_30 
REMARK   16  A    between atoms: C_40  and  C_33 
REMARK   17  A    between atoms: N_95  and  C_33 
REMARK   18  A    between atoms: C_54  and  C_35 
REMARK   19  A    between atoms: O_97  and  C_35 
REMARK   20  A    between atoms: O_98  and  C_44 
REMARK   21  A    between atoms: C_47  and  C_57 
REMARK   22  A    between atoms: C_65  and  C_48 
REMARK   23  A    between atoms: C_48  and  N_81 
REMARK   24  A    between atoms: C_58  and  C_49 
REMARK   25  A    between atoms: C_49  and  N_83 
REMARK   26  A    between atoms: C_59  and  C_50 
REMARK   27  A    between atoms: C_50  and  N_85 
REMARK   28  A    between atoms: C_60  and  C_51 
REMARK   29  A    between atoms: C_51  and  N_87 
REMARK   30  A    between atoms: C_61  and  C_52 
REMARK   31  A    between atoms: C_52  and  N_89 
REMARK   32  A    between atoms: C_62  and  C_53 
REMARK   33  A    between atoms: C_53  and  N_91 
REMARK   34  A    between atoms: C_63  and  C_54 
REMARK   35  A    between atoms: C_54  and  N_93 
REMARK   36  A    between atoms: C_55  and  C_64 
REMARK   37  A    between atoms: O_99  and  C_56 
REMARK   38  A    between atoms: N_89  and  C_57 
REMARK   39  A    between atoms: C_57  and  O_100 
REMARK   40  A    between atoms: N_81  and  C_58 
REMARK   41  A    between atoms: C_58  and  O_101 
REMARK   42  A    between atoms: N_91  and  C_59 
REMARK   43  A    between atoms: C_59  and  O_102 
REMARK   44  A    between atoms: N_93  and  C_60 
REMARK   45  A    between atoms: C_60  and  O_103 
REMARK   46  A    between atoms: N_87  and  C_61 
REMARK   47  A    between atoms: C_61  and  O_104 
REMARK   48  A    between atoms: N_83  and  C_62 
REMARK   49  A    between atoms: C_62  and  O_105 
REMARK   50  A    between atoms: N_85  and  C_63 
REMARK   51  A    between atoms: C_63  and  O_106 
REMARK   52  A    between atoms: N_72  and  C_64 
REMARK   53  A    between atoms: O_107  and  C_64 
REMARK       I    between atoms: N_96  and  C_65 
REMARK       I    between atoms: N_67  and  C_66 
REMARK       I    between atoms: N_69  and  C_66 
REMARK       I    between atoms: N_74  and  C_66 
REMARK   54  A    between atoms: O_112  and  C_110 
REMARK   55  A    between atoms: O_116  and  C_114 
ROOT
HETATM    1  C   UNK N   1      34.654  15.428  11.009  0.00  0.00     0.125 C 
HETATM    2  C   UNK N   1      35.748  16.394  10.718  0.00  0.00     0.135 C 
HETATM    3  O   UNK N   1      35.485  17.500  10.277  0.00  0.00    -0.650 OA
ENDROOT
BRANCH   2   4
HETATM    4  O   UNK N   1      37.029  16.043  10.933  0.00  0.00    -0.777 OA
HETATM    5  H   UNK N   1      37.712  16.343  11.501  0.00  0.00     0.167 HD
ENDBRANCH   2   4
TORSDOF 55
ENDMDL
MODEL 6
REMARK VINA RESULT:      -2.7      9.327      9.668
REMARK WARNING: 32 MAX_TORS EXCEEDED!!!
REMARK  55 active torsions:
REMARK  status: ('A' for Active; 'I' for Inactive)
REMARK    1  A    between atoms: N_72  and  C_4 
REMARK    2  A    between atoms: C_16  and  C_10 
REMARK    3  A    between atoms: C_24  and  C_10 
REMARK    4  A    between atoms: C_48  and  C_16 
REMARK    5  A    between atoms: N_74  and  C_24 
REMARK    6  A    between atoms: C_38  and  C_26 
REMARK    7  A    between atoms: C_49  and  C_26 
REMARK    8  A    between atoms: C_39  and  C_27 
REMARK    9  A    between atoms: C_50  and  C_27 
REMARK   10  A    between atoms: C_41  and  C_28 
REMARK   11  A    between atoms: C_51  and  C_28 
REMARK   12  A    between atoms: C_42  and  C_29 
REMARK   13  A    between atoms: C_52  and  C_29 
REMARK   14  A    between atoms: C_43  and  C_30 
REMARK   15  A    between atoms: C_53  and  C_30 
REMARK   16  A    between atoms: C_40  and  C_33 
REMARK   17  A    between atoms: N_95  and  C_33 
REMARK   18  A    between atoms: C_54  and  C_35 
REMARK   19  A    between atoms: O_97  and  C_35 
REMARK   20  A    between atoms: O_98  and  C_44 
REMARK   21  A    between atoms: C_47  and  C_57 
REMARK   22  A    between atoms: C_65  and  C_48 
REMARK   23  A    between atoms: C_48  and  N_81 
REMARK   24  A    between atoms: C_58  and  C_49 
REMARK   25  A    between atoms: C_49  and  N_83 
REMARK   26  A    between atoms: C_59  and  C_50 
REMARK   27  A    between atoms: C_50  and  N_85 
REMARK   28  A    between atoms: C_60  and  C_51 
REMARK   29  A    between atoms: C_51  and  N_87 
REMARK   30  A    between atoms: C_61  and  C_52 
REMARK   31  A    between atoms: C_52  and  N_89 
REMARK   32  A    between atoms: C_62  and  C_53 
REMARK   33  A    between atoms: C_53  and  N_91 
REMARK   34  A    between atoms: C_63  and  C_54 
REMARK   35  A    between atoms: C_54  and  N_93 
REMARK   36  A    between atoms: C_55  and  C_64 
REMARK   37  A    between atoms: O_99  and  C_56 
REMARK   38  A    between atoms: N_89  and  C_57 
REMARK   39  A    between atoms: C_57  and  O_100 
REMARK   40  A    between atoms: N_81  and  C_58 
REMARK   41  A    between atoms: C_58  and  O_101 
REMARK   42  A    between atoms: N_91  and  C_59 
REMARK   43  A    between atoms: C_59  and  O_102 
REMARK   44  A    between atoms: N_93  and  C_60 
REMARK   45  A    between atoms: C_60  and  O_103 
REMARK   46  A    between atoms: N_87  and  C_61 
REMARK   47  A    between atoms: C_61  and  O_104 
REMARK   48  A    between atoms: N_83  and  C_62 
REMARK   49  A    between atoms: C_62  and  O_105 
REMARK   50  A    between atoms: N_85  and  C_63 
REMARK   51  A    between atoms: C_63  and  O_106 
REMARK   52  A    between atoms: N_72  and  C_64 
REMARK   53  A    between atoms: O_107  and  C_64 
REMARK       I    between atoms: N_96  and  C_65 
REMARK       I    between atoms: N_67  and  C_66 
REMARK       I    between atoms: N_69  and  C_66 
REMARK       I    between atoms: N_74  and  C_66 
REMARK   54  A    between atoms: O_112  and  C_110 
REMARK   55  A    between atoms: O_116  and  C_114 
ROOT
HETATM    1  C   UNK N   1      20.892  20.283   1.334  0.00  0.00     0.125 C 
HETATM    2  C   UNK N   1      21.215  20.853   2.670  0.00  0.00     0.135 C 
HETATM    3  O   UNK N   1      20.598  20.487   3.656  0.00  0.00    -0.650 OA
ENDROOT
BRANCH   2   4
HETATM    4  O   UNK N   1      22.181  21.782   2.788  0.00  0.00    -0.777 OA
HETATM    5  H   UNK N   1      22.538  22.442   2.226  0.00  0.00     0.167 HD
ENDBRANCH   2   4
TORSDOF 55
ENDMDL
MODEL 7
REMARK VINA RESULT:      -2.7     18.158     18.173
REMARK WARNING: 32 MAX_TORS EXCEEDED!!!
REMARK  55 active torsions:
REMARK  status: ('A' for Active; 'I' for Inactive)
REMARK    1  A    between atoms: N_72  and  C_4 
REMARK    2  A    between atoms: C_16  and  C_10 
REMARK    3  A    between atoms: C_24  and  C_10 
REMARK    4  A    between atoms: C_48  and  C_16 
REMARK    5  A    between atoms: N_74  and  C_24 
REMARK    6  A    between atoms: C_38  and  C_26 
REMARK    7  A    between atoms: C_49  and  C_26 
REMARK    8  A    between atoms: C_39  and  C_27 
REMARK    9  A    between atoms: C_50  and  C_27 
REMARK   10  A    between atoms: C_41  and  C_28 
REMARK   11  A    between atoms: C_51  and  C_28 
REMARK   12  A    between atoms: C_42  and  C_29 
REMARK   13  A    between atoms: C_52  and  C_29 
REMARK   14  A    between atoms: C_43  and  C_30 
REMARK   15  A    between atoms: C_53  and  C_30 
REMARK   16  A    between atoms: C_40  and  C_33 
REMARK   17  A    between atoms: N_95  and  C_33 
REMARK   18  A    between atoms: C_54  and  C_35 
REMARK   19  A    between atoms: O_97  and  C_35 
REMARK   20  A    between atoms: O_98  and  C_44 
REMARK   21  A    between atoms: C_47  and  C_57 
REMARK   22  A    between atoms: C_65  and  C_48 
REMARK   23  A    between atoms: C_48  and  N_81 
REMARK   24  A    between atoms: C_58  and  C_49 
REMARK   25  A    between atoms: C_49  and  N_83 
REMARK   26  A    between atoms: C_59  and  C_50 
REMARK   27  A    between atoms: C_50  and  N_85 
REMARK   28  A    between atoms: C_60  and  C_51 
REMARK   29  A    between atoms: C_51  and  N_87 
REMARK   30  A    between atoms: C_61  and  C_52 
REMARK   31  A    between atoms: C_52  and  N_89 
REMARK   32  A    between atoms: C_62  and  C_53 
REMARK   33  A    between atoms: C_53  and  N_91 
REMARK   34  A    between atoms: C_63  and  C_54 
REMARK   35  A    between atoms: C_54  and  N_93 
REMARK   36  A    between atoms: C_55  and  C_64 
REMARK   37  A    between atoms: O_99  and  C_56 
REMARK   38  A    between atoms: N_89  and  C_57 
REMARK   39  A    between atoms: C_57  and  O_100 
REMARK   40  A    between atoms: N_81  and  C_58 
REMARK   41  A    between atoms: C_58  and  O_101 
REMARK   42  A    between atoms: N_91  and  C_59 
REMARK   43  A    between atoms: C_59  and  O_102 
REMARK   44  A    between atoms: N_93  and  C_60 
REMARK   45  A    between atoms: C_60  and  O_103 
REMARK   46  A    between atoms: N_87  and  C_61 
REMARK   47  A    between atoms: C_61  and  O_104 
REMARK   48  A    between atoms: N_83  and  C_62 
REMARK   49  A    between atoms: C_62  and  O_105 
REMARK   50  A    between atoms: N_85  and  C_63 
REMARK   51  A    between atoms: C_63  and  O_106 
REMARK   52  A    between atoms: N_72  and  C_64 
REMARK   53  A    between atoms: O_107  and  C_64 
REMARK       I    between atoms: N_96  and  C_65 
REMARK       I    between atoms: N_67  and  C_66 
REMARK       I    between atoms: N_69  and  C_66 
REMARK       I    between atoms: N_74  and  C_66 
REMARK   54  A    between atoms: O_112  and  C_110 
REMARK   55  A    between atoms: O_116  and  C_114 
ROOT
HETATM    1  C   UNK N   1      30.470  21.963  -3.853  0.00  0.00     0.125 C 
HETATM    2  C   UNK N   1      31.142  22.169  -2.541  0.00  0.00     0.135 C 
HETATM    3  O   UNK N   1      30.698  22.981  -1.748  0.00  0.00    -0.650 OA
ENDROOT
BRANCH   2   4
HETATM    4  O   UNK N   1      32.248  21.465  -2.235  0.00  0.00    -0.777 OA
HETATM    5  H   UNK N   1      32.419  20.673  -1.766  0.00  0.00     0.167 HD
ENDBRANCH   2   4
TORSDOF 55
ENDMDL
MODEL 8
REMARK VINA RESULT:      -2.6     26.490     26.772
REMARK WARNING: 32 MAX_TORS EXCEEDED!!!
REMARK  55 active torsions:
REMARK  status: ('A' for Active; 'I' for Inactive)
REMARK    1  A    between atoms: N_72  and  C_4 
REMARK    2  A    between atoms: C_16  and  C_10 
REMARK    3  A    between atoms: C_24  and  C_10 
REMARK    4  A    between atoms: C_48  and  C_16 
REMARK    5  A    between atoms: N_74  and  C_24 
REMARK    6  A    between atoms: C_38  and  C_26 
REMARK    7  A    between atoms: C_49  and  C_26 
REMARK    8  A    between atoms: C_39  and  C_27 
REMARK    9  A    between atoms: C_50  and  C_27 
REMARK   10  A    between atoms: C_41  and  C_28 
REMARK   11  A    between atoms: C_51  and  C_28 
REMARK   12  A    between atoms: C_42  and  C_29 
REMARK   13  A    between atoms: C_52  and  C_29 
REMARK   14  A    between atoms: C_43  and  C_30 
REMARK   15  A    between atoms: C_53  and  C_30 
REMARK   16  A    between atoms: C_40  and  C_33 
REMARK   17  A    between atoms: N_95  and  C_33 
REMARK   18  A    between atoms: C_54  and  C_35 
REMARK   19  A    between atoms: O_97  and  C_35 
REMARK   20  A    between atoms: O_98  and  C_44 
REMARK   21  A    between atoms: C_47  and  C_57 
REMARK   22  A    between atoms: C_65  and  C_48 
REMARK   23  A    between atoms: C_48  and  N_81 
REMARK   24  A    between atoms: C_58  and  C_49 
REMARK   25  A    between atoms: C_49  and  N_83 
REMARK   26  A    between atoms: C_59  and  C_50 
REMARK   27  A    between atoms: C_50  and  N_85 
REMARK   28  A    between atoms: C_60  and  C_51 
REMARK   29  A    between atoms: C_51  and  N_87 
REMARK   30  A    between atoms: C_61  and  C_52 
REMARK   31  A    between atoms: C_52  and  N_89 
REMARK   32  A    between atoms: C_62  and  C_53 
REMARK   33  A    between atoms: C_53  and  N_91 
REMARK   34  A    between atoms: C_63  and  C_54 
REMARK   35  A    between atoms: C_54  and  N_93 
REMARK   36  A    between atoms: C_55  and  C_64 
REMARK   37  A    between atoms: O_99  and  C_56 
REMARK   38  A    between atoms: N_89  and  C_57 
REMARK   39  A    between atoms: C_57  and  O_100 
REMARK   40  A    between atoms: N_81  and  C_58 
REMARK   41  A    between atoms: C_58  and  O_101 
REMARK   42  A    between atoms: N_91  and  C_59 
REMARK   43  A    between atoms: C_59  and  O_102 
REMARK   44  A    between atoms: N_93  and  C_60 
REMARK   45  A    between atoms: C_60  and  O_103 
REMARK   46  A    between atoms: N_87  and  C_61 
REMARK   47  A    between atoms: C_61  and  O_104 
REMARK   48  A    between atoms: N_83  and  C_62 
REMARK   49  A    between atoms: C_62  and  O_105 
REMARK   50  A    between atoms: N_85  and  C_63 
REMARK   51  A    between atoms: C_63  and  O_106 
REMARK   52  A    between atoms: N_72  and  C_64 
REMARK   53  A    between atoms: O_107  and  C_64 
REMARK       I    between atoms: N_96  and  C_65 
REMARK       I    between atoms: N_67  and  C_66 
REMARK       I    between atoms: N_69  and  C_66 
REMARK       I    between atoms: N_74  and  C_66 
REMARK   54  A    between atoms: O_112  and  C_110 
REMARK   55  A    between atoms: O_116  and  C_114 
ROOT
HETATM    1  C   UNK N   1      43.739  21.096   3.509  0.00  0.00     0.125 C 
HETATM    2  C   UNK N   1      44.474  22.051   4.384  0.00  0.00     0.135 C 
HETATM    3  O   UNK N   1      43.881  22.655   5.261  0.00  0.00    -0.650 OA
ENDROOT
BRANCH   2   4
HETATM    4  O   UNK N   1      45.790  22.256   4.198  0.00  0.00    -0.777 OA
HETATM    5  H   UNK N   1      46.322  23.000   3.991  0.00  0.00     0.167 HD
ENDBRANCH   2   4
TORSDOF 55
ENDMDL
MODEL 9
REMARK VINA RESULT:      -2.5     12.446     12.782
REMARK WARNING: 32 MAX_TORS EXCEEDED!!!
REMARK  55 active torsions:
REMARK  status: ('A' for Active; 'I' for Inactive)
REMARK    1  A    between atoms: N_72  and  C_4 
REMARK    2  A    between atoms: C_16  and  C_10 
REMARK    3  A    between atoms: C_24  and  C_10 
REMARK    4  A    between atoms: C_48  and  C_16 
REMARK    5  A    between atoms: N_74  and  C_24 
REMARK    6  A    between atoms: C_38  and  C_26 
REMARK    7  A    between atoms: C_49  and  C_26 
REMARK    8  A    between atoms: C_39  and  C_27 
REMARK    9  A    between atoms: C_50  and  C_27 
REMARK   10  A    between atoms: C_41  and  C_28 
REMARK   11  A    between atoms: C_51  and  C_28 
REMARK   12  A    between atoms: C_42  and  C_29 
REMARK   13  A    between atoms: C_52  and  C_29 
REMARK   14  A    between atoms: C_43  and  C_30 
REMARK   15  A    between atoms: C_53  and  C_30 
REMARK   16  A    between atoms: C_40  and  C_33 
REMARK   17  A    between atoms: N_95  and  C_33 
REMARK   18  A    between atoms: C_54  and  C_35 
REMARK   19  A    between atoms: O_97  and  C_35 
REMARK   20  A    between atoms: O_98  and  C_44 
REMARK   21  A    between atoms: C_47  and  C_57 
REMARK   22  A    between atoms: C_65  and  C_48 
REMARK   23  A    between atoms: C_48  and  N_81 
REMARK   24  A    between atoms: C_58  and  C_49 
REMARK   25  A    between atoms: C_49  and  N_83 
REMARK   26  A    between atoms: C_59  and  C_50 
REMARK   27  A    between atoms: C_50  and  N_85 
REMARK   28  A    between atoms: C_60  and  C_51 
REMARK   29  A    between atoms: C_51  and  N_87 
REMARK   30  A    between atoms: C_61  and  C_52 
REMARK   31  A    between atoms: C_52  and  N_89 
REMARK   32  A    between atoms: C_62  and  C_53 
REMARK   33  A    between atoms: C_53  and  N_91 
REMARK   34  A    between atoms: C_63  and  C_54 
REMARK   35  A    between atoms: C_54  and  N_93 
REMARK   36  A    between atoms: C_55  and  C_64 
REMARK   37  A    between atoms: O_99  and  C_56 
REMARK   38  A    between atoms: N_89  and  C_57 
REMARK   39  A    between atoms: C_57  and  O_100 
REMARK   40  A    between atoms: N_81  and  C_58 
REMARK   41  A    between atoms: C_58  and  O_101 
REMARK   42  A    between atoms: N_91  and  C_59 
REMARK   43  A    between atoms: C_59  and  O_102 
REMARK   44  A    between atoms: N_93  and  C_60 
REMARK   45  A    between atoms: C_60  and  O_103 
REMARK   46  A    between atoms: N_87  and  C_61 
REMARK   47  A    between atoms: C_61  and  O_104 
REMARK   48  A    between atoms: N_83  and  C_62 
REMARK   49  A    between atoms: C_62  and  O_105 
REMARK   50  A    between atoms: N_85  and  C_63 
REMARK   51  A    between atoms: C_63  and  O_106 
REMARK   52  A    between atoms: N_72  and  C_64 
REMARK   53  A    between atoms: O_107  and  C_64 
REMARK       I    between atoms: N_96  and  C_65 
REMARK       I    between atoms: N_67  and  C_66 
REMARK       I    between atoms: N_69  and  C_66 
REMARK       I    between atoms: N_74  and  C_66 
REMARK   54  A    between atoms: O_112  and  C_110 
REMARK   55  A    between atoms: O_116  and  C_114 
ROOT
HETATM    1  C   UNK N   1      29.783  18.613   9.615  0.00  0.00     0.125 C 
HETATM    2  C   UNK N   1      28.502  18.562   8.857  0.00  0.00     0.135 C 
HETATM    3  O   UNK N   1      28.439  19.031   7.734  0.00  0.00    -0.650 OA
ENDROOT
BRANCH   2   4
HETATM    4  O   UNK N   1      27.412  18.008   9.417  0.00  0.00    -0.777 OA
HETATM    5  H   UNK N   1      26.580  18.329   9.707  0.00  0.00     0.167 HD
ENDBRANCH   2   4
TORSDOF 55
ENDMDL
