REMARK  10 active torsions:
REMARK  status: ('A' for Active; 'I' for Inactive)
REMARK    1  A    between atoms: O_2  and  C_19 
REMARK    2  A    between atoms: O_3  and  C_21 
REMARK       I    between atoms: N_4  and  C_11 
REMARK    3  A    between atoms: N_4  and  C_13 
REMARK    4  A    between atoms: C_5  and  C_6 
REMARK    5  A    between atoms: C_5  and  C_7 
REMARK    6  A    between atoms: C_6  and  C_8 
REMARK    7  A    between atoms: C_7  and  C_10 
REMARK    8  A    between atoms: C_8  and  C_11 
REMARK    9  A    between atoms: C_9  and  C_12 
REMARK   10  A    between atoms: C_13  and  C_14 
ROOT
HETATM    1  O   UNK N   1       7.346   0.581  -0.048  0.00  0.00    -0.274 OA
HETATM    2  N   UNK N   1       5.234   1.165   0.402  0.00  0.00    -0.357 N 
HETATM    3  C   UNK N   1       6.254   0.281   0.393  0.00  0.00     0.217 C 
HETATM    4  H   UNK N   1       4.367   0.877   0.769  0.00  0.00     0.162 HD
ENDROOT
BRANCH   2   5
HETATM    5  C   UNK N   1       5.354   2.512  -0.098  0.00  0.00     0.161 C 
BRANCH   5   6
HETATM    6  C   UNK N   1       4.004   3.158  -0.106  0.00  0.00    -0.038 A 
HETATM    7  C   UNK N   1       3.901   4.550  -0.080  0.00  0.00     0.048 A 
HETATM    8  C   UNK N   1       2.635   5.170  -0.052  0.00  0.00     0.101 A 
HETATM    9  C   UNK N   1       1.481   4.371  -0.053  0.00  0.00     0.099 A 
HETATM   10  C   UNK N   1       1.584   2.982  -0.089  0.00  0.00     0.040 A 
HETATM   11  C   UNK N   1       2.838   2.377  -0.114  0.00  0.00     0.012 A 
BRANCH   8  12
HETATM   12  O   UNK N   1       2.511   6.517  -0.018  0.00  0.00    -0.353 OA
HETATM   13  C   UNK N   1       3.586   7.376  -0.010  0.00  0.00     0.210 C 
ENDBRANCH   8  12
BRANCH   9  14
HETATM   14  O   UNK N   1       0.263   4.942  -0.019  0.00  0.00    -0.358 OA
HETATM   15  H   UNK N   1       0.183   5.875   0.005  0.00  0.00     0.217 HD
ENDBRANCH   9  14
ENDBRANCH   5   6
ENDBRANCH   2   5
BRANCH   3  16
HETATM   16  C   UNK N   1       5.998  -1.095   0.897  0.00  0.00     0.103 C 
BRANCH  16  17
HETATM   17  C   UNK N   1       5.806  -2.011  -0.292  0.00  0.00     0.010 C 
BRANCH  17  18
HETATM   18  C   UNK N   1       6.528  -3.315  -0.062  0.00  0.00     0.004 C 
BRANCH  18  19
HETATM   19  C   UNK N   1       8.032  -3.105  -0.153  0.00  0.00     0.027 C 
BRANCH  19  20
HETATM   20  C   UNK N   1       8.660  -4.377  -0.598  0.00  0.00    -0.030 C 
HETATM   21  C   UNK N   1       8.612  -5.454   0.179  0.00  0.00    -0.027 C 
BRANCH  21  22
HETATM   22  C   UNK N   1       9.122  -6.753  -0.327  0.00  0.00    -0.001 C 
HETATM   23  C   UNK N   1      10.247  -7.246   0.556  0.00  0.00     0.013 C 
HETATM   24  C   UNK N   1       7.984  -7.753  -0.308  0.00  0.00     0.013 C 
ENDBRANCH  21  22
ENDBRANCH  19  20
ENDBRANCH  18  19
ENDBRANCH  17  18
ENDBRANCH  16  17
ENDBRANCH   3  16
TORSDOF 10
