MODEL 1
REMARK VINA RESULT:      -6.0      0.000      0.000
REMARK  8 active torsions:
REMARK  status: ('A' for Active; 'I' for Inactive)
REMARK    1  A    between atoms: P_1  and  O_3 
REMARK    2  A    between atoms: P_1  and  O_4 
REMARK    3  A    between atoms: P_1  and  O_5 
REMARK    4  A    between atoms: O_2  and  C_11 
REMARK    5  A    between atoms: O_2  and  C_19 
REMARK    6  A    between atoms: O_3  and  C_19 
REMARK    7  A    between atoms: C_7  and  C_9 
REMARK    8  A    between atoms: C_8  and  C_10 
ROOT
HETATM    1  C   UNK N   1      29.379  17.673   7.512  0.00  0.00    -0.021 A 
HETATM    2  C   UNK N   1      30.573  17.290   5.389  0.00  0.00    -0.021 A 
HETATM    3  C   UNK N   1      30.507  17.142   6.805  0.00  0.00     0.085 A 
HETATM    4  C   UNK N   1      28.388  18.359   6.793  0.00  0.00     0.010 A 
HETATM    5  C   UNK N   1      29.554  17.981   4.724  0.00  0.00     0.010 A 
HETATM    6  C   UNK N   1      28.477  18.519   5.417  0.00  0.00     0.001 A 
ENDROOT
BRANCH   3   7
HETATM    7  O   UNK N   1      31.524  16.495   7.435  0.00  0.00    -0.325 OA
BRANCH   7   8
HETATM    8  C   UNK N   1      32.298  17.006   8.447  0.00  0.00     0.357 C 
BRANCH   8   9
HETATM    9  O   UNK N   1      33.077  18.051   7.943  0.00  0.00    -0.271 OA
BRANCH   9  10
HETATM   10  P   UNK N   1      34.721  17.597   8.279  0.00  0.00     0.392 P 
HETATM   11  O   UNK N   1      34.815  19.146   8.350  0.00  0.00    -0.631 OA
BRANCH  10  12
HETATM   12  O   UNK N   1      33.665  17.031   9.536  0.00  0.00    -0.307 OA
HETATM   13  H   UNK N   1      32.931  17.576   9.863  0.00  0.00     0.222 HD
ENDBRANCH  10  12
BRANCH  10  14
HETATM   14  O   UNK N   1      35.414  17.870   9.846  0.00  0.00    -0.307 OA
HETATM   15  H   UNK N   1      35.926  17.216  10.346  0.00  0.00     0.222 HD
ENDBRANCH  10  14
ENDBRANCH   9  10
ENDBRANCH   8   9
ENDBRANCH   7   8
ENDBRANCH   3   7
BRANCH   1  16
HETATM   16  C   UNK N   1      29.200  17.491   9.011  0.00  0.00     0.013 C 
HETATM   17  C   UNK N   1      29.601  18.706   9.839  0.00  0.00     0.015 C 
HETATM   18  C   UNK N   1      27.751  17.166   9.337  0.00  0.00     0.015 C 
ENDBRANCH   1  16
BRANCH   2  19
HETATM   19  C   UNK N   1      31.700  16.748   4.523  0.00  0.00     0.013 C 
HETATM   20  C   UNK N   1      31.199  16.412   3.130  0.00  0.00     0.015 C 
HETATM   21  C   UNK N   1      32.966  17.582   4.402  0.00  0.00     0.015 C 
ENDBRANCH   2  19
TORSDOF 8
ENDMDL
MODEL 2
REMARK VINA RESULT:      -5.9      8.341     10.263
REMARK  8 active torsions:
REMARK  status: ('A' for Active; 'I' for Inactive)
REMARK    1  A    between atoms: P_1  and  O_3 
REMARK    2  A    between atoms: P_1  and  O_4 
REMARK    3  A    between atoms: P_1  and  O_5 
REMARK    4  A    between atoms: O_2  and  C_11 
REMARK    5  A    between atoms: O_2  and  C_19 
REMARK    6  A    between atoms: O_3  and  C_19 
REMARK    7  A    between atoms: C_7  and  C_9 
REMARK    8  A    between atoms: C_8  and  C_10 
ROOT
HETATM    1  C   UNK N   1      34.755  11.065  13.400  0.00  0.00    -0.021 A 
HETATM    2  C   UNK N   1      35.114  12.243  15.536  0.00  0.00    -0.021 A 
HETATM    3  C   UNK N   1      34.949  12.289  14.121  0.00  0.00     0.085 A 
HETATM    4  C   UNK N   1      34.769   9.851  14.105  0.00  0.00     0.010 A 
HETATM    5  C   UNK N   1      35.117  11.004  16.187  0.00  0.00     0.010 A 
HETATM    6  C   UNK N   1      34.957   9.819  15.480  0.00  0.00     0.001 A 
ENDROOT
BRANCH   3   7
HETATM    7  O   UNK N   1      34.982  13.500  13.505  0.00  0.00    -0.325 OA
BRANCH   7   8
HETATM    8  C   UNK N   1      36.087  14.087  12.940  0.00  0.00     0.357 C 
BRANCH   8   9
HETATM    9  O   UNK N   1      35.681  15.176  12.166  0.00  0.00    -0.271 OA
BRANCH   9  10
HETATM   10  P   UNK N   1      36.313  14.865  10.576  0.00  0.00     0.392 P 
HETATM   11  O   UNK N   1      36.538  16.397  10.697  0.00  0.00    -0.631 OA
BRANCH  10  12
HETATM   12  O   UNK N   1      37.266  14.051  11.779  0.00  0.00    -0.307 OA
HETATM   13  H   UNK N   1      36.849  13.561  12.505  0.00  0.00     0.222 HD
ENDBRANCH  10  12
BRANCH  10  14
HETATM   14  O   UNK N   1      38.008  15.033  10.246  0.00  0.00    -0.307 OA
HETATM   15  H   UNK N   1      38.616  15.594  10.751  0.00  0.00     0.222 HD
ENDBRANCH  10  14
ENDBRANCH   9  10
ENDBRANCH   8   9
ENDBRANCH   7   8
ENDBRANCH   3   7
BRANCH   1  16
HETATM   16  C   UNK N   1      34.497  11.037  11.902  0.00  0.00     0.013 C 
HETATM   17  C   UNK N   1      35.758  10.901  11.055  0.00  0.00     0.015 C 
HETATM   18  C   UNK N   1      33.572   9.886  11.542  0.00  0.00     0.015 C 
ENDBRANCH   1  16
BRANCH   2  19
HETATM   19  C   UNK N   1      35.300  13.470  16.416  0.00  0.00     0.013 C 
HETATM   20  C   UNK N   1      35.021  13.140  17.871  0.00  0.00     0.015 C 
HETATM   21  C   UNK N   1      36.623  14.214  16.325  0.00  0.00     0.015 C 
ENDBRANCH   2  19
TORSDOF 8
ENDMDL
MODEL 3
REMARK VINA RESULT:      -5.8      7.894      9.832
REMARK  8 active torsions:
REMARK  status: ('A' for Active; 'I' for Inactive)
REMARK    1  A    between atoms: P_1  and  O_3 
REMARK    2  A    between atoms: P_1  and  O_4 
REMARK    3  A    between atoms: P_1  and  O_5 
REMARK    4  A    between atoms: O_2  and  C_11 
REMARK    5  A    between atoms: O_2  and  C_19 
REMARK    6  A    between atoms: O_3  and  C_19 
REMARK    7  A    between atoms: C_7  and  C_9 
REMARK    8  A    between atoms: C_8  and  C_10 
ROOT
HETATM    1  C   UNK N   1      35.093  12.008  15.576  0.00  0.00    -0.021 A 
HETATM    2  C   UNK N   1      34.778  10.844  13.426  0.00  0.00    -0.021 A 
HETATM    3  C   UNK N   1      34.795  12.056  14.175  0.00  0.00     0.085 A 
HETATM    4  C   UNK N   1      35.322  10.761  16.180  0.00  0.00     0.010 A 
HETATM    5  C   UNK N   1      35.018   9.629  14.080  0.00  0.00     0.010 A 
HETATM    6  C   UNK N   1      35.277   9.585  15.444  0.00  0.00     0.001 A 
ENDROOT
BRANCH   3   7
HETATM    7  O   UNK N   1      34.528  13.220  13.526  0.00  0.00    -0.325 OA
BRANCH   7   8
HETATM    8  C   UNK N   1      35.380  13.881  12.676  0.00  0.00     0.357 C 
BRANCH   8   9
HETATM    9  O   UNK N   1      34.628  14.616  11.756  0.00  0.00    -0.271 OA
BRANCH   9  10
HETATM   10  P   UNK N   1      35.755  15.082  10.517  0.00  0.00     0.392 P 
HETATM   11  O   UNK N   1      35.097  16.448  10.856  0.00  0.00    -0.631 OA
BRANCH  10  12
HETATM   12  O   UNK N   1      36.600  14.493  11.915  0.00  0.00    -0.307 OA
HETATM   13  H   UNK N   1      36.671  13.542  12.098  0.00  0.00     0.222 HD
ENDBRANCH  10  12
BRANCH  10  14
HETATM   14  O   UNK N   1      37.120  16.086  10.890  0.00  0.00    -0.307 OA
HETATM   15  H   UNK N   1      37.798  16.358  10.252  0.00  0.00     0.222 HD
ENDBRANCH  10  14
ENDBRANCH   9  10
ENDBRANCH   8   9
ENDBRANCH   7   8
ENDBRANCH   3   7
BRANCH   1  16
HETATM   16  C   UNK N   1      35.203  13.263  16.427  0.00  0.00     0.013 C 
HETATM   17  C   UNK N   1      35.123  13.008  17.928  0.00  0.00     0.015 C 
HETATM   18  C   UNK N   1      36.514  13.981  16.149  0.00  0.00     0.015 C 
ENDBRANCH   1  16
BRANCH   2  19
HETATM   19  C   UNK N   1      34.504  10.764  11.931  0.00  0.00     0.013 C 
HETATM   20  C   UNK N   1      35.790  10.543  11.156  0.00  0.00     0.015 C 
HETATM   21  C   UNK N   1      33.464   9.762  11.454  0.00  0.00     0.015 C 
ENDBRANCH   2  19
TORSDOF 8
ENDMDL
MODEL 4
REMARK VINA RESULT:      -5.8     12.120     14.273
REMARK  8 active torsions:
REMARK  status: ('A' for Active; 'I' for Inactive)
REMARK    1  A    between atoms: P_1  and  O_3 
REMARK    2  A    between atoms: P_1  and  O_4 
REMARK    3  A    between atoms: P_1  and  O_5 
REMARK    4  A    between atoms: O_2  and  C_11 
REMARK    5  A    between atoms: O_2  and  C_19 
REMARK    6  A    between atoms: O_3  and  C_19 
REMARK    7  A    between atoms: C_7  and  C_9 
REMARK    8  A    between atoms: C_8  and  C_10 
ROOT
HETATM    1  C   UNK N   1      28.213  21.575  -7.550  0.00  0.00    -0.021 A 
HETATM    2  C   UNK N   1      27.675  23.283  -5.856  0.00  0.00    -0.021 A 
HETATM    3  C   UNK N   1      28.604  22.359  -6.416  0.00  0.00     0.085 A 
HETATM    4  C   UNK N   1      26.910  21.712  -8.055  0.00  0.00     0.010 A 
HETATM    5  C   UNK N   1      26.390  23.380  -6.402  0.00  0.00     0.010 A 
HETATM    6  C   UNK N   1      26.006  22.597  -7.483  0.00  0.00     0.001 A 
ENDROOT
BRANCH   3   7
HETATM    7  O   UNK N   1      29.836  22.258  -5.849  0.00  0.00    -0.325 OA
BRANCH   7   8
HETATM    8  C   UNK N   1      30.238  21.288  -4.966  0.00  0.00     0.357 C 
BRANCH   8   9
HETATM    9  O   UNK N   1      30.195  21.806  -3.669  0.00  0.00    -0.271 OA
BRANCH   9  10
HETATM   10  P   UNK N   1      31.854  22.106  -3.243  0.00  0.00     0.392 P 
HETATM   11  O   UNK N   1      31.124  22.542  -1.942  0.00  0.00    -0.631 OA
BRANCH  10  12
HETATM   12  O   UNK N   1      31.592  20.410  -3.504  0.00  0.00    -0.307 OA
HETATM   13  H   UNK N   1      30.697  20.046  -3.598  0.00  0.00     0.222 HD
ENDBRANCH  10  12
BRANCH  10  14
HETATM   14  O   UNK N   1      32.643  21.159  -2.022  0.00  0.00    -0.307 OA
HETATM   15  H   UNK N   1      32.184  20.624  -1.355  0.00  0.00     0.222 HD
ENDBRANCH  10  14
ENDBRANCH   9  10
ENDBRANCH   8   9
ENDBRANCH   7   8
ENDBRANCH   3   7
BRANCH   1  16
HETATM   16  C   UNK N   1      29.171  20.624  -8.250  0.00  0.00     0.013 C 
HETATM   17  C   UNK N   1      29.087  19.183  -7.760  0.00  0.00     0.015 C 
HETATM   18  C   UNK N   1      28.917  20.620  -9.748  0.00  0.00     0.015 C 
ENDBRANCH   1  16
BRANCH   2  19
HETATM   19  C   UNK N   1      27.977  24.191  -4.672  0.00  0.00     0.013 C 
HETATM   20  C   UNK N   1      28.332  25.590  -5.140  0.00  0.00     0.015 C 
HETATM   21  C   UNK N   1      26.933  24.290  -3.571  0.00  0.00     0.015 C 
ENDBRANCH   2  19
TORSDOF 8
ENDMDL
MODEL 5
REMARK VINA RESULT:      -5.8     12.938     14.463
REMARK  8 active torsions:
REMARK  status: ('A' for Active; 'I' for Inactive)
REMARK    1  A    between atoms: P_1  and  O_3 
REMARK    2  A    between atoms: P_1  and  O_4 
REMARK    3  A    between atoms: P_1  and  O_5 
REMARK    4  A    between atoms: O_2  and  C_11 
REMARK    5  A    between atoms: O_2  and  C_19 
REMARK    6  A    between atoms: O_3  and  C_19 
REMARK    7  A    between atoms: C_7  and  C_9 
REMARK    8  A    between atoms: C_8  and  C_10 
ROOT
HETATM    1  C   UNK N   1      26.675  26.487  -4.947  0.00  0.00    -0.021 A 
HETATM    2  C   UNK N   1      26.492  24.370  -6.197  0.00  0.00    -0.021 A 
HETATM    3  C   UNK N   1      26.914  25.077  -5.033  0.00  0.00     0.085 A 
HETATM    4  C   UNK N   1      26.065  27.141  -6.029  0.00  0.00     0.010 A 
HETATM    5  C   UNK N   1      25.885  25.073  -7.244  0.00  0.00     0.010 A 
HETATM    6  C   UNK N   1      25.683  26.445  -7.168  0.00  0.00     0.001 A 
ENDROOT
BRANCH   3   7
HETATM    7  O   UNK N   1      27.529  24.379  -4.042  0.00  0.00    -0.325 OA
BRANCH   7   8
HETATM    8  C   UNK N   1      28.884  24.211  -3.897  0.00  0.00     0.357 C 
BRANCH   8   9
HETATM    9  O   UNK N   1      29.122  23.097  -3.090  0.00  0.00    -0.271 OA
BRANCH   9  10
HETATM   10  P   UNK N   1      30.853  22.991  -2.960  0.00  0.00     0.392 P 
HETATM   11  O   UNK N   1      30.441  23.057  -1.463  0.00  0.00    -0.631 OA
BRANCH  10  12
HETATM   12  O   UNK N   1      30.208  21.542  -3.666  0.00  0.00    -0.307 OA
HETATM   13  H   UNK N   1      30.762  20.950  -4.198  0.00  0.00     0.222 HD
ENDBRANCH  10  12
BRANCH  10  14
HETATM   14  O   UNK N   1      31.609  21.581  -2.289  0.00  0.00    -0.307 OA
HETATM   15  H   UNK N   1      31.841  21.470  -1.354  0.00  0.00     0.222 HD
ENDBRANCH  10  14
ENDBRANCH   9  10
ENDBRANCH   8   9
ENDBRANCH   7   8
ENDBRANCH   3   7
BRANCH   1  16
HETATM   16  C   UNK N   1      27.027  27.296  -3.709  0.00  0.00     0.013 C 
HETATM   17  C   UNK N   1      28.410  27.936  -3.755  0.00  0.00     0.015 C 
HETATM   18  C   UNK N   1      26.012  28.406  -3.491  0.00  0.00     0.015 C 
ENDBRANCH   1  16
BRANCH   2  19
HETATM   19  C   UNK N   1      26.661  22.871  -6.398  0.00  0.00     0.013 C 
HETATM   20  C   UNK N   1      25.475  22.287  -7.142  0.00  0.00     0.015 C 
HETATM   21  C   UNK N   1      27.943  22.385  -7.056  0.00  0.00     0.015 C 
ENDBRANCH   2  19
TORSDOF 8
ENDMDL
MODEL 6
REMARK VINA RESULT:      -5.7      1.307      4.099
REMARK  8 active torsions:
REMARK  status: ('A' for Active; 'I' for Inactive)
REMARK    1  A    between atoms: P_1  and  O_3 
REMARK    2  A    between atoms: P_1  and  O_4 
REMARK    3  A    between atoms: P_1  and  O_5 
REMARK    4  A    between atoms: O_2  and  C_11 
REMARK    5  A    between atoms: O_2  and  C_19 
REMARK    6  A    between atoms: O_3  and  C_19 
REMARK    7  A    between atoms: C_7  and  C_9 
REMARK    8  A    between atoms: C_8  and  C_10 
ROOT
HETATM    1  C   UNK N   1      31.543  17.023   5.662  0.00  0.00    -0.021 A 
HETATM    2  C   UNK N   1      30.022  17.277   7.586  0.00  0.00    -0.021 A 
HETATM    3  C   UNK N   1      31.343  17.313   7.051  0.00  0.00     0.085 A 
HETATM    4  C   UNK N   1      30.435  16.675   4.874  0.00  0.00     0.010 A 
HETATM    5  C   UNK N   1      28.954  16.927   6.752  0.00  0.00     0.010 A 
HETATM    6  C   UNK N   1      29.157  16.618   5.413  0.00  0.00     0.001 A 
ENDROOT
BRANCH   3   7
HETATM    7  O   UNK N   1      32.370  17.625   7.886  0.00  0.00    -0.325 OA
BRANCH   7   8
HETATM    8  C   UNK N   1      33.062  16.741   8.675  0.00  0.00     0.357 C 
BRANCH   8   9
HETATM    9  O   UNK N   1      34.414  17.092   8.677  0.00  0.00    -0.271 OA
BRANCH   9  10
HETATM   10  P   UNK N   1      35.169  15.989   9.789  0.00  0.00     0.392 P 
HETATM   11  O   UNK N   1      35.607  17.359  10.378  0.00  0.00    -0.631 OA
BRANCH  10  12
HETATM   12  O   UNK N   1      33.440  15.854   9.880  0.00  0.00    -0.307 OA
HETATM   13  H   UNK N   1      32.872  16.641   9.879  0.00  0.00     0.222 HD
ENDBRANCH  10  12
BRANCH  10  14
HETATM   14  O   UNK N   1      34.638  15.887  11.437  0.00  0.00    -0.307 OA
HETATM   15  H   UNK N   1      34.367  16.645  11.978  0.00  0.00     0.222 HD
ENDBRANCH  10  14
ENDBRANCH   9  10
ENDBRANCH   8   9
ENDBRANCH   7   8
ENDBRANCH   3   7
BRANCH   1  16
HETATM   16  C   UNK N   1      32.909  17.113   5.002  0.00  0.00     0.013 C 
HETATM   17  C   UNK N   1      33.784  15.881   5.207  0.00  0.00     0.015 C 
HETATM   18  C   UNK N   1      32.764  17.334   3.505  0.00  0.00     0.015 C 
ENDBRANCH   1  16
BRANCH   2  19
HETATM   19  C   UNK N   1      29.675  17.592   9.033  0.00  0.00     0.013 C 
HETATM   20  C   UNK N   1      29.998  19.037   9.367  0.00  0.00     0.015 C 
HETATM   21  C   UNK N   1      28.264  17.282   9.507  0.00  0.00     0.015 C 
ENDBRANCH   2  19
TORSDOF 8
ENDMDL
MODEL 7
REMARK VINA RESULT:      -5.6     12.922     14.722
REMARK  8 active torsions:
REMARK  status: ('A' for Active; 'I' for Inactive)
REMARK    1  A    between atoms: P_1  and  O_3 
REMARK    2  A    between atoms: P_1  and  O_4 
REMARK    3  A    between atoms: P_1  and  O_5 
REMARK    4  A    between atoms: O_2  and  C_11 
REMARK    5  A    between atoms: O_2  and  C_19 
REMARK    6  A    between atoms: O_3  and  C_19 
REMARK    7  A    between atoms: C_7  and  C_9 
REMARK    8  A    between atoms: C_8  and  C_10 
ROOT
HETATM    1  C   UNK N   1      26.452  24.356  -6.257  0.00  0.00    -0.021 A 
HETATM    2  C   UNK N   1      26.790  26.403  -4.925  0.00  0.00    -0.021 A 
HETATM    3  C   UNK N   1      26.956  24.995  -5.078  0.00  0.00     0.085 A 
HETATM    4  C   UNK N   1      25.774  25.128  -7.213  0.00  0.00     0.010 A 
HETATM    5  C   UNK N   1      26.108  27.124  -5.913  0.00  0.00     0.010 A 
HETATM    6  C   UNK N   1      25.596  26.494  -7.040  0.00  0.00     0.001 A 
ENDROOT
BRANCH   3   7
HETATM    7  O   UNK N   1      27.593  24.310  -4.092  0.00  0.00    -0.325 OA
BRANCH   7   8
HETATM    8  C   UNK N   1      28.940  24.052  -4.032  0.00  0.00     0.357 C 
BRANCH   8   9
HETATM    9  O   UNK N   1      29.176  23.078  -3.059  0.00  0.00    -0.271 OA
BRANCH   9  10
HETATM   10  P   UNK N   1      30.907  22.948  -2.955  0.00  0.00     0.392 P 
HETATM   11  O   UNK N   1      30.521  23.062  -1.454  0.00  0.00    -0.631 OA
BRANCH  10  12
HETATM   12  O   UNK N   1      30.227  21.491  -3.610  0.00  0.00    -0.307 OA
HETATM   13  H   UNK N   1      29.304  21.245  -3.441  0.00  0.00     0.222 HD
ENDBRANCH  10  12
BRANCH  10  14
HETATM   14  O   UNK N   1      31.652  21.545  -2.258  0.00  0.00    -0.307 OA
HETATM   15  H   UNK N   1      31.893  20.745  -2.750  0.00  0.00     0.222 HD
ENDBRANCH  10  14
ENDBRANCH   9  10
ENDBRANCH   8   9
ENDBRANCH   7   8
ENDBRANCH   3   7
BRANCH   1  16
HETATM   16  C   UNK N   1      26.656  22.874  -6.528  0.00  0.00     0.013 C 
HETATM   17  C   UNK N   1      25.485  22.202  -7.236  0.00  0.00     0.015 C 
HETATM   18  C   UNK N   1      27.898  22.653  -7.376  0.00  0.00     0.015 C 
ENDBRANCH   1  16
BRANCH   2  19
HETATM   19  C   UNK N   1      27.302  27.202  -3.737  0.00  0.00     0.013 C 
HETATM   20  C   UNK N   1      28.692  27.749  -4.010  0.00  0.00     0.015 C 
HETATM   21  C   UNK N   1      26.426  28.327  -3.209  0.00  0.00     0.015 C 
ENDBRANCH   2  19
TORSDOF 8
ENDMDL
MODEL 8
REMARK VINA RESULT:      -5.5     12.803     14.592
REMARK  8 active torsions:
REMARK  status: ('A' for Active; 'I' for Inactive)
REMARK    1  A    between atoms: P_1  and  O_3 
REMARK    2  A    between atoms: P_1  and  O_4 
REMARK    3  A    between atoms: P_1  and  O_5 
REMARK    4  A    between atoms: O_2  and  C_11 
REMARK    5  A    between atoms: O_2  and  C_19 
REMARK    6  A    between atoms: O_3  and  C_19 
REMARK    7  A    between atoms: C_7  and  C_9 
REMARK    8  A    between atoms: C_8  and  C_10 
ROOT
HETATM    1  C   UNK N   1      41.221  22.715   1.042  0.00  0.00    -0.021 A 
HETATM    2  C   UNK N   1      42.738  22.102   2.885  0.00  0.00    -0.021 A 
HETATM    3  C   UNK N   1      42.368  23.008   1.848  0.00  0.00     0.085 A 
HETATM    4  C   UNK N   1      40.514  21.524   1.271  0.00  0.00     0.010 A 
HETATM    5  C   UNK N   1      41.995  20.931   3.071  0.00  0.00     0.010 A 
HETATM    6  C   UNK N   1      40.901  20.637   2.267  0.00  0.00     0.001 A 
ENDROOT
BRANCH   3   7
HETATM    7  O   UNK N   1      43.123  24.123   1.665  0.00  0.00    -0.325 OA
BRANCH   7   8
HETATM    8  C   UNK N   1      44.249  24.214   0.886  0.00  0.00     0.357 C 
BRANCH   8   9
HETATM    9  O   UNK N   1      44.673  25.544   0.848  0.00  0.00    -0.271 OA
BRANCH   9  10
HETATM   10  P   UNK N   1      46.221  25.552   1.641  0.00  0.00     0.392 P 
HETATM   11  O   UNK N   1      45.292  26.042   2.786  0.00  0.00    -0.631 OA
BRANCH  10  12
HETATM   12  O   UNK N   1      45.774  23.934   1.196  0.00  0.00    -0.307 OA
HETATM   13  H   UNK N   1      46.445  23.266   0.982  0.00  0.00     0.222 HD
ENDBRANCH  10  12
BRANCH  10  14
HETATM   14  O   UNK N   1      46.567  24.435   2.923  0.00  0.00    -0.307 OA
HETATM   15  H   UNK N   1      46.135  24.439   3.791  0.00  0.00     0.222 HD
ENDBRANCH  10  14
ENDBRANCH   9  10
ENDBRANCH   8   9
ENDBRANCH   7   8
ENDBRANCH   3   7
BRANCH   1  16
HETATM   16  C   UNK N   1      40.718  23.666  -0.032  0.00  0.00     0.013 C 
HETATM   17  C   UNK N   1      39.522  23.143  -0.820  0.00  0.00     0.015 C 
HETATM   18  C   UNK N   1      40.322  25.000   0.580  0.00  0.00     0.015 C 
ENDBRANCH   1  16
BRANCH   2  19
HETATM   19  C   UNK N   1      43.916  22.312   3.826  0.00  0.00     0.013 C 
HETATM   20  C   UNK N   1      43.445  22.441   5.263  0.00  0.00     0.015 C 
HETATM   21  C   UNK N   1      45.055  21.307   3.770  0.00  0.00     0.015 C 
ENDBRANCH   2  19
TORSDOF 8
ENDMDL
MODEL 9
REMARK VINA RESULT:      -5.3      7.819      9.664
REMARK  8 active torsions:
REMARK  status: ('A' for Active; 'I' for Inactive)
REMARK    1  A    between atoms: P_1  and  O_3 
REMARK    2  A    between atoms: P_1  and  O_4 
REMARK    3  A    between atoms: P_1  and  O_5 
REMARK    4  A    between atoms: O_2  and  C_11 
REMARK    5  A    between atoms: O_2  and  C_19 
REMARK    6  A    between atoms: O_3  and  C_19 
REMARK    7  A    between atoms: C_7  and  C_9 
REMARK    8  A    between atoms: C_8  and  C_10 
ROOT
HETATM    1  C   UNK N   1      24.378  16.375   3.823  0.00  0.00    -0.021 A 
HETATM    2  C   UNK N   1      26.079  18.154   3.960  0.00  0.00    -0.021 A 
HETATM    3  C   UNK N   1      24.719  17.743   4.079  0.00  0.00     0.085 A 
HETATM    4  C   UNK N   1      25.388  15.485   3.426  0.00  0.00     0.010 A 
HETATM    5  C   UNK N   1      27.045  17.223   3.563  0.00  0.00     0.010 A 
HETATM    6  C   UNK N   1      26.704  15.904   3.288  0.00  0.00     0.001 A 
ENDROOT
BRANCH   3   7
HETATM    7  O   UNK N   1      23.792  18.672   4.435  0.00  0.00    -0.325 OA
BRANCH   7   8
HETATM    8  C   UNK N   1      23.098  19.486   3.576  0.00  0.00     0.357 C 
BRANCH   8   9
HETATM    9  O   UNK N   1      21.771  19.577   4.004  0.00  0.00    -0.271 OA
BRANCH   9  10
HETATM   10  P   UNK N   1      20.878  20.108   2.609  0.00  0.00     0.392 P 
HETATM   11  O   UNK N   1      20.170  20.902   3.743  0.00  0.00    -0.631 OA
BRANCH  10  12
HETATM   12  O   UNK N   1      22.534  20.620   2.502  0.00  0.00    -0.307 OA
HETATM   13  H   UNK N   1      23.214  20.257   3.092  0.00  0.00     0.222 HD
ENDBRANCH  10  12
BRANCH  10  14
HETATM   14  O   UNK N   1      20.988  21.749   2.057  0.00  0.00    -0.307 OA
HETATM   15  H   UNK N   1      20.439  22.479   2.383  0.00  0.00     0.222 HD
ENDBRANCH  10  14
ENDBRANCH   9  10
ENDBRANCH   8   9
ENDBRANCH   7   8
ENDBRANCH   3   7
BRANCH   1  16
HETATM   16  C   UNK N   1      22.965  15.843   4.002  0.00  0.00     0.013 C 
HETATM   17  C   UNK N   1      22.079  15.999   2.770  0.00  0.00     0.015 C 
HETATM   18  C   UNK N   1      22.993  14.369   4.367  0.00  0.00     0.015 C 
ENDBRANCH   1  16
BRANCH   2  19
HETATM   19  C   UNK N   1      26.573  19.568   4.231  0.00  0.00     0.013 C 
HETATM   20  C   UNK N   1      28.016  19.556   4.703  0.00  0.00     0.015 C 
HETATM   21  C   UNK N   1      26.428  20.595   3.119  0.00  0.00     0.015 C 
ENDBRANCH   2  19
TORSDOF 8
ENDMDL
