REMARK  0 active torsions:
REMARK  status: ('A' for Active; 'I' for Inactive)
ROOT
HETATM    1  C   UNK N   1      -0.055  -2.099   0.259  0.00  0.00     0.551 C 
HETATM    2  C   UNK N   1       0.630  -0.508  -1.385  0.00  0.00     0.551 C 
HETATM    3  C   UNK N   1       1.980  -2.431  -0.943  0.00  0.00     0.551 C 
HETATM    4  C   UNK N   1       0.694   0.067   0.931  0.00  0.00     0.551 C 
HETATM    5  C   UNK N   1       2.045  -1.849   1.373  0.00  0.00     0.551 C 
HETATM    6  C   UNK N   1       2.730  -0.264  -0.278  0.00  0.00     0.551 C 
HETATM    7  N   UNK N   1       0.601  -1.936  -1.046  0.00  0.00     0.173 N 
HETATM    8  N   UNK N   1       0.664  -1.352   1.300  0.00  0.00     0.173 N 
HETATM    9  N   UNK N   1       1.360   0.256  -0.366  0.00  0.00     0.173 N 
HETATM   10  N   UNK N   1       2.726  -1.688   0.081  0.00  0.00     0.173 N 
ENDROOT
TORSDOF 0
