MODEL 1
REMARK VINA RESULT:      -7.2      0.000      0.000
REMARK  21 active torsions:
REMARK  status: ('A' for Active; 'I' for Inactive)
REMARK    1  A    between atoms: O_9  and  C_58 
REMARK    2  A    between atoms: O_12  and  C_68 
REMARK       I    between atoms: N_19  and  C_50 
REMARK    3  A    between atoms: N_19  and  C_54 
REMARK    4  A    between atoms: N_20  and  C_46 
REMARK       I    between atoms: N_20  and  C_61 
REMARK    5  A    between atoms: N_21  and  C_44 
REMARK    6  A    between atoms: N_22  and  C_57 
REMARK       I    between atoms: N_23  and  C_63 
REMARK    7  A    between atoms: C_24  and  C_26 
REMARK    8  A    between atoms: C_25  and  C_27 
REMARK    9  A    between atoms: C_26  and  C_29 
REMARK   10  A    between atoms: C_28  and  C_30 
REMARK   11  A    between atoms: C_29  and  C_34 
REMARK   12  A    between atoms: C_30  and  C_33 
REMARK   13  A    between atoms: C_34  and  C_44 
REMARK   14  A    between atoms: C_36  and  C_42 
REMARK   15  A    between atoms: C_41  and  C_50 
REMARK   16  A    between atoms: C_42  and  C_51 
REMARK   17  A    between atoms: C_54  and  C_58 
REMARK   18  A    between atoms: C_54  and  C_63 
REMARK   19  A    between atoms: C_57  and  C_61 
REMARK   20  A    between atoms: C_57  and  C_62 
REMARK   21  A    between atoms: C_62  and  C_64 
ROOT
HETATM    1  S   UNK N   1      34.537   9.829   9.368  0.00  0.00    -0.095 SA
HETATM    2  S   UNK N   1      34.274  11.671  10.456  0.00  0.00    -0.095 SA
HETATM    3  O   UNK N   1      39.775  13.865   7.506  0.00  0.00    -0.271 OA
HETATM    4  O   UNK N   1      37.356  11.937   3.987  0.00  0.00    -0.271 OA
HETATM    5  O   UNK N   1      38.899   9.267   8.066  0.00  0.00    -0.271 OA
HETATM    6  O   UNK N   1      34.064  14.946   1.971  0.00  0.00    -0.271 OA
HETATM    7  O   UNK N   1      32.685  14.056   6.454  0.00  0.00    -0.271 OA
HETATM    8  N   UNK N   1      37.768  13.781   5.199  0.00  0.00    -0.346 N 
HETATM    9  N   UNK N   1      39.832  11.719   6.832  0.00  0.00    -0.346 N 
HETATM   10  N   UNK N   1      34.951  13.440   3.346  0.00  0.00    -0.346 N 
HETATM   11  N   UNK N   1      38.574  10.621   9.834  0.00  0.00    -0.345 N 
HETATM   12  N   UNK N   1      33.978  15.538   5.442  0.00  0.00    -0.346 N 
HETATM   13  C   UNK N   1      39.177  13.494   5.249  0.00  0.00     0.176 C 
HETATM   14  C   UNK N   1      40.264  11.217   8.123  0.00  0.00     0.180 C 
HETATM   15  C   UNK N   1      35.442  13.133   4.674  0.00  0.00     0.181 C 
HETATM   16  C   UNK N   1      39.620  13.046   6.609  0.00  0.00     0.241 C 
HETATM   17  C   UNK N   1      36.924  12.921   4.572  0.00  0.00     0.241 C 
HETATM   18  C   UNK N   1      39.213  10.276   8.682  0.00  0.00     0.241 C 
HETATM   19  C   UNK N   1      33.334  15.155   4.208  0.00  0.00     0.180 C 
HETATM   20  C   UNK N   1      34.169  14.526   3.114  0.00  0.00     0.241 C 
HETATM   21  C   UNK N   1      37.377   9.939  10.344  0.00  0.00     0.186 C 
HETATM   22  C   UNK N   1      33.696  15.617   7.940  0.00  0.00     0.186 C 
HETATM   23  C   UNK N   1      36.344   9.954   9.195  0.00  0.00     0.120 C 
HETATM   24  C   UNK N   1      33.471  14.990   6.566  0.00  0.00     0.242 C 
HETATM   25  C   UNK N   1      34.540  14.729   8.918  0.00  0.00     0.120 C 
HETATM   26  H   UNK N   1      37.386  14.587   5.719  0.00  0.00     0.163 HD
HETATM   27  H   UNK N   1      39.675  11.049   6.064  0.00  0.00     0.163 HD
HETATM   28  H   UNK N   1      35.432  13.016   2.534  0.00  0.00     0.163 HD
HETATM   29  H   UNK N   1      38.914  11.471  10.305  0.00  0.00     0.163 HD
HETATM   30  H   UNK N   1      34.628  16.338   5.481  0.00  0.00     0.163 HD
ENDROOT
BRANCH  22  31
HETATM   31  N   UNK N   1      32.451  15.980   8.614  0.00  0.00    -0.345 N 
HETATM   32  C   UNK N   1      31.906  17.231   8.563  0.00  0.00     0.251 C 
HETATM   33  O   UNK N   1      32.602  18.221   8.395  0.00  0.00    -0.271 OA
HETATM   34  H   UNK N   1      31.851  15.196   8.900  0.00  0.00     0.163 HD
BRANCH  32  35
HETATM   35  C   UNK N   1      30.435  17.423   8.560  0.00  0.00     0.313 C 
BRANCH  35  36
HETATM   36  N   UNK N   1      29.765  17.184   9.852  0.00  0.00     0.092 N 
HETATM   37  H   UNK N   1      29.244  18.019  10.198  0.00  0.00     0.313 HD
HETATM   38  H   UNK N   1      30.397  16.783  10.578  0.00  0.00     0.313 HD
ENDBRANCH  35  36
BRANCH  35  39
HETATM   39  C   UNK N   1      29.858  16.484   7.451  0.00  0.00     0.083 C 
BRANCH  39  40
HETATM   40  C   UNK N   1      28.759  17.244   6.840  0.00  0.00    -0.055 A 
HETATM   41  C   UNK N   1      27.532  16.595   6.827  0.00  0.00     0.019 A 
HETATM   42  C   UNK N   1      26.647  16.832   5.805  0.00  0.00    -0.025 A 
HETATM   43  C   UNK N   1      26.968  17.762   4.792  0.00  0.00    -0.026 A 
HETATM   44  C   UNK N   1      25.499  16.054   5.719  0.00  0.00     0.012 A 
HETATM   45  C   UNK N   1      28.156  18.501   4.867  0.00  0.00     0.013 A 
HETATM   46  C   UNK N   1      26.123  17.894   3.692  0.00  0.00     0.012 A 
HETATM   47  C   UNK N   1      29.073  18.216   5.881  0.00  0.00     0.008 A 
HETATM   48  C   UNK N   1      24.978  17.093   3.597  0.00  0.00     0.001 A 
HETATM   49  C   UNK N   1      24.665  16.180   4.611  0.00  0.00     0.001 A 
ENDBRANCH  39  40
ENDBRANCH  35  39
ENDBRANCH  32  35
ENDBRANCH  22  31
BRANCH  19  50
HETATM   50  C   UNK N   1      32.364  16.255   3.803  0.00  0.00     0.073 C 
BRANCH  50  51
HETATM   51  C   UNK N   1      30.936  15.829   3.666  0.00  0.00    -0.056 A 
HETATM   52  C   UNK N   1      30.201  16.310   2.579  0.00  0.00     0.010 A 
HETATM   53  C   UNK N   1      28.913  15.830   2.336  0.00  0.00     0.037 A 
HETATM   54  C   UNK N   1      28.360  14.855   3.172  0.00  0.00     0.065 A 
HETATM   55  C   UNK N   1      29.078  14.391   4.275  0.00  0.00     0.037 A 
HETATM   56  C   UNK N   1      30.360  14.877   4.522  0.00  0.00     0.010 A 
BRANCH  54  57
HETATM   57  O   UNK N   1      27.147  14.353   2.905  0.00  0.00    -0.361 OA
HETATM   58  H   UNK N   1      26.593  13.785   3.404  0.00  0.00     0.217 HD
ENDBRANCH  54  57
ENDBRANCH  50  51
ENDBRANCH  19  50
BRANCH  21  59
HETATM   59  C   UNK N   1      36.936  10.580  11.673  0.00  0.00     0.242 C 
HETATM   60  O   UNK N   1      36.148   9.985  12.393  0.00  0.00    -0.271 OA
HETATM   61  N   UNK N   1      37.334  11.837  12.020  0.00  0.00    -0.344 N 
HETATM   62  H   UNK N   1      38.006  12.338  11.422  0.00  0.00     0.163 HD
BRANCH  61  63
HETATM   63  C   UNK N   1      36.685  12.584  13.100  0.00  0.00     0.204 C 
BRANCH  63  64
HETATM   64  C   UNK N   1      37.275  12.404  14.510  0.00  0.00     0.146 C 
HETATM   65  C   UNK N   1      36.907  13.563  15.417  0.00  0.00     0.042 C 
BRANCH  64  66
HETATM   66  O   UNK N   1      36.880  11.198  15.090  0.00  0.00    -0.393 OA
HETATM   67  H   UNK N   1      36.982  10.289  15.414  0.00  0.00     0.210 HD
ENDBRANCH  64  66
ENDBRANCH  63  64
BRANCH  63  68
HETATM   68  C   UNK N   1      35.946  13.867  12.770  0.00  0.00     0.240 C 
HETATM   69  O   UNK N   1      34.741  13.936  12.939  0.00  0.00    -0.271 OA
HETATM   70  N   UNK N   1      36.621  14.964  12.335  0.00  0.00    -0.368 N 
HETATM   71  H   UNK N   1      37.641  14.944  12.200  0.00  0.00     0.159 HD
HETATM   72  H   UNK N   1      36.119  15.844  12.144  0.00  0.00     0.159 HD
ENDBRANCH  63  68
ENDBRANCH  61  63
ENDBRANCH  21  59
BRANCH  15  73
HETATM   73  C   UNK N   1      34.707  12.043   5.537  0.00  0.00     0.075 C 
BRANCH  73  74
HETATM   74  C   UNK N   1      34.227  10.967   4.562  0.00  0.00    -0.028 A 
HETATM   75  C   UNK N   1      33.034  10.853   3.853  0.00  0.00    -0.002 A 
HETATM   76  C   UNK N   1      33.025   9.282   3.444  0.00  0.00     0.042 A 
HETATM   77  C   UNK N   1      31.675  11.816   3.554  0.00  0.00     0.014 A 
HETATM   78  N   UNK N   1      34.152   8.742   3.851  0.00  0.00    -0.365 N 
HETATM   79  C   UNK N   1      31.691   8.529   2.762  0.00  0.00     0.030 A 
HETATM   80  C   UNK N   1      34.878   9.707   4.478  0.00  0.00     0.096 A 
HETATM   81  H   UNK N   1      34.396   7.742   3.766  0.00  0.00     0.165 HD
HETATM   82  C   UNK N   1      30.298   9.446   2.481  0.00  0.00     0.002 A 
HETATM   83  C   UNK N   1      30.293  11.100   2.869  0.00  0.00     0.001 A 
ENDBRANCH  73  74
ENDBRANCH  15  73
BRANCH  14  84
HETATM   84  C   UNK N   1      41.647  10.575   8.024  0.00  0.00     0.009 C 
HETATM   85  C   UNK N   1      42.705  11.591   8.408  0.00  0.00     0.012 C 
HETATM   86  C   UNK N   1      41.926  10.127   6.598  0.00  0.00     0.012 C 
ENDBRANCH  14  84
BRANCH  13  87
HETATM   87  C   UNK N   1      40.023  14.624   4.696  0.00  0.00     0.035 C 
BRANCH  87  88
HETATM   88  C   UNK N   1      41.030  14.062   3.708  0.00  0.00     0.004 C 
BRANCH  88  89
HETATM   89  C   UNK N   1      40.433  12.924   2.876  0.00  0.00     0.030 C 
BRANCH  89  90
HETATM   90  C   UNK N   1      39.828  13.406   1.555  0.00  0.00     0.267 C 
BRANCH  90  91
HETATM   91  N   UNK N   1      38.516  12.822   1.306  0.00  0.00     0.078 N 
HETATM   92  H   UNK N   1      38.460  12.546   0.302  0.00  0.00     0.312 HD
HETATM   93  H   UNK N   1      37.764  13.517   1.516  0.00  0.00     0.312 HD
ENDBRANCH  90  91
ENDBRANCH  89  90
ENDBRANCH  88  89
ENDBRANCH  87  88
ENDBRANCH  13  87
TORSDOF 21
ENDMDL
MODEL 2
REMARK VINA RESULT:      -6.9      1.001      1.528
REMARK  21 active torsions:
REMARK  status: ('A' for Active; 'I' for Inactive)
REMARK    1  A    between atoms: O_9  and  C_58 
REMARK    2  A    between atoms: O_12  and  C_68 
REMARK       I    between atoms: N_19  and  C_50 
REMARK    3  A    between atoms: N_19  and  C_54 
REMARK    4  A    between atoms: N_20  and  C_46 
REMARK       I    between atoms: N_20  and  C_61 
REMARK    5  A    between atoms: N_21  and  C_44 
REMARK    6  A    between atoms: N_22  and  C_57 
REMARK       I    between atoms: N_23  and  C_63 
REMARK    7  A    between atoms: C_24  and  C_26 
REMARK    8  A    between atoms: C_25  and  C_27 
REMARK    9  A    between atoms: C_26  and  C_29 
REMARK   10  A    between atoms: C_28  and  C_30 
REMARK   11  A    between atoms: C_29  and  C_34 
REMARK   12  A    between atoms: C_30  and  C_33 
REMARK   13  A    between atoms: C_34  and  C_44 
REMARK   14  A    between atoms: C_36  and  C_42 
REMARK   15  A    between atoms: C_41  and  C_50 
REMARK   16  A    between atoms: C_42  and  C_51 
REMARK   17  A    between atoms: C_54  and  C_58 
REMARK   18  A    between atoms: C_54  and  C_63 
REMARK   19  A    between atoms: C_57  and  C_61 
REMARK   20  A    between atoms: C_57  and  C_62 
REMARK   21  A    between atoms: C_62  and  C_64 
ROOT
HETATM    1  S   UNK N   1      34.582   9.882   9.461  0.00  0.00    -0.095 SA
HETATM    2  S   UNK N   1      34.354  11.720  10.564  0.00  0.00    -0.095 SA
HETATM    3  O   UNK N   1      39.841  13.870   7.557  0.00  0.00    -0.271 OA
HETATM    4  O   UNK N   1      37.355  11.992   4.058  0.00  0.00    -0.271 OA
HETATM    5  O   UNK N   1      38.919   9.279   8.100  0.00  0.00    -0.271 OA
HETATM    6  O   UNK N   1      34.072  15.050   2.103  0.00  0.00    -0.271 OA
HETATM    7  O   UNK N   1      32.741  14.149   6.598  0.00  0.00    -0.271 OA
HETATM    8  N   UNK N   1      37.804  13.824   5.276  0.00  0.00    -0.346 N 
HETATM    9  N   UNK N   1      39.865  11.728   6.869  0.00  0.00    -0.346 N 
HETATM   10  N   UNK N   1      34.960  13.527   3.457  0.00  0.00    -0.346 N 
HETATM   11  N   UNK N   1      38.632  10.625   9.880  0.00  0.00    -0.345 N 
HETATM   12  N   UNK N   1      34.038  15.622   5.578  0.00  0.00    -0.346 N 
HETATM   13  C   UNK N   1      39.210  13.520   5.306  0.00  0.00     0.176 C 
HETATM   14  C   UNK N   1      40.307  11.212   8.151  0.00  0.00     0.180 C 
HETATM   15  C   UNK N   1      35.463  13.206   4.777  0.00  0.00     0.181 C 
HETATM   16  C   UNK N   1      39.666  13.059   6.657  0.00  0.00     0.241 C 
HETATM   17  C   UNK N   1      36.942  12.977   4.655  0.00  0.00     0.241 C 
HETATM   18  C   UNK N   1      39.253  10.281   8.718  0.00  0.00     0.241 C 
HETATM   19  C   UNK N   1      33.374  15.254   4.351  0.00  0.00     0.180 C 
HETATM   20  C   UNK N   1      34.187  14.622   3.242  0.00  0.00     0.241 C 
HETATM   21  C   UNK N   1      37.435   9.954  10.401  0.00  0.00     0.186 C 
HETATM   22  C   UNK N   1      33.788  15.689   8.080  0.00  0.00     0.186 C 
HETATM   23  C   UNK N   1      36.387   9.988   9.266  0.00  0.00     0.120 C 
HETATM   24  C   UNK N   1      33.539  15.072   6.705  0.00  0.00     0.242 C 
HETATM   25  C   UNK N   1      34.635  14.785   9.042  0.00  0.00     0.120 C 
HETATM   26  H   UNK N   1      37.437  14.630   5.806  0.00  0.00     0.163 HD
HETATM   27  H   UNK N   1      39.690  11.064   6.099  0.00  0.00     0.163 HD
HETATM   28  H   UNK N   1      35.425  13.102   2.637  0.00  0.00     0.163 HD
HETATM   29  H   UNK N   1      38.989  11.468  10.352  0.00  0.00     0.163 HD
HETATM   30  H   UNK N   1      34.697  16.415   5.614  0.00  0.00     0.163 HD
ENDROOT
BRANCH  22  31
HETATM   31  N   UNK N   1      32.556  16.061   8.772  0.00  0.00    -0.345 N 
HETATM   32  C   UNK N   1      31.948  17.275   8.623  0.00  0.00     0.251 C 
HETATM   33  O   UNK N   1      32.586  18.273   8.325  0.00  0.00    -0.271 OA
HETATM   34  H   UNK N   1      32.008  15.283   9.162  0.00  0.00     0.163 HD
BRANCH  32  35
HETATM   35  C   UNK N   1      30.471  17.399   8.670  0.00  0.00     0.313 C 
BRANCH  35  36
HETATM   36  N   UNK N   1      29.849  17.057   9.963  0.00  0.00     0.092 N 
HETATM   37  H   UNK N   1      29.879  17.844  10.646  0.00  0.00     0.313 HD
HETATM   38  H   UNK N   1      30.206  16.166  10.371  0.00  0.00     0.313 HD
ENDBRANCH  35  36
BRANCH  35  39
HETATM   39  C   UNK N   1      29.904  16.498   7.524  0.00  0.00     0.083 C 
BRANCH  39  40
HETATM   40  C   UNK N   1      28.829  17.290   6.911  0.00  0.00    -0.055 A 
HETATM   41  C   UNK N   1      27.605  16.643   6.813  0.00  0.00     0.019 A 
HETATM   42  C   UNK N   1      26.761  16.934   5.771  0.00  0.00    -0.025 A 
HETATM   43  C   UNK N   1      27.121  17.918   4.824  0.00  0.00    -0.026 A 
HETATM   44  C   UNK N   1      25.619  16.162   5.597  0.00  0.00     0.012 A 
HETATM   45  C   UNK N   1      28.303  18.651   4.986  0.00  0.00     0.013 A 
HETATM   46  C   UNK N   1      26.320  18.109   3.700  0.00  0.00     0.012 A 
HETATM   47  C   UNK N   1      29.179  18.313   6.019  0.00  0.00     0.008 A 
HETATM   48  C   UNK N   1      25.182  17.314   3.515  0.00  0.00     0.001 A 
HETATM   49  C   UNK N   1      24.830  16.348   4.465  0.00  0.00     0.001 A 
ENDBRANCH  39  40
ENDBRANCH  35  39
ENDBRANCH  32  35
ENDBRANCH  22  31
BRANCH  19  50
HETATM   50  C   UNK N   1      32.411  16.368   3.965  0.00  0.00     0.073 C 
BRANCH  50  51
HETATM   51  C   UNK N   1      30.993  15.940   3.746  0.00  0.00    -0.056 A 
HETATM   52  C   UNK N   1      30.283  16.511   2.687  0.00  0.00     0.010 A 
HETATM   53  C   UNK N   1      29.010  16.041   2.362  0.00  0.00     0.037 A 
HETATM   54  C   UNK N   1      28.447  14.987   3.088  0.00  0.00     0.065 A 
HETATM   55  C   UNK N   1      29.139  14.431   4.164  0.00  0.00     0.037 A 
HETATM   56  C   UNK N   1      30.407  14.907   4.493  0.00  0.00     0.010 A 
BRANCH  54  57
HETATM   57  O   UNK N   1      27.249  14.497   2.740  0.00  0.00    -0.361 OA
HETATM   58  H   UNK N   1      26.396  14.884   2.764  0.00  0.00     0.217 HD
ENDBRANCH  54  57
ENDBRANCH  50  51
ENDBRANCH  19  50
BRANCH  21  59
HETATM   59  C   UNK N   1      37.018  10.591  11.739  0.00  0.00     0.242 C 
HETATM   60  O   UNK N   1      36.233  10.000  12.466  0.00  0.00    -0.271 OA
HETATM   61  N   UNK N   1      37.434  11.841  12.089  0.00  0.00    -0.344 N 
HETATM   62  H   UNK N   1      38.104  12.340  11.485  0.00  0.00     0.163 HD
BRANCH  61  63
HETATM   63  C   UNK N   1      36.807  12.589  13.181  0.00  0.00     0.204 C 
BRANCH  63  64
HETATM   64  C   UNK N   1      37.428  12.412  14.579  0.00  0.00     0.146 C 
HETATM   65  C   UNK N   1      36.472  11.710  15.526  0.00  0.00     0.042 C 
BRANCH  64  66
HETATM   66  O   UNK N   1      38.642  11.724  14.526  0.00  0.00    -0.393 OA
HETATM   67  H   UNK N   1      39.561  11.520  14.758  0.00  0.00     0.210 HD
ENDBRANCH  64  66
ENDBRANCH  63  64
BRANCH  63  68
HETATM   68  C   UNK N   1      36.059  13.870  12.866  0.00  0.00     0.240 C 
HETATM   69  O   UNK N   1      34.937  14.045  13.311  0.00  0.00    -0.271 OA
HETATM   70  N   UNK N   1      36.645  14.853  12.134  0.00  0.00    -0.368 N 
HETATM   71  H   UNK N   1      37.598  14.745  11.760  0.00  0.00     0.159 HD
HETATM   72  H   UNK N   1      36.145  15.736  11.950  0.00  0.00     0.159 HD
ENDBRANCH  63  68
ENDBRANCH  61  63
ENDBRANCH  21  59
BRANCH  15  73
HETATM   73  C   UNK N   1      34.727  12.118   5.642  0.00  0.00     0.075 C 
BRANCH  73  74
HETATM   74  C   UNK N   1      33.799  11.361   4.692  0.00  0.00    -0.028 A 
HETATM   75  C   UNK N   1      34.088  10.468   3.663  0.00  0.00    -0.002 A 
HETATM   76  C   UNK N   1      32.706  10.467   2.811  0.00  0.00     0.042 A 
HETATM   77  C   UNK N   1      35.453   9.663   3.069  0.00  0.00     0.014 A 
HETATM   78  N   UNK N   1      31.832  11.220   3.438  0.00  0.00    -0.365 N 
HETATM   79  C   UNK N   1      32.565   9.727   1.312  0.00  0.00     0.030 A 
HETATM   80  C   UNK N   1      32.434  11.727   4.548  0.00  0.00     0.096 A 
HETATM   81  H   UNK N   1      30.881  11.437   3.096  0.00  0.00     0.165 HD
HETATM   82  C   UNK N   1      33.916   8.943   0.663  0.00  0.00     0.002 A 
HETATM   83  C   UNK N   1      35.365   8.902   1.550  0.00  0.00     0.001 A 
ENDBRANCH  73  74
ENDBRANCH  15  73
BRANCH  14  84
HETATM   84  C   UNK N   1      41.682  10.555   8.030  0.00  0.00     0.009 C 
HETATM   85  C   UNK N   1      42.757  11.562   8.391  0.00  0.00     0.012 C 
HETATM   86  C   UNK N   1      41.931  10.099   6.601  0.00  0.00     0.012 C 
ENDBRANCH  14  84
BRANCH  13  87
HETATM   87  C   UNK N   1      40.061  14.644   4.749  0.00  0.00     0.035 C 
BRANCH  87  88
HETATM   88  C   UNK N   1      40.845  14.136   3.551  0.00  0.00     0.004 C 
BRANCH  88  89
HETATM   89  C   UNK N   1      42.020  13.253   3.977  0.00  0.00     0.030 C 
BRANCH  89  90
HETATM   90  C   UNK N   1      42.939  13.935   4.994  0.00  0.00     0.267 C 
BRANCH  90  91
HETATM   91  N   UNK N   1      44.074  13.096   5.358  0.00  0.00     0.078 N 
HETATM   92  H   UNK N   1      44.550  12.783   4.485  0.00  0.00     0.312 HD
HETATM   93  H   UNK N   1      43.751  12.259   5.895  0.00  0.00     0.312 HD
ENDBRANCH  90  91
ENDBRANCH  89  90
ENDBRANCH  88  89
ENDBRANCH  87  88
ENDBRANCH  13  87
TORSDOF 21
ENDMDL
MODEL 3
REMARK VINA RESULT:      -6.5      6.660     13.050
REMARK  21 active torsions:
REMARK  status: ('A' for Active; 'I' for Inactive)
REMARK    1  A    between atoms: O_9  and  C_58 
REMARK    2  A    between atoms: O_12  and  C_68 
REMARK       I    between atoms: N_19  and  C_50 
REMARK    3  A    between atoms: N_19  and  C_54 
REMARK    4  A    between atoms: N_20  and  C_46 
REMARK       I    between atoms: N_20  and  C_61 
REMARK    5  A    between atoms: N_21  and  C_44 
REMARK    6  A    between atoms: N_22  and  C_57 
REMARK       I    between atoms: N_23  and  C_63 
REMARK    7  A    between atoms: C_24  and  C_26 
REMARK    8  A    between atoms: C_25  and  C_27 
REMARK    9  A    between atoms: C_26  and  C_29 
REMARK   10  A    between atoms: C_28  and  C_30 
REMARK   11  A    between atoms: C_29  and  C_34 
REMARK   12  A    between atoms: C_30  and  C_33 
REMARK   13  A    between atoms: C_34  and  C_44 
REMARK   14  A    between atoms: C_36  and  C_42 
REMARK   15  A    between atoms: C_41  and  C_50 
REMARK   16  A    between atoms: C_42  and  C_51 
REMARK   17  A    between atoms: C_54  and  C_58 
REMARK   18  A    between atoms: C_54  and  C_63 
REMARK   19  A    between atoms: C_57  and  C_61 
REMARK   20  A    between atoms: C_57  and  C_62 
REMARK   21  A    between atoms: C_62  and  C_64 
ROOT
HETATM    1  S   UNK N   1      23.378  12.057  -0.371  0.00  0.00    -0.095 SA
HETATM    2  S   UNK N   1      23.217  13.829   0.844  0.00  0.00    -0.095 SA
HETATM    3  O   UNK N   1      22.245   9.838   6.030  0.00  0.00    -0.271 OA
HETATM    4  O   UNK N   1      25.883   7.878   3.823  0.00  0.00    -0.271 OA
HETATM    5  O   UNK N   1      21.311   8.477   1.614  0.00  0.00    -0.271 OA
HETATM    6  O   UNK N   1      30.211   9.807   5.048  0.00  0.00    -0.271 OA
HETATM    7  O   UNK N   1      27.696  13.170   2.776  0.00  0.00    -0.271 OA
HETATM    8  N   UNK N   1      25.191   9.358   5.361  0.00  0.00    -0.346 N 
HETATM    9  N   UNK N   1      22.172   8.312   4.378  0.00  0.00    -0.346 N 
HETATM   10  N   UNK N   1      28.282   9.512   3.981  0.00  0.00    -0.346 N 
HETATM   11  N   UNK N   1      20.587  10.506   2.263  0.00  0.00    -0.345 N 
HETATM   12  N   UNK N   1      27.928  12.484   4.866  0.00  0.00    -0.346 N 
HETATM   13  C   UNK N   1      24.161   8.468   5.827  0.00  0.00     0.176 C 
HETATM   14  C   UNK N   1      20.844   8.699   3.938  0.00  0.00     0.180 C 
HETATM   15  C   UNK N   1      26.937   9.986   3.729  0.00  0.00     0.181 C 
HETATM   16  C   UNK N   1      22.790   8.922   5.427  0.00  0.00     0.241 C 
HETATM   17  C   UNK N   1      25.986   8.989   4.324  0.00  0.00     0.241 C 
HETATM   18  C   UNK N   1      20.908   9.206   2.510  0.00  0.00     0.241 C 
HETATM   19  C   UNK N   1      29.140  11.825   4.442  0.00  0.00     0.180 C 
HETATM   20  C   UNK N   1      29.223  10.317   4.539  0.00  0.00     0.241 C 
HETATM   21  C   UNK N   1      20.843  11.187   0.987  0.00  0.00     0.186 C 
HETATM   22  C   UNK N   1      26.347  14.365   4.331  0.00  0.00     0.186 C 
HETATM   23  C   UNK N   1      22.346  10.995   0.685  0.00  0.00     0.120 C 
HETATM   24  C   UNK N   1      27.325  13.260   3.940  0.00  0.00     0.242 C 
HETATM   25  C   UNK N   1      24.879  14.125   3.834  0.00  0.00     0.120 C 
HETATM   26  H   UNK N   1      25.264  10.312   5.749  0.00  0.00     0.163 HD
HETATM   27  H   UNK N   1      22.662   7.556   3.874  0.00  0.00     0.163 HD
HETATM   28  H   UNK N   1      28.445   8.491   4.018  0.00  0.00     0.163 HD
HETATM   29  H   UNK N   1      20.232  11.046   3.065  0.00  0.00     0.163 HD
HETATM   30  H   UNK N   1      27.667  12.536   5.863  0.00  0.00     0.163 HD
ENDROOT
BRANCH  22  31
HETATM   31  N   UNK N   1      26.769  15.689   3.878  0.00  0.00    -0.345 N 
HETATM   32  C   UNK N   1      27.299  16.633   4.711  0.00  0.00     0.251 C 
HETATM   33  O   UNK N   1      27.023  16.659   5.901  0.00  0.00    -0.271 OA
HETATM   34  H   UNK N   1      26.914  15.792   2.866  0.00  0.00     0.163 HD
BRANCH  32  35
HETATM   35  C   UNK N   1      28.345  17.571   4.233  0.00  0.00     0.313 C 
BRANCH  35  36
HETATM   36  N   UNK N   1      27.850  18.869   3.737  0.00  0.00     0.092 N 
HETATM   37  H   UNK N   1      26.941  18.789   3.233  0.00  0.00     0.313 HD
HETATM   38  H   UNK N   1      28.561  19.401   3.190  0.00  0.00     0.313 HD
ENDBRANCH  35  36
BRANCH  35  39
HETATM   39  C   UNK N   1      29.152  16.822   3.123  0.00  0.00     0.083 C 
BRANCH  39  40
HETATM   40  C   UNK N   1      30.443  16.495   3.744  0.00  0.00    -0.055 A 
HETATM   41  C   UNK N   1      30.424  16.412   5.130  0.00  0.00     0.019 A 
HETATM   42  C   UNK N   1      31.541  16.756   5.849  0.00  0.00    -0.025 A 
HETATM   43  C   UNK N   1      32.718  17.155   5.179  0.00  0.00    -0.026 A 
HETATM   44  C   UNK N   1      31.451  16.826   7.234  0.00  0.00     0.012 A 
HETATM   45  C   UNK N   1      32.774  17.130   3.780  0.00  0.00     0.013 A 
HETATM   46  C   UNK N   1      33.799  17.629   5.920  0.00  0.00     0.012 A 
HETATM   47  C   UNK N   1      31.618  16.829   3.056  0.00  0.00     0.008 A 
HETATM   48  C   UNK N   1      33.698  17.719   7.314  0.00  0.00     0.001 A 
HETATM   49  C   UNK N   1      32.529  17.312   7.968  0.00  0.00     0.001 A 
ENDBRANCH  39  40
ENDBRANCH  35  39
ENDBRANCH  32  35
ENDBRANCH  22  31
BRANCH  19  50
HETATM   50  C   UNK N   1      30.332  12.625   4.949  0.00  0.00     0.073 C 
BRANCH  50  51
HETATM   51  C   UNK N   1      31.352  12.977   3.911  0.00  0.00    -0.056 A 
HETATM   52  C   UNK N   1      32.596  13.450   4.337  0.00  0.00     0.010 A 
HETATM   53  C   UNK N   1      33.621  13.658   3.413  0.00  0.00     0.037 A 
HETATM   54  C   UNK N   1      33.410  13.378   2.059  0.00  0.00     0.065 A 
HETATM   55  C   UNK N   1      32.162  12.932   1.624  0.00  0.00     0.037 A 
HETATM   56  C   UNK N   1      31.137  12.733   2.546  0.00  0.00     0.010 A 
BRANCH  54  57
HETATM   57  O   UNK N   1      34.412  13.522   1.180  0.00  0.00    -0.361 OA
HETATM   58  H   UNK N   1      35.341  13.509   1.301  0.00  0.00     0.217 HD
ENDBRANCH  54  57
ENDBRANCH  50  51
ENDBRANCH  19  50
BRANCH  21  59
HETATM   59  C   UNK N   1      20.337  12.639   1.058  0.00  0.00     0.242 C 
HETATM   60  O   UNK N   1      20.133  13.255   0.022  0.00  0.00    -0.271 OA
HETATM   61  N   UNK N   1      20.199  13.284   2.251  0.00  0.00    -0.344 N 
HETATM   62  H   UNK N   1      20.359  12.768   3.128  0.00  0.00     0.163 HD
BRANCH  61  63
HETATM   63  C   UNK N   1      20.034  14.738   2.331  0.00  0.00     0.204 C 
BRANCH  63  64
HETATM   64  C   UNK N   1      20.681  15.436   3.541  0.00  0.00     0.146 C 
HETATM   65  C   UNK N   1      21.317  14.434   4.485  0.00  0.00     0.042 C 
BRANCH  64  66
HETATM   66  O   UNK N   1      21.622  16.390   3.150  0.00  0.00    -0.393 OA
HETATM   67  H   UNK N   1      22.258  16.824   2.560  0.00  0.00     0.210 HD
ENDBRANCH  64  66
ENDBRANCH  63  64
BRANCH  63  68
HETATM   68  C   UNK N   1      19.820  15.528   1.054  0.00  0.00     0.240 C 
HETATM   69  O   UNK N   1      20.757  16.105   0.531  0.00  0.00    -0.271 OA
HETATM   70  N   UNK N   1      18.601  15.560   0.454  0.00  0.00    -0.368 N 
HETATM   71  H   UNK N   1      17.793  15.067   0.860  0.00  0.00     0.159 HD
HETATM   72  H   UNK N   1      18.467  16.071  -0.431  0.00  0.00     0.159 HD
ENDBRANCH  63  68
ENDBRANCH  61  63
ENDBRANCH  21  59
BRANCH  15  73
HETATM   73  C   UNK N   1      26.540  10.450   2.280  0.00  0.00     0.075 C 
BRANCH  73  74
HETATM   74  C   UNK N   1      27.415   9.653   1.312  0.00  0.00    -0.028 A 
HETATM   75  C   UNK N   1      28.395  10.076   0.418  0.00  0.00    -0.002 A 
HETATM   76  C   UNK N   1      28.523   8.803  -0.581  0.00  0.00     0.042 A 
HETATM   77  C   UNK N   1      29.212  11.516   0.067  0.00  0.00     0.014 A 
HETATM   78  N   UNK N   1      27.738   7.847  -0.136  0.00  0.00    -0.365 N 
HETATM   79  C   UNK N   1      29.410   8.850  -2.003  0.00  0.00     0.030 A 
HETATM   80  C   UNK N   1      27.107   8.307   0.978  0.00  0.00     0.096 A 
HETATM   81  H   UNK N   1      27.585   6.938  -0.603  0.00  0.00     0.165 HD
HETATM   82  C   UNK N   1      30.211  10.282  -2.413  0.00  0.00     0.002 A 
HETATM   83  C   UNK N   1      30.121  11.619  -1.367  0.00  0.00     0.001 A 
ENDBRANCH  73  74
ENDBRANCH  15  73
BRANCH  14  84
HETATM   84  C   UNK N   1      19.853   7.551   4.120  0.00  0.00     0.009 C 
HETATM   85  C   UNK N   1      19.086   7.745   5.414  0.00  0.00     0.012 C 
HETATM   86  C   UNK N   1      20.586   6.221   4.208  0.00  0.00     0.012 C 
ENDBRANCH  14  84
BRANCH  13  87
HETATM   87  C   UNK N   1      24.275   8.171   7.310  0.00  0.00     0.035 C 
BRANCH  87  88
HETATM   88  C   UNK N   1      23.726   6.782   7.588  0.00  0.00     0.004 C 
BRANCH  88  89
HETATM   89  C   UNK N   1      24.722   5.926   8.372  0.00  0.00     0.030 C 
BRANCH  89  90
HETATM   90  C   UNK N   1      26.103   5.866   7.715  0.00  0.00     0.267 C 
BRANCH  90  91
HETATM   91  N   UNK N   1      27.167   6.252   8.633  0.00  0.00     0.078 N 
HETATM   92  H   UNK N   1      26.757   6.374   9.584  0.00  0.00     0.312 HD
HETATM   93  H   UNK N   1      27.603   7.151   8.327  0.00  0.00     0.312 HD
ENDBRANCH  90  91
ENDBRANCH  89  90
ENDBRANCH  88  89
ENDBRANCH  87  88
ENDBRANCH  13  87
TORSDOF 21
ENDMDL
MODEL 4
REMARK VINA RESULT:      -6.4      3.989     10.701
REMARK  21 active torsions:
REMARK  status: ('A' for Active; 'I' for Inactive)
REMARK    1  A    between atoms: O_9  and  C_58 
REMARK    2  A    between atoms: O_12  and  C_68 
REMARK       I    between atoms: N_19  and  C_50 
REMARK    3  A    between atoms: N_19  and  C_54 
REMARK    4  A    between atoms: N_20  and  C_46 
REMARK       I    between atoms: N_20  and  C_61 
REMARK    5  A    between atoms: N_21  and  C_44 
REMARK    6  A    between atoms: N_22  and  C_57 
REMARK       I    between atoms: N_23  and  C_63 
REMARK    7  A    between atoms: C_24  and  C_26 
REMARK    8  A    between atoms: C_25  and  C_27 
REMARK    9  A    between atoms: C_26  and  C_29 
REMARK   10  A    between atoms: C_28  and  C_30 
REMARK   11  A    between atoms: C_29  and  C_34 
REMARK   12  A    between atoms: C_30  and  C_33 
REMARK   13  A    between atoms: C_34  and  C_44 
REMARK   14  A    between atoms: C_36  and  C_42 
REMARK   15  A    between atoms: C_41  and  C_50 
REMARK   16  A    between atoms: C_42  and  C_51 
REMARK   17  A    between atoms: C_54  and  C_58 
REMARK   18  A    between atoms: C_54  and  C_63 
REMARK   19  A    between atoms: C_57  and  C_61 
REMARK   20  A    between atoms: C_57  and  C_62 
REMARK   21  A    between atoms: C_62  and  C_64 
ROOT
HETATM    1  S   UNK N   1      28.320  11.620   3.876  0.00  0.00    -0.095 SA
HETATM    2  S   UNK N   1      29.006   9.672   4.493  0.00  0.00    -0.095 SA
HETATM    3  O   UNK N   1      33.681  10.159  -0.163  0.00  0.00    -0.271 OA
HETATM    4  O   UNK N   1      33.819  14.338   1.949  0.00  0.00    -0.271 OA
HETATM    5  O   UNK N   1      29.640  12.574  -0.411  0.00  0.00    -0.271 OA
HETATM    6  O   UNK N   1      36.618  14.433   5.963  0.00  0.00    -0.271 OA
HETATM    7  O   UNK N   1      32.911  11.552   6.828  0.00  0.00    -0.271 OA
HETATM    8  N   UNK N   1      34.579  12.227   1.904  0.00  0.00    -0.346 N 
HETATM    9  N   UNK N   1      32.466  11.982  -0.676  0.00  0.00    -0.346 N 
HETATM   10  N   UNK N   1      34.828  14.168   4.670  0.00  0.00    -0.346 N 
HETATM   11  N   UNK N   1      29.526  10.389   0.112  0.00  0.00    -0.345 N 
HETATM   12  N   UNK N   1      34.940  11.335   5.976  0.00  0.00    -0.346 N 
HETATM   13  C   UNK N   1      34.639  12.226   0.466  0.00  0.00     0.176 C 
HETATM   14  C   UNK N   1      31.392  11.222  -1.289  0.00  0.00     0.180 C 
HETATM   15  C   UNK N   1      33.894  13.255   4.044  0.00  0.00     0.181 C 
HETATM   16  C   UNK N   1      33.568  11.378  -0.150  0.00  0.00     0.241 C 
HETATM   17  C   UNK N   1      34.119  13.322   2.561  0.00  0.00     0.241 C 
HETATM   18  C   UNK N   1      30.104  11.447  -0.519  0.00  0.00     0.241 C 
HETATM   19  C   UNK N   1      35.257  12.605   6.586  0.00  0.00     0.180 C 
HETATM   20  C   UNK N   1      35.625  13.771   5.695  0.00  0.00     0.241 C 
HETATM   21  C   UNK N   1      28.434  10.510   1.086  0.00  0.00     0.186 C 
HETATM   22  C   UNK N   1      33.420   9.337   6.119  0.00  0.00     0.186 C 
HETATM   23  C   UNK N   1      28.917  11.509   2.161  0.00  0.00     0.120 C 
HETATM   24  C   UNK N   1      33.727  10.825   6.274  0.00  0.00     0.242 C 
HETATM   25  C   UNK N   1      32.333   9.018   5.035  0.00  0.00     0.120 C 
HETATM   26  H   UNK N   1      34.794  11.365   2.430  0.00  0.00     0.163 HD
HETATM   27  H   UNK N   1      32.387  13.010  -0.633  0.00  0.00     0.163 HD
HETATM   28  H   UNK N   1      35.103  15.021   4.154  0.00  0.00     0.163 HD
HETATM   29  H   UNK N   1      29.964   9.470  -0.050  0.00  0.00     0.163 HD
HETATM   30  H   UNK N   1      35.670  10.760   5.528  0.00  0.00     0.163 HD
ENDROOT
BRANCH  22  31
HETATM   31  N   UNK N   1      33.013   8.703   7.372  0.00  0.00    -0.345 N 
HETATM   32  C   UNK N   1      33.900   8.205   8.284  0.00  0.00     0.251 C 
HETATM   33  O   UNK N   1      35.004   7.807   7.945  0.00  0.00    -0.271 OA
HETATM   34  H   UNK N   1      32.050   8.890   7.677  0.00  0.00     0.163 HD
BRANCH  32  35
HETATM   35  C   UNK N   1      33.613   8.266   9.738  0.00  0.00     0.313 C 
BRANCH  35  36
HETATM   36  N   UNK N   1      32.377   7.586  10.167  0.00  0.00     0.092 N 
HETATM   37  H   UNK N   1      32.310   6.608   9.811  0.00  0.00     0.313 HD
HETATM   38  H   UNK N   1      31.513   8.137   9.976  0.00  0.00     0.313 HD
ENDBRANCH  35  36
BRANCH  35  39
HETATM   39  C   UNK N   1      33.580   9.780  10.130  0.00  0.00     0.083 C 
BRANCH  39  40
HETATM   40  C   UNK N   1      34.615   9.930  11.161  0.00  0.00    -0.055 A 
HETATM   41  C   UNK N   1      34.185  10.515  12.344  0.00  0.00     0.019 A 
HETATM   42  C   UNK N   1      35.054  11.278  13.083  0.00  0.00    -0.025 A 
HETATM   43  C   UNK N   1      36.392  11.435  12.661  0.00  0.00    -0.026 A 
HETATM   44  C   UNK N   1      34.562  11.988  14.172  0.00  0.00     0.012 A 
HETATM   45  C   UNK N   1      36.857  10.752  11.530  0.00  0.00     0.013 A 
HETATM   46  C   UNK N   1      37.225  12.317  13.346  0.00  0.00     0.012 A 
HETATM   47  C   UNK N   1      35.954  10.021  10.756  0.00  0.00     0.008 A 
HETATM   48  C   UNK N   1      36.722  13.048  14.429  0.00  0.00     0.001 A 
HETATM   49  C   UNK N   1      35.396  12.878  14.844  0.00  0.00     0.001 A 
ENDBRANCH  39  40
ENDBRANCH  35  39
ENDBRANCH  32  35
ENDBRANCH  22  31
BRANCH  19  50
HETATM   50  C   UNK N   1      36.130  12.354   7.807  0.00  0.00     0.073 C 
BRANCH  50  51
HETATM   51  C   UNK N   1      35.939  13.316   8.937  0.00  0.00    -0.056 A 
HETATM   52  C   UNK N   1      34.725  13.295   9.629  0.00  0.00     0.010 A 
HETATM   53  C   UNK N   1      34.556  14.076  10.774  0.00  0.00     0.037 A 
HETATM   54  C   UNK N   1      35.608  14.871  11.239  0.00  0.00     0.065 A 
HETATM   55  C   UNK N   1      36.813  14.919  10.537  0.00  0.00     0.037 A 
HETATM   56  C   UNK N   1      36.977  14.146   9.389  0.00  0.00     0.010 A 
BRANCH  54  57
HETATM   57  O   UNK N   1      35.466  15.576  12.370  0.00  0.00    -0.361 OA
HETATM   58  H   UNK N   1      36.098  16.018  12.902  0.00  0.00     0.217 HD
ENDBRANCH  54  57
ENDBRANCH  50  51
ENDBRANCH  19  50
BRANCH  21  59
HETATM   59  C   UNK N   1      28.018   9.114   1.583  0.00  0.00     0.242 C 
HETATM   60  O   UNK N   1      28.824   8.196   1.535  0.00  0.00    -0.271 OA
HETATM   61  N   UNK N   1      26.742   8.856   1.988  0.00  0.00    -0.344 N 
HETATM   62  H   UNK N   1      26.062   9.628   2.040  0.00  0.00     0.163 HD
BRANCH  61  63
HETATM   63  C   UNK N   1      26.244   7.489   2.154  0.00  0.00     0.204 C 
BRANCH  63  64
HETATM   64  C   UNK N   1      25.871   6.732   0.866  0.00  0.00     0.146 C 
HETATM   65  C   UNK N   1      25.239   7.658  -0.156  0.00  0.00     0.042 C 
BRANCH  64  66
HETATM   66  O   UNK N   1      26.972   6.081   0.308  0.00  0.00    -0.393 OA
HETATM   67  H   UNK N   1      27.902   5.952   0.065  0.00  0.00     0.210 HD
ENDBRANCH  64  66
ENDBRANCH  63  64
BRANCH  63  68
HETATM   68  C   UNK N   1      26.659   6.695   3.379  0.00  0.00     0.240 C 
HETATM   69  O   UNK N   1      25.982   6.742   4.392  0.00  0.00    -0.271 OA
HETATM   70  N   UNK N   1      27.752   5.889   3.346  0.00  0.00    -0.368 N 
HETATM   71  H   UNK N   1      28.334   5.813   2.499  0.00  0.00     0.159 HD
HETATM   72  H   UNK N   1      28.011   5.326   4.169  0.00  0.00     0.159 HD
ENDBRANCH  63  68
ENDBRANCH  61  63
ENDBRANCH  21  59
BRANCH  15  73
HETATM   73  C   UNK N   1      32.376  13.300   4.453  0.00  0.00     0.075 C 
BRANCH  73  74
HETATM   74  C   UNK N   1      32.083  14.739   4.881  0.00  0.00    -0.028 A 
HETATM   75  C   UNK N   1      32.003  15.308   6.149  0.00  0.00    -0.002 A 
HETATM   76  C   UNK N   1      31.195  16.686   5.857  0.00  0.00     0.042 A 
HETATM   77  C   UNK N   1      32.330  14.837   7.741  0.00  0.00     0.014 A 
HETATM   78  N   UNK N   1      30.999  16.785   4.561  0.00  0.00    -0.365 N 
HETATM   79  C   UNK N   1      30.613  17.674   7.081  0.00  0.00     0.030 A 
HETATM   80  C   UNK N   1      31.530  15.680   3.971  0.00  0.00     0.096 A 
HETATM   81  H   UNK N   1      30.468  17.539   4.096  0.00  0.00     0.165 HD
HETATM   82  C   UNK N   1      30.884  17.221   8.688  0.00  0.00     0.002 A 
HETATM   83  C   UNK N   1      31.756  15.801   9.020  0.00  0.00     0.001 A 
ENDBRANCH  73  74
ENDBRANCH  15  73
BRANCH  14  84
HETATM   84  C   UNK N   1      31.267  11.557  -2.774  0.00  0.00     0.009 C 
HETATM   85  C   UNK N   1      30.093  10.799  -3.365  0.00  0.00     0.012 C 
HETATM   86  C   UNK N   1      32.520  11.134  -3.525  0.00  0.00     0.012 C 
ENDBRANCH  14  84
BRANCH  13  87
HETATM   87  C   UNK N   1      36.023  11.902  -0.060  0.00  0.00     0.035 C 
BRANCH  87  88
HETATM   88  C   UNK N   1      36.433  12.950  -1.080  0.00  0.00     0.004 C 
BRANCH  88  89
HETATM   89  C   UNK N   1      36.146  12.491  -2.511  0.00  0.00     0.030 C 
BRANCH  89  90
HETATM   90  C   UNK N   1      35.391  13.538  -3.333  0.00  0.00     0.267 C 
BRANCH  90  91
HETATM   91  N   UNK N   1      34.338  14.188  -2.562  0.00  0.00     0.078 N 
HETATM   92  H   UNK N   1      34.388  15.215  -2.730  0.00  0.00     0.312 HD
HETATM   93  H   UNK N   1      34.463  13.997  -1.542  0.00  0.00     0.312 HD
ENDBRANCH  90  91
ENDBRANCH  89  90
ENDBRANCH  88  89
ENDBRANCH  87  88
ENDBRANCH  13  87
TORSDOF 21
ENDMDL
MODEL 5
REMARK VINA RESULT:      -6.3      1.743      2.305
REMARK  21 active torsions:
REMARK  status: ('A' for Active; 'I' for Inactive)
REMARK    1  A    between atoms: O_9  and  C_58 
REMARK    2  A    between atoms: O_12  and  C_68 
REMARK       I    between atoms: N_19  and  C_50 
REMARK    3  A    between atoms: N_19  and  C_54 
REMARK    4  A    between atoms: N_20  and  C_46 
REMARK       I    between atoms: N_20  and  C_61 
REMARK    5  A    between atoms: N_21  and  C_44 
REMARK    6  A    between atoms: N_22  and  C_57 
REMARK       I    between atoms: N_23  and  C_63 
REMARK    7  A    between atoms: C_24  and  C_26 
REMARK    8  A    between atoms: C_25  and  C_27 
REMARK    9  A    between atoms: C_26  and  C_29 
REMARK   10  A    between atoms: C_28  and  C_30 
REMARK   11  A    between atoms: C_29  and  C_34 
REMARK   12  A    between atoms: C_30  and  C_33 
REMARK   13  A    between atoms: C_34  and  C_44 
REMARK   14  A    between atoms: C_36  and  C_42 
REMARK   15  A    between atoms: C_41  and  C_50 
REMARK   16  A    between atoms: C_42  and  C_51 
REMARK   17  A    between atoms: C_54  and  C_58 
REMARK   18  A    between atoms: C_54  and  C_63 
REMARK   19  A    between atoms: C_57  and  C_61 
REMARK   20  A    between atoms: C_57  and  C_62 
REMARK   21  A    between atoms: C_62  and  C_64 
ROOT
HETATM    1  S   UNK N   1      34.757  10.112   9.597  0.00  0.00    -0.095 SA
HETATM    2  S   UNK N   1      34.713  12.187  10.178  0.00  0.00    -0.095 SA
HETATM    3  O   UNK N   1      38.984  13.355   5.262  0.00  0.00    -0.271 OA
HETATM    4  O   UNK N   1      35.765  10.598   3.266  0.00  0.00    -0.271 OA
HETATM    5  O   UNK N   1      38.578   9.108   7.268  0.00  0.00    -0.271 OA
HETATM    6  O   UNK N   1      31.861  13.020   1.579  0.00  0.00    -0.271 OA
HETATM    7  O   UNK N   1      31.896  13.425   6.336  0.00  0.00    -0.271 OA
HETATM    8  N   UNK N   1      36.403  12.692   3.761  0.00  0.00    -0.346 N 
HETATM    9  N   UNK N   1      38.968  11.106   5.202  0.00  0.00    -0.346 N 
HETATM   10  N   UNK N   1      33.195  11.927   2.983  0.00  0.00    -0.346 N 
HETATM   11  N   UNK N   1      38.701  10.902   8.622  0.00  0.00    -0.345 N 
HETATM   12  N   UNK N   1      32.752  14.541   4.629  0.00  0.00    -0.346 N 
HETATM   13  C   UNK N   1      37.780  12.396   3.468  0.00  0.00     0.176 C 
HETATM   14  C   UNK N   1      39.785  10.965   6.394  0.00  0.00     0.180 C 
HETATM   15  C   UNK N   1      34.066  11.983   4.139  0.00  0.00     0.181 C 
HETATM   16  C   UNK N   1      38.625  12.326   4.705  0.00  0.00     0.241 C 
HETATM   17  C   UNK N   1      35.465  11.715   3.665  0.00  0.00     0.241 C 
HETATM   18  C   UNK N   1      38.997  10.240   7.469  0.00  0.00     0.241 C 
HETATM   19  C   UNK N   1      31.801  13.851   3.790  0.00  0.00     0.180 C 
HETATM   20  C   UNK N   1      32.317  12.926   2.709  0.00  0.00     0.241 C 
HETATM   21  C   UNK N   1      37.746  10.415   9.625  0.00  0.00     0.186 C 
HETATM   22  C   UNK N   1      33.202  15.308   6.982  0.00  0.00     0.186 C 
HETATM   23  C   UNK N   1      36.425  10.141   8.872  0.00  0.00     0.120 C 
HETATM   24  C   UNK N   1      32.625  14.334   5.957  0.00  0.00     0.242 C 
HETATM   25  C   UNK N   1      34.343  14.701   7.868  0.00  0.00     0.120 C 
HETATM   26  H   UNK N   1      36.142  13.619   4.134  0.00  0.00     0.163 HD
HETATM   27  H   UNK N   1      38.635  10.255   4.725  0.00  0.00     0.163 HD
HETATM   28  H   UNK N   1      33.443  11.285   2.211  0.00  0.00     0.163 HD
HETATM   29  H   UNK N   1      39.114  11.840   8.725  0.00  0.00     0.163 HD
HETATM   30  H   UNK N   1      33.337  15.305   4.258  0.00  0.00     0.163 HD
ENDROOT
BRANCH  22  31
HETATM   31  N   UNK N   1      32.187  15.871   7.870  0.00  0.00    -0.345 N 
HETATM   32  C   UNK N   1      31.956  17.212   7.992  0.00  0.00     0.251 C 
HETATM   33  O   UNK N   1      32.838  18.030   7.781  0.00  0.00    -0.271 OA
HETATM   34  H   UNK N   1      31.463  15.218   8.195  0.00  0.00     0.163 HD
BRANCH  32  35
HETATM   35  C   UNK N   1      30.589  17.731   8.238  0.00  0.00     0.313 C 
BRANCH  35  36
HETATM   36  N   UNK N   1      30.291  18.087   9.638  0.00  0.00     0.092 N 
HETATM   37  H   UNK N   1      29.363  18.549   9.749  0.00  0.00     0.313 HD
HETATM   38  H   UNK N   1      31.058  18.622  10.101  0.00  0.00     0.313 HD
ENDBRANCH  35  36
BRANCH  35  39
HETATM   39  C   UNK N   1      29.591  16.646   7.715  0.00  0.00     0.083 C 
BRANCH  39  40
HETATM   40  C   UNK N   1      28.772  17.334   6.708  0.00  0.00    -0.055 A 
HETATM   41  C   UNK N   1      27.414  17.050   6.763  0.00  0.00     0.019 A 
HETATM   42  C   UNK N   1      26.669  17.059   5.610  0.00  0.00    -0.025 A 
HETATM   43  C   UNK N   1      27.275  17.392   4.378  0.00  0.00    -0.026 A 
HETATM   44  C   UNK N   1      25.354  16.613   5.659  0.00  0.00     0.012 A 
HETATM   45  C   UNK N   1      28.618  17.789   4.340  0.00  0.00     0.013 A 
HETATM   46  C   UNK N   1      26.542  17.267   3.200  0.00  0.00     0.012 A 
HETATM   47  C   UNK N   1      29.380  17.727   5.508  0.00  0.00     0.008 A 
HETATM   48  C   UNK N   1      25.224  16.796   3.250  0.00  0.00     0.001 A 
HETATM   49  C   UNK N   1      24.631  16.477   4.477  0.00  0.00     0.001 A 
ENDBRANCH  39  40
ENDBRANCH  35  39
ENDBRANCH  32  35
ENDBRANCH  22  31
BRANCH  19  50
HETATM   50  C   UNK N   1      30.692  14.822   3.409  0.00  0.00     0.073 C 
BRANCH  50  51
HETATM   51  C   UNK N   1      29.304  14.267   3.484  0.00  0.00    -0.056 A 
HETATM   52  C   UNK N   1      28.755  14.021   4.745  0.00  0.00     0.010 A 
HETATM   53  C   UNK N   1      27.418  13.637   4.865  0.00  0.00     0.037 A 
HETATM   54  C   UNK N   1      26.621  13.511   3.723  0.00  0.00     0.065 A 
HETATM   55  C   UNK N   1      27.172  13.728   2.459  0.00  0.00     0.037 A 
HETATM   56  C   UNK N   1      28.508  14.103   2.340  0.00  0.00     0.010 A 
BRANCH  54  57
HETATM   57  O   UNK N   1      25.323  13.198   3.841  0.00  0.00    -0.361 OA
HETATM   58  H   UNK N   1      24.872  12.388   3.711  0.00  0.00     0.217 HD
ENDBRANCH  54  57
ENDBRANCH  50  51
ENDBRANCH  19  50
BRANCH  21  59
HETATM   59  C   UNK N   1      37.673  11.406  10.801  0.00  0.00     0.242 C 
HETATM   60  O   UNK N   1      38.195  12.506  10.692  0.00  0.00    -0.271 OA
HETATM   61  N   UNK N   1      37.120  11.049  11.995  0.00  0.00    -0.344 N 
HETATM   62  H   UNK N   1      36.669  10.128  12.089  0.00  0.00     0.163 HD
BRANCH  61  63
HETATM   63  C   UNK N   1      37.323  11.842  13.210  0.00  0.00     0.204 C 
BRANCH  63  64
HETATM   64  C   UNK N   1      36.451  13.101  13.362  0.00  0.00     0.146 C 
HETATM   65  C   UNK N   1      36.323  13.515  14.816  0.00  0.00     0.042 C 
BRANCH  64  66
HETATM   66  O   UNK N   1      36.937  14.166  12.601  0.00  0.00    -0.393 OA
HETATM   67  H   UNK N   1      37.361  14.600  11.845  0.00  0.00     0.210 HD
ENDBRANCH  64  66
ENDBRANCH  63  64
BRANCH  63  68
HETATM   68  C   UNK N   1      37.852  11.159  14.457  0.00  0.00     0.240 C 
HETATM   69  O   UNK N   1      39.046  11.183  14.704  0.00  0.00    -0.271 OA
HETATM   70  N   UNK N   1      37.003  10.563  15.335  0.00  0.00    -0.368 N 
HETATM   71  H   UNK N   1      35.988  10.542  15.165  0.00  0.00     0.159 HD
HETATM   72  H   UNK N   1      37.364  10.129  16.198  0.00  0.00     0.159 HD
ENDBRANCH  63  68
ENDBRANCH  61  63
ENDBRANCH  21  59
BRANCH  15  73
HETATM   73  C   UNK N   1      33.678  11.188   5.439  0.00  0.00     0.075 C 
BRANCH  73  74
HETATM   74  C   UNK N   1      32.909   9.950   4.980  0.00  0.00    -0.028 A 
HETATM   75  C   UNK N   1      31.549   9.763   4.744  0.00  0.00    -0.002 A 
HETATM   76  C   UNK N   1      31.413   8.146   4.776  0.00  0.00     0.042 A 
HETATM   77  C   UNK N   1      30.163  10.731   4.659  0.00  0.00     0.014 A 
HETATM   78  N   UNK N   1      32.613   7.632   4.925  0.00  0.00    -0.365 N 
HETATM   79  C   UNK N   1      29.932   7.359   4.774  0.00  0.00     0.030 A 
HETATM   80  C   UNK N   1      33.501   8.659   5.017  0.00  0.00     0.096 A 
HETATM   81  H   UNK N   1      32.820   6.625   5.026  0.00  0.00     0.165 HD
HETATM   82  C   UNK N   1      28.520   8.289   4.728  0.00  0.00     0.002 A 
HETATM   83  C   UNK N   1      28.635   9.982   4.660  0.00  0.00     0.001 A 
ENDBRANCH  73  74
ENDBRANCH  15  73
BRANCH  14  84
HETATM   84  C   UNK N   1      41.114  10.287   6.068  0.00  0.00     0.009 C 
HETATM   85  C   UNK N   1      42.177  10.763   7.039  0.00  0.00     0.012 C 
HETATM   86  C   UNK N   1      41.569  10.652   4.663  0.00  0.00     0.012 C 
ENDBRANCH  14  84
BRANCH  13  87
HETATM   87  C   UNK N   1      38.362  13.310   2.408  0.00  0.00     0.035 C 
BRANCH  87  88
HETATM   88  C   UNK N   1      37.865  12.875   1.040  0.00  0.00     0.004 C 
BRANCH  88  89
HETATM   89  C   UNK N   1      36.777  13.810   0.508  0.00  0.00     0.030 C 
BRANCH  89  90
HETATM   90  C   UNK N   1      35.438  13.102   0.287  0.00  0.00     0.267 C 
BRANCH  90  91
HETATM   91  N   UNK N   1      34.747  13.592  -0.899  0.00  0.00     0.078 N 
HETATM   92  H   UNK N   1      33.849  13.070  -0.999  0.00  0.00     0.312 HD
HETATM   93  H   UNK N   1      35.333  13.439  -1.751  0.00  0.00     0.312 HD
ENDBRANCH  90  91
ENDBRANCH  89  90
ENDBRANCH  88  89
ENDBRANCH  87  88
ENDBRANCH  13  87
TORSDOF 21
ENDMDL
MODEL 6
REMARK VINA RESULT:      -6.3      6.060     14.146
REMARK  21 active torsions:
REMARK  status: ('A' for Active; 'I' for Inactive)
REMARK    1  A    between atoms: O_9  and  C_58 
REMARK    2  A    between atoms: O_12  and  C_68 
REMARK       I    between atoms: N_19  and  C_50 
REMARK    3  A    between atoms: N_19  and  C_54 
REMARK    4  A    between atoms: N_20  and  C_46 
REMARK       I    between atoms: N_20  and  C_61 
REMARK    5  A    between atoms: N_21  and  C_44 
REMARK    6  A    between atoms: N_22  and  C_57 
REMARK       I    between atoms: N_23  and  C_63 
REMARK    7  A    between atoms: C_24  and  C_26 
REMARK    8  A    between atoms: C_25  and  C_27 
REMARK    9  A    between atoms: C_26  and  C_29 
REMARK   10  A    between atoms: C_28  and  C_30 
REMARK   11  A    between atoms: C_29  and  C_34 
REMARK   12  A    between atoms: C_30  and  C_33 
REMARK   13  A    between atoms: C_34  and  C_44 
REMARK   14  A    between atoms: C_36  and  C_42 
REMARK   15  A    between atoms: C_41  and  C_50 
REMARK   16  A    between atoms: C_42  and  C_51 
REMARK   17  A    between atoms: C_54  and  C_58 
REMARK   18  A    between atoms: C_54  and  C_63 
REMARK   19  A    between atoms: C_57  and  C_61 
REMARK   20  A    between atoms: C_57  and  C_62 
REMARK   21  A    between atoms: C_62  and  C_64 
ROOT
HETATM    1  S   UNK N   1      23.758   9.948   5.847  0.00  0.00    -0.095 SA
HETATM    2  S   UNK N   1      25.349   9.896   4.393  0.00  0.00    -0.095 SA
HETATM    3  O   UNK N   1      21.465  13.507   0.437  0.00  0.00    -0.271 OA
HETATM    4  O   UNK N   1      21.084  15.656   4.583  0.00  0.00    -0.271 OA
HETATM    5  O   UNK N   1      19.709  10.784   3.863  0.00  0.00    -0.271 OA
HETATM    6  O   UNK N   1      24.640  18.903   5.459  0.00  0.00    -0.271 OA
HETATM    7  O   UNK N   1      26.622  14.563   5.304  0.00  0.00    -0.271 OA
HETATM    8  N   UNK N   1      22.202  15.493   2.643  0.00  0.00    -0.346 N 
HETATM    9  N   UNK N   1      19.991  13.051   2.076  0.00  0.00    -0.346 N 
HETATM   10  N   UNK N   1      23.556  16.963   5.380  0.00  0.00    -0.346 N 
HETATM   11  N   UNK N   1      21.289   9.901   2.525  0.00  0.00    -0.345 N 
HETATM   12  N   UNK N   1      26.153  16.160   3.848  0.00  0.00    -0.346 N 
HETATM   13  C   UNK N   1      20.985  15.301   1.900  0.00  0.00     0.176 C 
HETATM   14  C   UNK N   1      19.793  11.675   1.657  0.00  0.00     0.180 C 
HETATM   15  C   UNK N   1      23.435  15.651   4.779  0.00  0.00     0.181 C 
HETATM   16  C   UNK N   1      20.831  13.892   1.412  0.00  0.00     0.241 C 
HETATM   17  C   UNK N   1      22.156  15.627   3.994  0.00  0.00     0.241 C 
HETATM   18  C   UNK N   1      20.239  10.736   2.761  0.00  0.00     0.241 C 
HETATM   19  C   UNK N   1      26.030  17.055   4.974  0.00  0.00     0.180 C 
HETATM   20  C   UNK N   1      24.689  17.699   5.252  0.00  0.00     0.241 C 
HETATM   21  C   UNK N   1      21.976   9.131   3.570  0.00  0.00     0.186 C 
HETATM   22  C   UNK N   1      27.214  14.018   3.064  0.00  0.00     0.186 C 
HETATM   23  C   UNK N   1      22.401  10.148   4.652  0.00  0.00     0.120 C 
HETATM   24  C   UNK N   1      26.589  14.914   4.131  0.00  0.00     0.242 C 
HETATM   25  C   UNK N   1      26.384  12.726   2.748  0.00  0.00     0.120 C 
HETATM   26  H   UNK N   1      23.115  15.433   2.165  0.00  0.00     0.163 HD
HETATM   27  H   UNK N   1      19.485  13.396   2.906  0.00  0.00     0.163 HD
HETATM   28  H   UNK N   1      22.690  17.463   5.648  0.00  0.00     0.163 HD
HETATM   29  H   UNK N   1      21.662   9.902   1.565  0.00  0.00     0.163 HD
HETATM   30  H   UNK N   1      26.125  16.512   2.879  0.00  0.00     0.163 HD
ENDROOT
BRANCH  22  31
HETATM   31  N   UNK N   1      28.581  13.614   3.385  0.00  0.00    -0.345 N 
HETATM   32  C   UNK N   1      29.616  13.693   2.497  0.00  0.00     0.251 C 
HETATM   33  O   UNK N   1      29.425  13.629   1.291  0.00  0.00    -0.271 OA
HETATM   34  H   UNK N   1      28.800  13.527   4.385  0.00  0.00     0.163 HD
BRANCH  32  35
HETATM   35  C   UNK N   1      30.991  14.009   2.954  0.00  0.00     0.313 C 
BRANCH  35  36
HETATM   36  N   UNK N   1      32.035  13.066   2.512  0.00  0.00     0.092 N 
HETATM   37  H   UNK N   1      32.322  12.400   3.262  0.00  0.00     0.313 HD
HETATM   38  H   UNK N   1      32.852  13.534   2.063  0.00  0.00     0.313 HD
ENDBRANCH  35  36
BRANCH  35  39
HETATM   39  C   UNK N   1      30.941  14.093   4.515  0.00  0.00     0.083 C 
BRANCH  39  40
HETATM   40  C   UNK N   1      32.103  14.908   4.891  0.00  0.00    -0.055 A 
HETATM   41  C   UNK N   1      32.655  14.609   6.129  0.00  0.00     0.019 A 
HETATM   42  C   UNK N   1      33.248  15.602   6.869  0.00  0.00    -0.025 A 
HETATM   43  C   UNK N   1      33.331  16.914   6.354  0.00  0.00    -0.026 A 
HETATM   44  C   UNK N   1      33.645  15.321   8.171  0.00  0.00     0.012 A 
HETATM   45  C   UNK N   1      32.877  17.191   5.059  0.00  0.00     0.013 A 
HETATM   46  C   UNK N   1      33.813  17.938   7.168  0.00  0.00     0.012 A 
HETATM   47  C   UNK N   1      32.229  16.189   4.334  0.00  0.00     0.008 A 
HETATM   48  C   UNK N   1      34.191  17.656   8.486  0.00  0.00     0.001 A 
HETATM   49  C   UNK N   1      34.113  16.349   8.983  0.00  0.00     0.001 A 
ENDBRANCH  39  40
ENDBRANCH  35  39
ENDBRANCH  32  35
ENDBRANCH  22  31
BRANCH  19  50
HETATM   50  C   UNK N   1      27.260  17.951   5.021  0.00  0.00     0.073 C 
BRANCH  50  51
HETATM   51  C   UNK N   1      28.084  17.839   6.266  0.00  0.00    -0.056 A 
HETATM   52  C   UNK N   1      29.080  16.861   6.317  0.00  0.00     0.010 A 
HETATM   53  C   UNK N   1      29.960  16.812   7.399  0.00  0.00     0.037 A 
HETATM   54  C   UNK N   1      29.857  17.754   8.428  0.00  0.00     0.065 A 
HETATM   55  C   UNK N   1      28.847  18.716   8.396  0.00  0.00     0.037 A 
HETATM   56  C   UNK N   1      27.963  18.758   7.320  0.00  0.00     0.010 A 
BRANCH  54  57
HETATM   57  O   UNK N   1      30.739  17.743   9.437  0.00  0.00    -0.361 OA
HETATM   58  H   UNK N   1      31.640  17.998   9.469  0.00  0.00     0.217 HD
ENDBRANCH  54  57
ENDBRANCH  50  51
ENDBRANCH  19  50
BRANCH  21  59
HETATM   59  C   UNK N   1      23.099   8.286   2.942  0.00  0.00     0.242 C 
HETATM   60  O   UNK N   1      23.687   7.465   3.631  0.00  0.00    -0.271 OA
HETATM   61  N   UNK N   1      23.515   8.497   1.662  0.00  0.00    -0.344 N 
HETATM   62  H   UNK N   1      23.016   9.180   1.073  0.00  0.00     0.163 HD
BRANCH  61  63
HETATM   63  C   UNK N   1      24.772   7.942   1.154  0.00  0.00     0.204 C 
BRANCH  63  64
HETATM   64  C   UNK N   1      24.657   6.718   0.227  0.00  0.00     0.146 C 
HETATM   65  C   UNK N   1      23.208   6.329  -0.001  0.00  0.00     0.042 C 
BRANCH  64  66
HETATM   66  O   UNK N   1      25.294   6.930  -0.997  0.00  0.00    -0.393 OA
HETATM   67  H   UNK N   1      25.549   6.742  -1.913  0.00  0.00     0.210 HD
ENDBRANCH  64  66
ENDBRANCH  63  64
BRANCH  63  68
HETATM   68  C   UNK N   1      25.982   8.848   1.029  0.00  0.00     0.240 C 
HETATM   69  O   UNK N   1      25.889   9.910   0.438  0.00  0.00    -0.271 OA
HETATM   70  N   UNK N   1      27.162   8.513   1.613  0.00  0.00    -0.368 N 
HETATM   71  H   UNK N   1      27.269   7.632   2.135  0.00  0.00     0.159 HD
HETATM   72  H   UNK N   1      27.973   9.147   1.554  0.00  0.00     0.159 HD
ENDBRANCH  63  68
ENDBRANCH  61  63
ENDBRANCH  21  59
BRANCH  15  73
HETATM   73  C   UNK N   1      23.654  14.371   5.667  0.00  0.00     0.075 C 
BRANCH  73  74
HETATM   74  C   UNK N   1      22.896  14.612   6.973  0.00  0.00    -0.028 A 
HETATM   75  C   UNK N   1      22.807  13.835   8.125  0.00  0.00    -0.002 A 
HETATM   76  C   UNK N   1      21.489  14.446   8.851  0.00  0.00     0.042 A 
HETATM   77  C   UNK N   1      23.545  12.442   8.739  0.00  0.00     0.014 A 
HETATM   78  N   UNK N   1      21.063  15.468   8.143  0.00  0.00    -0.365 N 
HETATM   79  C   UNK N   1      20.774  13.729  10.187  0.00  0.00     0.030 A 
HETATM   80  C   UNK N   1      21.880  15.601   7.063  0.00  0.00     0.096 A 
HETATM   81  H   UNK N   1      20.212  16.017   8.345  0.00  0.00     0.165 HD
HETATM   82  C   UNK N   1      21.457  12.313  10.811  0.00  0.00     0.002 A 
HETATM   83  C   UNK N   1      22.856  11.671  10.090  0.00  0.00     0.001 A 
ENDBRANCH  73  74
ENDBRANCH  15  73
BRANCH  14  84
HETATM   84  C   UNK N   1      18.347  11.441   1.221  0.00  0.00     0.009 C 
HETATM   85  C   UNK N   1      18.187  10.008   0.749  0.00  0.00     0.012 C 
HETATM   86  C   UNK N   1      17.983  12.357   0.063  0.00  0.00     0.012 C 
ENDBRANCH  14  84
BRANCH  13  87
HETATM   87  C   UNK N   1      20.804  16.330   0.801  0.00  0.00     0.035 C 
BRANCH  87  88
HETATM   88  C   UNK N   1      19.558  17.152   1.081  0.00  0.00     0.004 C 
BRANCH  88  89
HETATM   89  C   UNK N   1      19.731  18.040   2.315  0.00  0.00     0.030 C 
BRANCH  89  90
HETATM   90  C   UNK N   1      20.773  19.143   2.114  0.00  0.00     0.267 C 
BRANCH  90  91
HETATM   91  N   UNK N   1      20.313  20.172   1.190  0.00  0.00     0.078 N 
HETATM   92  H   UNK N   1      20.334  19.785   0.222  0.00  0.00     0.312 HD
HETATM   93  H   UNK N   1      20.935  21.011   1.241  0.00  0.00     0.312 HD
ENDBRANCH  90  91
ENDBRANCH  89  90
ENDBRANCH  88  89
ENDBRANCH  87  88
ENDBRANCH  13  87
TORSDOF 21
ENDMDL
MODEL 7
REMARK VINA RESULT:      -6.3      3.194      4.716
REMARK  21 active torsions:
REMARK  status: ('A' for Active; 'I' for Inactive)
REMARK    1  A    between atoms: O_9  and  C_58 
REMARK    2  A    between atoms: O_12  and  C_68 
REMARK       I    between atoms: N_19  and  C_50 
REMARK    3  A    between atoms: N_19  and  C_54 
REMARK    4  A    between atoms: N_20  and  C_46 
REMARK       I    between atoms: N_20  and  C_61 
REMARK    5  A    between atoms: N_21  and  C_44 
REMARK    6  A    between atoms: N_22  and  C_57 
REMARK       I    between atoms: N_23  and  C_63 
REMARK    7  A    between atoms: C_24  and  C_26 
REMARK    8  A    between atoms: C_25  and  C_27 
REMARK    9  A    between atoms: C_26  and  C_29 
REMARK   10  A    between atoms: C_28  and  C_30 
REMARK   11  A    between atoms: C_29  and  C_34 
REMARK   12  A    between atoms: C_30  and  C_33 
REMARK   13  A    between atoms: C_34  and  C_44 
REMARK   14  A    between atoms: C_36  and  C_42 
REMARK   15  A    between atoms: C_41  and  C_50 
REMARK   16  A    between atoms: C_42  and  C_51 
REMARK   17  A    between atoms: C_54  and  C_58 
REMARK   18  A    between atoms: C_54  and  C_63 
REMARK   19  A    between atoms: C_57  and  C_61 
REMARK   20  A    between atoms: C_57  and  C_62 
REMARK   21  A    between atoms: C_62  and  C_64 
ROOT
HETATM    1  S   UNK N   1      33.261  10.797   8.747  0.00  0.00    -0.095 SA
HETATM    2  S   UNK N   1      32.781  12.898   8.717  0.00  0.00    -0.095 SA
HETATM    3  O   UNK N   1      36.762  13.438   3.460  0.00  0.00    -0.271 OA
HETATM    4  O   UNK N   1      34.206   9.631   2.496  0.00  0.00    -0.271 OA
HETATM    5  O   UNK N   1      37.229   9.958   6.607  0.00  0.00    -0.271 OA
HETATM    6  O   UNK N   1      29.900  10.623   0.393  0.00  0.00    -0.271 OA
HETATM    7  O   UNK N   1      29.805  12.380   4.831  0.00  0.00    -0.271 OA
HETATM    8  N   UNK N   1      34.390  11.863   2.343  0.00  0.00    -0.346 N 
HETATM    9  N   UNK N   1      37.215  11.312   4.043  0.00  0.00    -0.346 N 
HETATM   10  N   UNK N   1      31.419  10.274   1.979  0.00  0.00    -0.346 N 
HETATM   11  N   UNK N   1      36.964  12.052   7.388  0.00  0.00    -0.345 N 
HETATM   12  N   UNK N   1      30.425  13.106   2.836  0.00  0.00    -0.346 N 
HETATM   13  C   UNK N   1      35.801  11.779   2.076  0.00  0.00     0.176 C 
HETATM   14  C   UNK N   1      38.031  11.689   5.182  0.00  0.00     0.180 C 
HETATM   15  C   UNK N   1      32.248  10.836   3.026  0.00  0.00     0.181 C 
HETATM   16  C   UNK N   1      36.630  12.241   3.237  0.00  0.00     0.241 C 
HETATM   17  C   UNK N   1      33.677  10.731   2.577  0.00  0.00     0.241 C 
HETATM   18  C   UNK N   1      37.402  11.161   6.458  0.00  0.00     0.241 C 
HETATM   19  C   UNK N   1      29.647  12.026   2.278  0.00  0.00     0.180 C 
HETATM   20  C   UNK N   1      30.355  10.953   1.479  0.00  0.00     0.241 C 
HETATM   21  C   UNK N   1      36.121  11.693   8.536  0.00  0.00     0.186 C 
HETATM   22  C   UNK N   1      30.683  14.592   4.848  0.00  0.00     0.186 C 
HETATM   23  C   UNK N   1      34.893  10.952   7.960  0.00  0.00     0.120 C 
HETATM   24  C   UNK N   1      30.332  13.269   4.173  0.00  0.00     0.242 C 
HETATM   25  C   UNK N   1      31.918  14.511   5.811  0.00  0.00     0.120 C 
HETATM   26  H   UNK N   1      33.938  12.785   2.451  0.00  0.00     0.163 HD
HETATM   27  H   UNK N   1      37.071  10.310   3.844  0.00  0.00     0.163 HD
HETATM   28  H   UNK N   1      31.803   9.501   1.410  0.00  0.00     0.163 HD
HETATM   29  H   UNK N   1      37.171  13.043   7.200  0.00  0.00     0.163 HD
HETATM   30  H   UNK N   1      30.842  13.833   2.234  0.00  0.00     0.163 HD
ENDROOT
BRANCH  22  31
HETATM   31  N   UNK N   1      29.565  15.170   5.591  0.00  0.00    -0.345 N 
HETATM   32  C   UNK N   1      29.013  16.384   5.292  0.00  0.00     0.251 C 
HETATM   33  O   UNK N   1      29.666  17.264   4.753  0.00  0.00    -0.271 OA
HETATM   34  H   UNK N   1      29.025  14.516   6.170  0.00  0.00     0.163 HD
BRANCH  32  35
HETATM   35  C   UNK N   1      27.561  16.626   5.474  0.00  0.00     0.313 C 
BRANCH  35  36
HETATM   36  N   UNK N   1      27.169  17.154   6.795  0.00  0.00     0.092 N 
HETATM   37  H   UNK N   1      26.867  16.406   7.455  0.00  0.00     0.313 HD
HETATM   38  H   UNK N   1      26.482  17.936   6.741  0.00  0.00     0.313 HD
ENDBRANCH  35  36
BRANCH  35  39
HETATM   39  C   UNK N   1      26.835  15.273   5.178  0.00  0.00     0.083 C 
BRANCH  39  40
HETATM   40  C   UNK N   1      25.995  15.539   4.002  0.00  0.00    -0.055 A 
HETATM   41  C   UNK N   1      24.692  15.069   4.093  0.00  0.00     0.019 A 
HETATM   42  C   UNK N   1      24.034  14.661   2.959  0.00  0.00    -0.025 A 
HETATM   43  C   UNK N   1      24.668  14.757   1.700  0.00  0.00    -0.026 A 
HETATM   44  C   UNK N   1      22.797  14.042   3.088  0.00  0.00     0.012 A 
HETATM   45  C   UNK N   1      25.938  15.337   1.595  0.00  0.00     0.013 A 
HETATM   46  C   UNK N   1      24.042  14.218   0.578  0.00  0.00     0.012 A 
HETATM   47  C   UNK N   1      26.620  15.701   2.758  0.00  0.00     0.008 A 
HETATM   48  C   UNK N   1      22.806  13.574   0.715  0.00  0.00     0.001 A 
HETATM   49  C   UNK N   1      22.183  13.493   1.966  0.00  0.00     0.001 A 
ENDBRANCH  39  40
ENDBRANCH  35  39
ENDBRANCH  32  35
ENDBRANCH  22  31
BRANCH  19  50
HETATM   50  C   UNK N   1      28.364  12.601   1.694  0.00  0.00     0.073 C 
BRANCH  50  51
HETATM   51  C   UNK N   1      27.109  11.885   2.082  0.00  0.00    -0.056 A 
HETATM   52  C   UNK N   1      26.677  11.972   3.408  0.00  0.00     0.010 A 
HETATM   53  C   UNK N   1      25.443  11.437   3.780  0.00  0.00     0.037 A 
HETATM   54  C   UNK N   1      24.629  10.824   2.823  0.00  0.00     0.065 A 
HETATM   55  C   UNK N   1      25.066  10.709   1.503  0.00  0.00     0.037 A 
HETATM   56  C   UNK N   1      26.302  11.235   1.134  0.00  0.00     0.010 A 
BRANCH  54  57
HETATM   57  O   UNK N   1      23.419  10.362   3.169  0.00  0.00    -0.361 OA
HETATM   58  H   UNK N   1      22.953   9.596   2.897  0.00  0.00     0.217 HD
ENDBRANCH  54  57
ENDBRANCH  50  51
ENDBRANCH  19  50
BRANCH  21  59
HETATM   59  C   UNK N   1      35.832  12.944   9.385  0.00  0.00     0.242 C 
HETATM   60  O   UNK N   1      35.401  12.812  10.521  0.00  0.00    -0.271 OA
HETATM   61  N   UNK N   1      35.960  14.198   8.866  0.00  0.00    -0.344 N 
HETATM   62  H   UNK N   1      36.334  14.316   7.913  0.00  0.00     0.163 HD
BRANCH  61  63
HETATM   63  C   UNK N   1      35.393  15.373   9.531  0.00  0.00     0.204 C 
BRANCH  63  64
HETATM   64  C   UNK N   1      36.230  15.989  10.668  0.00  0.00     0.146 C 
HETATM   65  C   UNK N   1      35.684  15.604  12.030  0.00  0.00     0.042 C 
BRANCH  64  66
HETATM   66  O   UNK N   1      37.577  15.634  10.574  0.00  0.00    -0.393 OA
HETATM   67  H   UNK N   1      38.374  15.109  10.746  0.00  0.00     0.210 HD
ENDBRANCH  64  66
ENDBRANCH  63  64
BRANCH  63  68
HETATM   68  C   UNK N   1      34.424  16.258   8.771  0.00  0.00     0.240 C 
HETATM   69  O   UNK N   1      34.594  16.464   7.581  0.00  0.00    -0.271 OA
HETATM   70  N   UNK N   1      33.335  16.786   9.388  0.00  0.00    -0.368 N 
HETATM   71  H   UNK N   1      33.153  16.616  10.387  0.00  0.00     0.159 HD
HETATM   72  H   UNK N   1      32.662  17.360   8.859  0.00  0.00     0.159 HD
ENDBRANCH  63  68
ENDBRANCH  61  63
ENDBRANCH  21  59
BRANCH  15  73
HETATM   73  C   UNK N   1      32.022  10.388   4.516  0.00  0.00     0.075 C 
BRANCH  73  74
HETATM   74  C   UNK N   1      31.463   8.966   4.464  0.00  0.00    -0.028 A 
HETATM   75  C   UNK N   1      30.147   8.509   4.466  0.00  0.00    -0.002 A 
HETATM   76  C   UNK N   1      30.325   6.952   4.889  0.00  0.00     0.042 A 
HETATM   77  C   UNK N   1      28.601   9.187   4.352  0.00  0.00     0.014 A 
HETATM   78  N   UNK N   1      31.610   6.693   4.986  0.00  0.00    -0.365 N 
HETATM   79  C   UNK N   1      29.028   5.960   5.271  0.00  0.00     0.030 A 
HETATM   80  C   UNK N   1      32.291   7.840   4.716  0.00  0.00     0.096 A 
HETATM   81  H   UNK N   1      32.013   5.791   5.286  0.00  0.00     0.165 HD
HETATM   82  C   UNK N   1      27.466   6.608   5.206  0.00  0.00     0.002 A 
HETATM   83  C   UNK N   1      27.250   8.226   4.735  0.00  0.00     0.001 A 
ENDBRANCH  73  74
ENDBRANCH  15  73
BRANCH  14  84
HETATM   84  C   UNK N   1      39.476  11.228   4.994  0.00  0.00     0.009 C 
HETATM   85  C   UNK N   1      39.489   9.832   4.401  0.00  0.00     0.012 C 
HETATM   86  C   UNK N   1      40.198  11.174   6.331  0.00  0.00     0.012 C 
ENDBRANCH  14  84
BRANCH  13  87
HETATM   87  C   UNK N   1      36.190  12.447   0.772  0.00  0.00     0.035 C 
BRANCH  87  88
HETATM   88  C   UNK N   1      34.978  13.151   0.186  0.00  0.00     0.004 C 
BRANCH  88  89
HETATM   89  C   UNK N   1      34.455  12.436  -1.061  0.00  0.00     0.030 C 
BRANCH  89  90
HETATM   90  C   UNK N   1      32.948  12.171  -1.009  0.00  0.00     0.267 C 
BRANCH  90  91
HETATM   91  N   UNK N   1      32.621  10.788  -1.330  0.00  0.00     0.078 N 
HETATM   92  H   UNK N   1      31.677  10.571  -0.945  0.00  0.00     0.312 HD
HETATM   93  H   UNK N   1      33.324  10.140  -0.907  0.00  0.00     0.312 HD
ENDBRANCH  90  91
ENDBRANCH  89  90
ENDBRANCH  88  89
ENDBRANCH  87  88
ENDBRANCH  13  87
TORSDOF 21
ENDMDL
MODEL 8
REMARK VINA RESULT:      -6.1      2.695     10.805
REMARK  21 active torsions:
REMARK  status: ('A' for Active; 'I' for Inactive)
REMARK    1  A    between atoms: O_9  and  C_58 
REMARK    2  A    between atoms: O_12  and  C_68 
REMARK       I    between atoms: N_19  and  C_50 
REMARK    3  A    between atoms: N_19  and  C_54 
REMARK    4  A    between atoms: N_20  and  C_46 
REMARK       I    between atoms: N_20  and  C_61 
REMARK    5  A    between atoms: N_21  and  C_44 
REMARK    6  A    between atoms: N_22  and  C_57 
REMARK       I    between atoms: N_23  and  C_63 
REMARK    7  A    between atoms: C_24  and  C_26 
REMARK    8  A    between atoms: C_25  and  C_27 
REMARK    9  A    between atoms: C_26  and  C_29 
REMARK   10  A    between atoms: C_28  and  C_30 
REMARK   11  A    between atoms: C_29  and  C_34 
REMARK   12  A    between atoms: C_30  and  C_33 
REMARK   13  A    between atoms: C_34  and  C_44 
REMARK   14  A    between atoms: C_36  and  C_42 
REMARK   15  A    between atoms: C_41  and  C_50 
REMARK   16  A    between atoms: C_42  and  C_51 
REMARK   17  A    between atoms: C_54  and  C_58 
REMARK   18  A    between atoms: C_54  and  C_63 
REMARK   19  A    between atoms: C_57  and  C_61 
REMARK   20  A    between atoms: C_57  and  C_62 
REMARK   21  A    between atoms: C_62  and  C_64 
ROOT
HETATM    1  S   UNK N   1      32.941  16.351   4.903  0.00  0.00    -0.095 SA
HETATM    2  S   UNK N   1      32.310  16.197   6.958  0.00  0.00    -0.095 SA
HETATM    3  O   UNK N   1      29.305  10.537   5.313  0.00  0.00    -0.271 OA
HETATM    4  O   UNK N   1      33.516  10.153   3.295  0.00  0.00    -0.271 OA
HETATM    5  O   UNK N   1      30.231  13.896   2.136  0.00  0.00    -0.271 OA
HETATM    6  O   UNK N   1      36.987   8.423   6.281  0.00  0.00    -0.271 OA
HETATM    7  O   UNK N   1      35.622  12.688   7.935  0.00  0.00    -0.271 OA
HETATM    8  N   UNK N   1      32.267   9.799   5.127  0.00  0.00    -0.346 N 
HETATM    9  N   UNK N   1      29.899  11.243   3.260  0.00  0.00    -0.346 N 
HETATM   10  N   UNK N   1      35.653   9.870   5.245  0.00  0.00    -0.346 N 
HETATM   11  N   UNK N   1      29.315  14.525   4.093  0.00  0.00    -0.345 N 
HETATM   12  N   UNK N   1      34.985  10.588   8.208  0.00  0.00    -0.346 N 
HETATM   13  C   UNK N   1      31.133   9.399   4.337  0.00  0.00     0.176 C 
HETATM   14  C   UNK N   1      28.865  12.259   3.197  0.00  0.00     0.180 C 
HETATM   15  C   UNK N   1      34.527  10.777   5.333  0.00  0.00     0.181 C 
HETATM   16  C   UNK N   1      30.043  10.428   4.342  0.00  0.00     0.241 C 
HETATM   17  C   UNK N   1      33.412  10.196   4.514  0.00  0.00     0.241 C 
HETATM   18  C   UNK N   1      29.503  13.631   3.084  0.00  0.00     0.241 C 
HETATM   19  C   UNK N   1      36.262  10.202   7.657  0.00  0.00     0.180 C 
HETATM   20  C   UNK N   1      36.292   9.426   6.358  0.00  0.00     0.241 C 
HETATM   21  C   UNK N   1      30.069  15.778   4.231  0.00  0.00     0.186 C 
HETATM   22  C   UNK N   1      33.764  12.435   9.402  0.00  0.00     0.186 C 
HETATM   23  C   UNK N   1      31.565  15.392   4.198  0.00  0.00     0.120 C 
HETATM   24  C   UNK N   1      34.812  11.909   8.423  0.00  0.00     0.242 C 
HETATM   25  C   UNK N   1      32.622  13.271   8.728  0.00  0.00     0.120 C 
HETATM   26  H   UNK N   1      32.182   9.876   6.153  0.00  0.00     0.163 HD
HETATM   27  H   UNK N   1      30.548  11.143   2.464  0.00  0.00     0.163 HD
HETATM   28  H   UNK N   1      35.782   9.330   4.373  0.00  0.00     0.163 HD
HETATM   29  H   UNK N   1      28.668  14.235   4.840  0.00  0.00     0.163 HD
HETATM   30  H   UNK N   1      34.343   9.889   8.614  0.00  0.00     0.163 HD
ENDROOT
BRANCH  22  31
HETATM   31  N   UNK N   1      34.340  13.237  10.479  0.00  0.00    -0.345 N 
HETATM   32  C   UNK N   1      35.021  12.699  11.534  0.00  0.00     0.251 C 
HETATM   33  O   UNK N   1      34.797  11.562  11.923  0.00  0.00    -0.271 OA
HETATM   34  H   UNK N   1      34.458  14.238  10.280  0.00  0.00     0.163 HD
BRANCH  32  35
HETATM   35  C   UNK N   1      36.162  13.418  12.152  0.00  0.00     0.313 C 
BRANCH  35  36
HETATM   36  N   UNK N   1      36.815  14.422  11.292  0.00  0.00     0.092 N 
HETATM   37  H   UNK N   1      36.201  15.239  11.087  0.00  0.00     0.313 HD
HETATM   38  H   UNK N   1      37.236  14.017  10.428  0.00  0.00     0.313 HD
ENDBRANCH  35  36
BRANCH  35  39
HETATM   39  C   UNK N   1      37.186  12.330  12.615  0.00  0.00     0.083 C 
BRANCH  39  40
HETATM   40  C   UNK N   1      37.192  12.410  14.081  0.00  0.00    -0.055 A 
HETATM   41  C   UNK N   1      37.206  11.187  14.737  0.00  0.00     0.019 A 
HETATM   42  C   UNK N   1      36.591  11.060  15.957  0.00  0.00    -0.025 A 
HETATM   43  C   UNK N   1      35.980  12.181  16.562  0.00  0.00    -0.026 A 
HETATM   44  C   UNK N   1      36.472   9.794  16.519  0.00  0.00     0.012 A 
HETATM   45  C   UNK N   1      36.065  13.440  15.954  0.00  0.00     0.013 A 
HETATM   46  C   UNK N   1      35.246  12.009  17.733  0.00  0.00     0.012 A 
HETATM   47  C   UNK N   1      36.647  13.549  14.690  0.00  0.00     0.008 A 
HETATM   48  C   UNK N   1      35.109  10.730  18.285  0.00  0.00     0.001 A 
HETATM   49  C   UNK N   1      35.726   9.627  17.682  0.00  0.00     0.001 A 
ENDBRANCH  39  40
ENDBRANCH  35  39
ENDBRANCH  32  35
ENDBRANCH  22  31
BRANCH  19  50
HETATM   50  C   UNK N   1      37.151   9.706   8.789  0.00  0.00     0.073 C 
BRANCH  50  51
HETATM   51  C   UNK N   1      38.531  10.286   8.819  0.00  0.00    -0.056 A 
HETATM   52  C   UNK N   1      39.589   9.506   8.346  0.00  0.00     0.010 A 
HETATM   53  C   UNK N   1      40.866  10.055   8.226  0.00  0.00     0.037 A 
HETATM   54  C   UNK N   1      41.087  11.394   8.566  0.00  0.00     0.065 A 
HETATM   55  C   UNK N   1      40.040  12.170   9.064  0.00  0.00     0.037 A 
HETATM   56  C   UNK N   1      38.768  11.618   9.192  0.00  0.00     0.010 A 
BRANCH  54  57
HETATM   57  O   UNK N   1      42.300  11.938   8.396  0.00  0.00    -0.361 OA
HETATM   58  H   UNK N   1      43.151  11.631   8.641  0.00  0.00     0.217 HD
ENDBRANCH  54  57
ENDBRANCH  50  51
ENDBRANCH  19  50
BRANCH  21  59
HETATM   59  C   UNK N   1      29.584  16.546   5.474  0.00  0.00     0.242 C 
HETATM   60  O   UNK N   1      29.104  15.926   6.412  0.00  0.00    -0.271 OA
HETATM   61  N   UNK N   1      29.592  17.908   5.513  0.00  0.00    -0.344 N 
HETATM   62  H   UNK N   1      30.005  18.435   4.729  0.00  0.00     0.163 HD
BRANCH  61  63
HETATM   63  C   UNK N   1      28.851  18.658   6.530  0.00  0.00     0.204 C 
BRANCH  63  64
HETATM   64  C   UNK N   1      27.597  19.411   6.050  0.00  0.00     0.146 C 
HETATM   65  C   UNK N   1      27.804  20.010   4.671  0.00  0.00     0.042 C 
BRANCH  64  66
HETATM   66  O   UNK N   1      26.466  18.594   6.052  0.00  0.00    -0.393 OA
HETATM   67  H   UNK N   1      25.520  18.381   6.027  0.00  0.00     0.210 HD
ENDBRANCH  64  66
ENDBRANCH  63  64
BRANCH  63  68
HETATM   68  C   UNK N   1      28.935  18.218   7.979  0.00  0.00     0.240 C 
HETATM   69  O   UNK N   1      29.975  18.358   8.598  0.00  0.00    -0.271 OA
HETATM   70  N   UNK N   1      27.845  17.715   8.615  0.00  0.00    -0.368 N 
HETATM   71  H   UNK N   1      26.946  17.602   8.125  0.00  0.00     0.159 HD
HETATM   72  H   UNK N   1      27.897  17.448   9.609  0.00  0.00     0.159 HD
ENDBRANCH  63  68
ENDBRANCH  61  63
ENDBRANCH  21  59
BRANCH  15  73
HETATM   73  C   UNK N   1      34.752  12.315   5.091  0.00  0.00     0.075 C 
BRANCH  73  74
HETATM   74  C   UNK N   1      35.907  12.435   4.097  0.00  0.00    -0.028 A 
HETATM   75  C   UNK N   1      37.280  12.540   4.310  0.00  0.00    -0.002 A 
HETATM   76  C   UNK N   1      37.806  13.115   2.886  0.00  0.00     0.042 A 
HETATM   77  C   UNK N   1      38.341  12.421   5.623  0.00  0.00     0.014 A 
HETATM   78  N   UNK N   1      36.784  13.184   2.064  0.00  0.00    -0.365 N 
HETATM   79  C   UNK N   1      39.377  13.652   2.649  0.00  0.00     0.030 A 
HETATM   80  C   UNK N   1      35.676  12.768   2.735  0.00  0.00     0.096 A 
HETATM   81  H   UNK N   1      36.819  13.560   1.102  0.00  0.00     0.165 HD
HETATM   82  C   UNK N   1      40.462  13.586   3.945  0.00  0.00     0.002 A 
HETATM   83  C   UNK N   1      39.944  12.958   5.437  0.00  0.00     0.001 A 
ENDBRANCH  73  74
ENDBRANCH  15  73
BRANCH  14  84
HETATM   84  C   UNK N   1      27.879  11.964   2.067  0.00  0.00     0.009 C 
HETATM   85  C   UNK N   1      26.650  11.279   2.635  0.00  0.00     0.012 C 
HETATM   86  C   UNK N   1      28.504  11.028   1.044  0.00  0.00     0.012 C 
ENDBRANCH  14  84
BRANCH  13  87
HETATM   87  C   UNK N   1      30.635   8.011   4.692  0.00  0.00     0.035 C 
BRANCH  87  88
HETATM   88  C   UNK N   1      30.632   7.144   3.445  0.00  0.00     0.004 C 
BRANCH  88  89
HETATM   89  C   UNK N   1      31.585   5.954   3.580  0.00  0.00     0.030 C 
BRANCH  89  90
HETATM   90  C   UNK N   1      33.032   6.378   3.844  0.00  0.00     0.267 C 
BRANCH  90  91
HETATM   91  N   UNK N   1      33.614   7.085   2.710  0.00  0.00     0.078 N 
HETATM   92  H   UNK N   1      34.210   6.420   2.173  0.00  0.00     0.312 HD
HETATM   93  H   UNK N   1      34.200   7.884   3.043  0.00  0.00     0.312 HD
ENDBRANCH  90  91
ENDBRANCH  89  90
ENDBRANCH  88  89
ENDBRANCH  87  88
ENDBRANCH  13  87
TORSDOF 21
ENDMDL
MODEL 9
REMARK VINA RESULT:      -6.0      2.977     10.714
REMARK  21 active torsions:
REMARK  status: ('A' for Active; 'I' for Inactive)
REMARK    1  A    between atoms: O_9  and  C_58 
REMARK    2  A    between atoms: O_12  and  C_68 
REMARK       I    between atoms: N_19  and  C_50 
REMARK    3  A    between atoms: N_19  and  C_54 
REMARK    4  A    between atoms: N_20  and  C_46 
REMARK       I    between atoms: N_20  and  C_61 
REMARK    5  A    between atoms: N_21  and  C_44 
REMARK    6  A    between atoms: N_22  and  C_57 
REMARK       I    between atoms: N_23  and  C_63 
REMARK    7  A    between atoms: C_24  and  C_26 
REMARK    8  A    between atoms: C_25  and  C_27 
REMARK    9  A    between atoms: C_26  and  C_29 
REMARK   10  A    between atoms: C_28  and  C_30 
REMARK   11  A    between atoms: C_29  and  C_34 
REMARK   12  A    between atoms: C_30  and  C_33 
REMARK   13  A    between atoms: C_34  and  C_44 
REMARK   14  A    between atoms: C_36  and  C_42 
REMARK   15  A    between atoms: C_41  and  C_50 
REMARK   16  A    between atoms: C_42  and  C_51 
REMARK   17  A    between atoms: C_54  and  C_58 
REMARK   18  A    between atoms: C_54  and  C_63 
REMARK   19  A    between atoms: C_57  and  C_61 
REMARK   20  A    between atoms: C_57  and  C_62 
REMARK   21  A    between atoms: C_62  and  C_64 
ROOT
HETATM    1  S   UNK N   1      32.311  17.057   3.136  0.00  0.00    -0.095 SA
HETATM    2  S   UNK N   1      32.341  17.160   5.289  0.00  0.00    -0.095 SA
HETATM    3  O   UNK N   1      28.405  11.843   5.312  0.00  0.00    -0.271 OA
HETATM    4  O   UNK N   1      31.713  10.727   2.188  0.00  0.00    -0.271 OA
HETATM    5  O   UNK N   1      28.635  14.771   1.624  0.00  0.00    -0.271 OA
HETATM    6  O   UNK N   1      35.744   8.796   4.182  0.00  0.00    -0.271 OA
HETATM    7  O   UNK N   1      35.411  13.329   5.643  0.00  0.00    -0.271 OA
HETATM    8  N   UNK N   1      31.068  10.698   4.338  0.00  0.00    -0.346 N 
HETATM    9  N   UNK N   1      28.399  12.290   3.106  0.00  0.00    -0.346 N 
HETATM   10  N   UNK N   1      34.311  10.320   3.427  0.00  0.00    -0.346 N 
HETATM   11  N   UNK N   1      28.446  15.678   3.675  0.00  0.00    -0.345 N 
HETATM   12  N   UNK N   1      34.678  11.364   6.346  0.00  0.00    -0.346 N 
HETATM   13  C   UNK N   1      29.710  10.391   3.978  0.00  0.00     0.176 C 
HETATM   14  C   UNK N   1      27.507  13.428   3.234  0.00  0.00     0.180 C 
HETATM   15  C   UNK N   1      33.368  11.375   3.738  0.00  0.00     0.181 C 
HETATM   16  C   UNK N   1      28.788  11.555   4.185  0.00  0.00     0.241 C 
HETATM   17  C   UNK N   1      31.999  10.885   3.367  0.00  0.00     0.241 C 
HETATM   18  C   UNK N   1      28.216  14.686   2.771  0.00  0.00     0.241 C 
HETATM   19  C   UNK N   1      35.672  10.764   5.488  0.00  0.00     0.180 C 
HETATM   20  C   UNK N   1      35.215   9.887   4.343  0.00  0.00     0.241 C 
HETATM   21  C   UNK N   1      29.330  16.824   3.429  0.00  0.00     0.186 C 
HETATM   22  C   UNK N   1      34.088  13.451   7.619  0.00  0.00     0.186 C 
HETATM   23  C   UNK N   1      30.693  16.239   2.996  0.00  0.00     0.120 C 
HETATM   24  C   UNK N   1      34.718  12.710   6.441  0.00  0.00     0.242 C 
HETATM   25  C   UNK N   1      32.886  14.376   7.222  0.00  0.00     0.120 C 
HETATM   26  H   UNK N   1      31.316  10.871   5.325  0.00  0.00     0.163 HD
HETATM   27  H   UNK N   1      28.753  12.037   2.171  0.00  0.00     0.163 HD
HETATM   28  H   UNK N   1      34.105   9.697   2.628  0.00  0.00     0.163 HD
HETATM   29  H   UNK N   1      28.038  15.541   4.611  0.00  0.00     0.163 HD
HETATM   30  H   UNK N   1      34.126  10.795   7.005  0.00  0.00     0.163 HD
ENDROOT
BRANCH  22  31
HETATM   31  N   UNK N   1      35.051  14.254   8.370  0.00  0.00    -0.345 N 
HETATM   32  C   UNK N   1      35.222  14.152   9.721  0.00  0.00     0.251 C 
HETATM   33  O   UNK N   1      34.313  13.785  10.451  0.00  0.00    -0.271 OA
HETATM   34  H   UNK N   1      35.791  14.702   7.815  0.00  0.00     0.163 HD
BRANCH  32  35
HETATM   35  C   UNK N   1      36.558  14.339  10.337  0.00  0.00     0.313 C 
BRANCH  35  36
HETATM   36  N   UNK N   1      36.799  15.666  10.932  0.00  0.00     0.092 N 
HETATM   37  H   UNK N   1      35.918  16.157  11.195  0.00  0.00     0.313 HD
HETATM   38  H   UNK N   1      37.432  16.267  10.361  0.00  0.00     0.313 HD
ENDBRANCH  35  36
BRANCH  35  39
HETATM   39  C   UNK N   1      37.616  14.024   9.229  0.00  0.00     0.083 C 
BRANCH  39  40
HETATM   40  C   UNK N   1      38.334  12.838   9.712  0.00  0.00    -0.055 A 
HETATM   41  C   UNK N   1      39.681  12.790   9.379  0.00  0.00     0.019 A 
HETATM   42  C   UNK N   1      40.289  11.577   9.172  0.00  0.00    -0.025 A 
HETATM   43  C   UNK N   1      39.557  10.381   9.337  0.00  0.00    -0.026 A 
HETATM   44  C   UNK N   1      41.588  11.555   8.679  0.00  0.00     0.012 A 
HETATM   45  C   UNK N   1      38.231  10.425   9.784  0.00  0.00     0.013 A 
HETATM   46  C   UNK N   1      40.147   9.166   8.995  0.00  0.00     0.012 A 
HETATM   47  C   UNK N   1      37.604  11.663   9.941  0.00  0.00     0.008 A 
HETATM   48  C   UNK N   1      41.449   9.148   8.477  0.00  0.00     0.001 A 
HETATM   49  C   UNK N   1      42.168  10.339   8.327  0.00  0.00     0.001 A 
ENDBRANCH  39  40
ENDBRANCH  35  39
ENDBRANCH  32  35
ENDBRANCH  22  31
BRANCH  19  50
HETATM   50  C   UNK N   1      36.814  10.248   6.352  0.00  0.00     0.073 C 
BRANCH  50  51
HETATM   51  C   UNK N   1      38.165  10.801   6.023  0.00  0.00    -0.056 A 
HETATM   52  C   UNK N   1      39.134   9.929   5.520  0.00  0.00     0.010 A 
HETATM   53  C   UNK N   1      40.359  10.426   5.070  0.00  0.00     0.037 A 
HETATM   54  C   UNK N   1      40.613  11.800   5.109  0.00  0.00     0.065 A 
HETATM   55  C   UNK N   1      39.660  12.673   5.636  0.00  0.00     0.037 A 
HETATM   56  C   UNK N   1      38.442  12.175   6.093  0.00  0.00     0.010 A 
BRANCH  54  57
HETATM   57  O   UNK N   1      41.766  12.283   4.624  0.00  0.00    -0.361 OA
HETATM   58  H   UNK N   1      42.383  12.884   4.991  0.00  0.00     0.217 HD
ENDBRANCH  54  57
ENDBRANCH  50  51
ENDBRANCH  19  50
BRANCH  21  59
HETATM   59  C   UNK N   1      29.339  17.751   4.658  0.00  0.00     0.242 C 
HETATM   60  O   UNK N   1      29.833  18.866   4.565  0.00  0.00    -0.271 OA
HETATM   61  N   UNK N   1      28.893  17.323   5.872  0.00  0.00    -0.344 N 
HETATM   62  H   UNK N   1      28.466  16.389   5.954  0.00  0.00     0.163 HD
BRANCH  61  63
HETATM   63  C   UNK N   1      29.183  18.056   7.107  0.00  0.00     0.204 C 
BRANCH  63  64
HETATM   64  C   UNK N   1      28.117  19.064   7.573  0.00  0.00     0.146 C 
HETATM   65  C   UNK N   1      27.095  19.334   6.485  0.00  0.00     0.042 C 
BRANCH  64  66
HETATM   66  O   UNK N   1      27.475  18.642   8.739  0.00  0.00    -0.393 OA
HETATM   67  H   UNK N   1      27.318  18.570   9.693  0.00  0.00     0.210 HD
ENDBRANCH  64  66
ENDBRANCH  63  64
BRANCH  63  68
HETATM   68  C   UNK N   1      30.105  17.432   8.137  0.00  0.00     0.240 C 
HETATM   69  O   UNK N   1      30.327  16.233   8.108  0.00  0.00    -0.271 OA
HETATM   70  N   UNK N   1      30.730  18.202   9.065  0.00  0.00    -0.368 N 
HETATM   71  H   UNK N   1      30.579  19.220   9.104  0.00  0.00     0.159 HD
HETATM   72  H   UNK N   1      31.382  17.779   9.743  0.00  0.00     0.159 HD
ENDBRANCH  63  68
ENDBRANCH  61  63
ENDBRANCH  21  59
BRANCH  15  73
HETATM   73  C   UNK N   1      33.664  12.843   3.257  0.00  0.00     0.075 C 
BRANCH  73  74
HETATM   74  C   UNK N   1      34.477  12.723   1.968  0.00  0.00    -0.028 A 
HETATM   75  C   UNK N   1      35.855  12.735   1.761  0.00  0.00    -0.002 A 
HETATM   76  C   UNK N   1      35.961  13.060   0.174  0.00  0.00     0.042 A 
HETATM   77  C   UNK N   1      37.250  12.705   2.717  0.00  0.00     0.014 A 
HETATM   78  N   UNK N   1      34.745  13.105  -0.322  0.00  0.00    -0.365 N 
HETATM   79  C   UNK N   1      37.413  13.419  -0.584  0.00  0.00     0.030 A 
HETATM   80  C   UNK N   1      33.868  12.884   0.694  0.00  0.00     0.096 A 
HETATM   81  H   UNK N   1      34.510  13.340  -1.301  0.00  0.00     0.165 HD
HETATM   82  C   UNK N   1      38.829  13.438   0.341  0.00  0.00     0.002 A 
HETATM   83  C   UNK N   1      38.749  13.069   1.998  0.00  0.00     0.001 A 
ENDBRANCH  73  74
ENDBRANCH  15  73
BRANCH  14  84
HETATM   84  C   UNK N   1      26.193  13.176   2.496  0.00  0.00     0.009 C 
HETATM   85  C   UNK N   1      25.100  12.865   3.500  0.00  0.00     0.012 C 
HETATM   86  C   UNK N   1      26.324  11.981   1.564  0.00  0.00     0.012 C 
ENDBRANCH  14  84
BRANCH  13  87
HETATM   87  C   UNK N   1      29.207   9.118   4.630  0.00  0.00     0.035 C 
BRANCH  87  88
HETATM   88  C   UNK N   1      29.553   7.930   3.748  0.00  0.00     0.004 C 
BRANCH  88  89
HETATM   89  C   UNK N   1      30.520   6.970   4.444  0.00  0.00     0.030 C 
BRANCH  89  90
HETATM   90  C   UNK N   1      30.974   7.473   5.816  0.00  0.00     0.267 C 
BRANCH  90  91
HETATM   91  N   UNK N   1      32.392   7.807   5.838  0.00  0.00     0.078 N 
HETATM   92  H   UNK N   1      32.703   7.876   6.831  0.00  0.00     0.312 HD
HETATM   93  H   UNK N   1      32.558   8.722   5.361  0.00  0.00     0.312 HD
ENDBRANCH  90  91
ENDBRANCH  89  90
ENDBRANCH  88  89
ENDBRANCH  87  88
ENDBRANCH  13  87
TORSDOF 21
ENDMDL
