REMARK  20 active torsions:
REMARK  status: ('A' for Active; 'I' for Inactive)
REMARK    1  A    between atoms: C_1  and  C_2 
REMARK    2  A    between atoms: C_2  and  C_5 
REMARK    3  A    between atoms: C_5  and  C_6 
REMARK    4  A    between atoms: C_6  and  C_7 
REMARK    5  A    between atoms: C_7  and  N_8 
REMARK    6  A    between atoms: C_12  and  C_15 
REMARK    7  A    between atoms: C_15  and  C_69 
REMARK    8  A    between atoms: C_16  and  C_17 
REMARK    9  A    between atoms: C_17  and  C_21 
REMARK   10  A    between atoms: C_24  and  O_27 
REMARK   11  A    between atoms: O_27  and  C_28 
REMARK   12  A    between atoms: C_28  and  C_29 
REMARK   13  A    between atoms: C_35  and  C_37 
REMARK   14  A    between atoms: C_37  and  C_38 
REMARK   15  A    between atoms: C_48  and  C_49 
REMARK   16  A    between atoms: C_61  and  O_62 
REMARK   17  A    between atoms: O_62  and  C_63 
REMARK       I    between atoms: C_63  and  N_65 
REMARK   18  A    between atoms: N_65  and  C_66 
REMARK   19  A    between atoms: C_66  and  C_67 
REMARK   20  A    between atoms: C_67  and  N_68 
ROOT
HETATM    1  C   UNK N   1      15.767  -5.751   1.034  0.00  0.00     0.176 C 
HETATM    2  N   UNK N   1      14.562  -5.031   0.751  0.00  0.00    -0.346 N 
HETATM    3  C   UNK N   1      15.809  -7.194   0.659  0.00  0.00     0.241 C 
HETATM    4  N   UNK N   1      16.861  -7.950   1.009  0.00  0.00    -0.346 N 
HETATM    5  O   UNK N   1      14.878  -7.691   0.044  0.00  0.00    -0.271 OA
HETATM    6  C   UNK N   1      13.975  -5.022  -0.467  0.00  0.00     0.241 C 
HETATM    7  C   UNK N   1      12.630  -4.386  -0.578  0.00  0.00     0.181 C 
HETATM    8  O   UNK N   1      14.504  -5.547  -1.438  0.00  0.00    -0.271 OA
HETATM    9  N   UNK N   1      11.523  -5.313  -0.434  0.00  0.00    -0.345 N 
HETATM   10  C   UNK N   1      16.905  -9.353   0.690  0.00  0.00     0.180 C 
HETATM   11  C   UNK N   1      16.670 -10.254   1.864  0.00  0.00     0.241 C 
HETATM   12  O   UNK N   1      17.279 -10.041   2.900  0.00  0.00    -0.271 OA
HETATM   13  N   UNK N   1      15.754 -11.244   1.832  0.00  0.00    -0.346 N 
HETATM   14  C   UNK N   1      14.990 -11.547   0.650  0.00  0.00     0.181 C 
HETATM   15  C   UNK N   1      13.642 -10.861   0.798  0.00  0.00     0.243 C 
HETATM   16  N   UNK N   1      12.438 -11.459   0.511  0.00  0.00    -0.334 N 
HETATM   17  O   UNK N   1      13.667  -9.710   1.179  0.00  0.00    -0.271 OA
HETATM   18  C   UNK N   1      11.486  -6.300   0.517  0.00  0.00     0.245 C 
HETATM   19  O   UNK N   1      12.459  -6.544   1.212  0.00  0.00    -0.271 OA
HETATM   20  C   UNK N   1      10.244  -7.094   0.764  0.00  0.00     0.210 C 
HETATM   21  N   UNK N   1      10.449  -8.462   0.364  0.00  0.00    -0.342 N 
HETATM   22  C   UNK N   1      11.023  -9.409   1.142  0.00  0.00     0.241 C 
HETATM   23  O   UNK N   1      11.368  -9.150   2.288  0.00  0.00    -0.271 OA
HETATM   24  C   UNK N   1      11.151 -10.811   0.607  0.00  0.00     0.181 C 
HETATM   25  C   UNK N   1      12.312 -12.680  -0.220  0.00  0.00     0.159 C 
HETATM   26  C   UNK N   1      10.626 -10.988  -0.798  0.00  0.00     0.069 C 
HETATM   27  C   UNK N   1      11.149 -12.370  -1.186  0.00  0.00     0.154 C 
HETATM   28  H   UNK N   1      14.141  -4.519   1.478  0.00  0.00     0.163 HD
HETATM   29  H   UNK N   1      17.614  -7.539   1.492  0.00  0.00     0.163 HD
HETATM   30  H   UNK N   1      10.760  -5.229  -1.050  0.00  0.00     0.163 HD
HETATM   31  H   UNK N   1      15.603 -11.778   2.645  0.00  0.00     0.163 HD
HETATM   32  H   UNK N   1      10.151  -8.727  -0.537  0.00  0.00     0.163 HD
ENDROOT
BRANCH  10  33
HETATM   33  C   UNK N   1      16.825  -9.740  -0.817  0.00  0.00     0.073 C 
BRANCH  33  34
HETATM   34  C   UNK N   1      18.185  -9.443  -1.290  0.00  0.00    -0.056 C 
HETATM   35  C   UNK N   1      18.531  -8.089  -1.356  0.00  0.00     0.010 C 
HETATM   36  C   UNK N   1      19.794  -7.690  -0.949  0.00  0.00     0.037 C 
HETATM   37  C   UNK N   1      20.707  -8.650  -0.482  0.00  0.00     0.069 C 
HETATM   38  C   UNK N   1      20.416 -10.007  -0.588  0.00  0.00     0.037 C 
HETATM   39  C   UNK N   1      19.144 -10.402  -0.969  0.00  0.00     0.010 C 
BRANCH  37  40
HETATM   40  O   UNK N   1      21.814  -8.287   0.184  0.00  0.00    -0.347 OA
BRANCH  40  41
HETATM   41  C   UNK N   1      21.910  -7.058   0.790  0.00  0.00     0.214 C 
BRANCH  41  42
HETATM   42  C   UNK N   1      23.068  -6.360   0.225  0.00  0.00    -0.034 A 
HETATM   43  C   UNK N   1      22.883  -5.191  -0.512  0.00  0.00     0.009 A 
HETATM   44  C   UNK N   1      23.982  -4.560  -1.094  0.00  0.00     0.001 A 
HETATM   45  C   UNK N   1      25.261  -5.106  -0.940  0.00  0.00     0.000 A 
HETATM   46  C   UNK N   1      25.441  -6.278  -0.198  0.00  0.00     0.001 A 
HETATM   47  C   UNK N   1      24.342  -6.906   0.383  0.00  0.00     0.009 A 
ENDBRANCH  41  42
ENDBRANCH  40  41
ENDBRANCH  37  40
ENDBRANCH  33  34
ENDBRANCH  10  33
BRANCH   1  48
HETATM   48  C   UNK N   1      16.901  -4.987   1.673  0.00  0.00     0.035 C 
BRANCH  48  49
HETATM   49  C   UNK N   1      17.796  -4.495   0.568  0.00  0.00     0.004 C 
BRANCH  49  50
HETATM   50  C   UNK N   1      18.394  -3.162   0.951  0.00  0.00     0.019 C 
BRANCH  50  51
HETATM   51  C   UNK N   1      19.198  -2.626  -0.215  0.00  0.00     0.111 C 
BRANCH  51  52
HETATM   52  N   UNK N   1      20.360  -3.467  -0.438  0.00  0.00    -0.430 N 
HETATM   53  H   UNK N   1      20.256  -4.469  -0.595  0.00  0.00     0.149 HD
HETATM   54  H   UNK N   1      21.291  -3.050  -0.438  0.00  0.00     0.149 HD
ENDBRANCH  51  52
ENDBRANCH  50  51
ENDBRANCH  49  50
ENDBRANCH  48  49
ENDBRANCH   1  48
BRANCH  14  55
HETATM   55  C   UNK N   1      15.032 -13.059   0.444  0.00  0.00     0.073 C 
BRANCH  55  56
HETATM   56  C   UNK N   1      16.343 -13.548  -0.108  0.00  0.00    -0.056 A 
HETATM   57  C   UNK N   1      17.572 -13.088   0.393  0.00  0.00     0.007 A 
HETATM   58  C   UNK N   1      18.774 -13.571  -0.132  0.00  0.00     0.001 A 
HETATM   59  C   UNK N   1      18.756 -14.531  -1.146  0.00  0.00     0.000 A 
HETATM   60  C   UNK N   1      17.536 -15.006  -1.635  0.00  0.00     0.001 A 
HETATM   61  C   UNK N   1      16.333 -14.513  -1.119  0.00  0.00     0.007 A 
ENDBRANCH  55  56
ENDBRANCH  14  55
BRANCH   7  62
HETATM   62  C   UNK N   1      12.522  -3.402  -1.751  0.00  0.00     0.075 C 
BRANCH  62  63
HETATM   63  C   UNK N   1      13.716  -2.505  -1.638  0.00  0.00    -0.028 A 
HETATM   64  C   UNK N   1      14.036  -1.744  -0.547  0.00  0.00    -0.002 A 
HETATM   65  C   UNK N   1      15.291  -1.262  -0.757  0.00  0.00     0.042 A 
HETATM   66  C   UNK N   1      13.331  -1.501   0.630  0.00  0.00     0.014 A 
HETATM   67  N   UNK N   1      15.775  -1.672  -1.945  0.00  0.00    -0.365 N 
HETATM   68  C   UNK N   1      15.946  -0.492   0.200  0.00  0.00     0.030 A 
HETATM   69  C   UNK N   1      14.808  -2.451  -2.497  0.00  0.00     0.096 A 
HETATM   70  H   UNK N   1      16.652  -1.452  -2.335  0.00  0.00     0.165 HD
HETATM   71  C   UNK N   1      15.261  -0.218   1.401  0.00  0.00     0.002 A 
HETATM   72  C   UNK N   1      13.956  -0.717   1.613  0.00  0.00     0.001 A 
ENDBRANCH  62  63
ENDBRANCH   7  62
BRANCH  27  73
HETATM   73  O   UNK N   1      10.153 -13.334  -1.165  0.00  0.00    -0.297 OA
BRANCH  73  74
HETATM   74  C   UNK N   1       9.486 -13.763  -0.056  0.00  0.00     0.361 C 
HETATM   75  O   UNK N   1       9.740 -14.870   0.384  0.00  0.00    -0.239 OA
HETATM   76  N   UNK N   1       8.481 -13.047   0.518  0.00  0.00    -0.335 N 
HETATM   77  H   UNK N   1       8.042 -13.436   1.308  0.00  0.00     0.164 HD
BRANCH  76  78
HETATM   78  C   UNK N   1       8.010 -11.764   0.060  0.00  0.00     0.144 C 
BRANCH  78  79
HETATM   79  C   UNK N   1       7.963 -10.805   1.239  0.00  0.00     0.130 C 
BRANCH  79  80
HETATM   80  N   UNK N   1       7.498  -9.502   0.802  0.00  0.00    -0.429 N 
HETATM   81  H   UNK N   1       8.128  -8.761   0.495  0.00  0.00     0.149 HD
HETATM   82  H   UNK N   1       6.495  -9.318   0.802  0.00  0.00     0.149 HD
ENDBRANCH  79  80
ENDBRANCH  78  79
ENDBRANCH  76  78
ENDBRANCH  73  74
ENDBRANCH  27  73
BRANCH  20  83
HETATM   83  C   UNK N   1       9.056  -6.528   0.064  0.00  0.00    -0.026 A 
HETATM   84  C   UNK N   1       8.831  -6.794  -1.293  0.00  0.00     0.010 A 
HETATM   85  C   UNK N   1       7.731  -6.233  -1.940  0.00  0.00     0.001 A 
HETATM   86  C   UNK N   1       6.866  -5.388  -1.239  0.00  0.00     0.000 A 
HETATM   87  C   UNK N   1       7.096  -5.111   0.112  0.00  0.00     0.001 A 
HETATM   88  C   UNK N   1       8.189  -5.685   0.765  0.00  0.00     0.010 A 
ENDBRANCH  20  83
TORSDOF 20
