MODEL 1
REMARK VINA RESULT:      -8.2      0.000      0.000
REMARK  18 active torsions:
REMARK  status: ('A' for Active; 'I' for Inactive)
REMARK    1  A    between atoms: C_2  and  C_3 
REMARK    2  A    between atoms: C_3  and  C_4 
REMARK    3  A    between atoms: C_4  and  C_5 
REMARK    4  A    between atoms: C_5  and  C_6 
REMARK    5  A    between atoms: C_6  and  O_7 
REMARK    6  A    between atoms: O_7  and  C_8 
REMARK       I    between atoms: N_10  and  C_8 
REMARK    7  A    between atoms: C_12  and  C_13 
REMARK    8  A    between atoms: C_12  and  N_49 
REMARK    9  A    between atoms: C_16  and  N_19 
REMARK   10  A    between atoms: N_19  and  C_20 
REMARK   11  A    between atoms: C_20  and  C_21 
REMARK   12  A    between atoms: C_30  and  C_32 
REMARK       I    between atoms: C_32  and  N_34 
REMARK   13  A    between atoms: N_34  and  C_35 
REMARK   14  A    between atoms: N_34  and  C_42 
REMARK   15  A    between atoms: C_35  and  C_36 
REMARK   16  A    between atoms: C_36  and  C_37 
REMARK   17  A    between atoms: C_37  and  O_39 
REMARK   18  A    between atoms: O_39  and  C_40 
ROOT
HETATM    1  C   UNK N   1      31.175  16.294   4.146  0.00  0.00     0.102 A 
HETATM    2  N   UNK N   1      30.305  16.940   3.330  0.00  0.00    -0.343 N 
ATOM      3  HN  UNK N   1      30.513  17.518   2.515  1.00  0.00     0.167 HD
HETATM    4  C   UNK N   1      29.107  16.639   3.848  0.00  0.00     0.061 A 
HETATM    5  C   UNK N   1      29.258  15.832   4.937  0.00  0.00     0.062 A 
HETATM    6  N   UNK N   1      30.540  15.608   5.141  0.00  0.00    -0.338 N 
HETATM    7  C   UNK N   1      31.049  14.792   6.243  0.00  0.00     0.158 C 
HETATM    8  C   UNK N   1      28.209  15.352   5.679  0.00  0.00     0.033 A 
HETATM    9  C   UNK N   1      26.948  15.751   5.285  0.00  0.00     0.019 A 
HETATM   10  C   UNK N   1      26.753  16.640   4.196  0.00  0.00     0.034 A 
HETATM   11  C   UNK N   1      27.855  17.062   3.425  0.00  0.00     0.049 A 
ENDROOT
BRANCH   1  12
HETATM   12  C   UNK N   1      32.638  16.361   3.958  0.00  0.00     0.196 C 
BRANCH  12  13
HETATM   13  N   UNK N   1      33.114  17.392   4.816  0.00  0.00    -0.383 N 
HETATM   14  H   UNK N   1      32.972  18.327   4.544  0.00  0.00     0.160 HD
BRANCH  13  15
HETATM   15  C   UNK N   1      33.775  17.146   6.023  0.00  0.00     0.028 C 
HETATM   16  C   UNK N   1      33.464  17.965   7.098  0.00  0.00     0.030 C 
HETATM   17  C   UNK N   1      33.701  17.519   8.380  0.00  0.00     0.017 C 
HETATM   18  C   UNK N   1      34.238  16.249   8.580  0.00  0.00     0.008 C 
HETATM   19  C   UNK N   1      34.776  15.539   7.498  0.00  0.00     0.017 C 
HETATM   20  C   UNK N   1      34.534  15.987   6.203  0.00  0.00     0.030 C 
BRANCH  18  21
HETATM   21  C   UNK N   1      33.638  15.534   9.723  0.00  0.00     0.113 C 
HETATM   22  N   UNK N   1      34.296  15.386  10.850  0.00  0.00    -0.288 N 
HETATM   23  C   UNK N   1      35.424  16.026  11.323  0.00  0.00     0.366 C 
ATOM     24  HN  UNK N   1      33.911  14.682  11.480  1.00  0.00     0.172 HD
HETATM   25  O   UNK N   1      35.842  17.053  10.825  0.00  0.00    -0.238 OA
BRANCH  23  26
HETATM   26  O   UNK N   1      36.091  15.505  12.383  0.00  0.00    -0.304 OA
BRANCH  26  27
HETATM   27  C   UNK N   1      36.131  14.143  12.660  0.00  0.00     0.180 C 
BRANCH  27  28
HETATM   28  C   UNK N   1      36.252  13.843  14.159  0.00  0.00     0.027 C 
BRANCH  28  29
HETATM   29  C   UNK N   1      35.342  12.700  14.585  0.00  0.00     0.002 C 
BRANCH  29  30
HETATM   30  C   UNK N   1      34.574  13.042  15.847  0.00  0.00    -0.000 C 
BRANCH  30  31
HETATM   31  C   UNK N   1      35.375  12.693  17.084  0.00  0.00    -0.005 C 
HETATM   32  C   UNK N   1      35.178  13.775  18.123  0.00  0.00     0.005 C 
ENDBRANCH  30  31
ENDBRANCH  29  30
ENDBRANCH  28  29
ENDBRANCH  27  28
ENDBRANCH  26  27
ENDBRANCH  23  26
BRANCH  21  33
HETATM   33  N   UNK N   1      32.642  14.577   9.428  0.00  0.00    -0.385 N 
HETATM   34  H   UNK N   1      32.665  13.684   9.841  0.00  0.00     0.157 HD
HETATM   35  H   UNK N   1      31.918  14.806   8.801  0.00  0.00     0.157 HD
ENDBRANCH  21  33
ENDBRANCH  18  21
ENDBRANCH  13  15
ENDBRANCH  12  13
ENDBRANCH   1  12
BRANCH  10  36
HETATM   36  C   UNK N   1      25.381  17.041   3.851  0.00  0.00     0.259 C 
HETATM   37  O   UNK N   1      24.676  16.236   3.255  0.00  0.00    -0.267 OA
HETATM   38  N   UNK N   1      24.854  18.243   4.278  0.00  0.00    -0.299 N 
BRANCH  38  39
HETATM   39  C   UNK N   1      23.425  18.430   4.285  0.00  0.00     0.144 C 
BRANCH  39  40
HETATM   40  C   UNK N   1      22.991  19.527   3.328  0.00  0.00     0.131 C 
BRANCH  40  41
HETATM   41  C   UNK N   1      21.496  19.524   3.285  0.00  0.00     0.260 C 
HETATM   42  O   UNK N   1      20.875  19.917   4.260  0.00  0.00    -0.265 OA
BRANCH  41  43
HETATM   43  O   UNK N   1      20.821  19.142   2.172  0.00  0.00    -0.322 OA
BRANCH  43  44
HETATM   44  C   UNK N   1      19.989  18.043   2.149  0.00  0.00     0.174 C 
HETATM   45  C   UNK N   1      20.134  17.312   0.828  0.00  0.00     0.034 C 
ENDBRANCH  43  44
ENDBRANCH  41  43
ENDBRANCH  40  41
ENDBRANCH  39  40
ENDBRANCH  38  39
BRANCH  38  46
HETATM   46  C   UNK N   1      25.672  19.313   4.782  0.00  0.00     0.110 A 
HETATM   47  C   UNK N   1      26.566  19.998   3.931  0.00  0.00     0.049 A 
HETATM   48  C   UNK N   1      27.404  20.981   4.452  0.00  0.00     0.005 A 
HETATM   49  C   UNK N   1      27.350  21.282   5.810  0.00  0.00     0.017 A 
HETATM   50  C   UNK N   1      26.427  20.615   6.622  0.00  0.00     0.089 A 
HETATM   51  N   UNK N   1      25.607  19.663   6.097  0.00  0.00    -0.352 N 
ATOM     52  HN  UNK N   1      24.927  19.203   6.702  1.00  0.00     0.166 HD
ENDBRANCH  38  46
ENDBRANCH  10  36
TORSDOF 18
ENDMDL
MODEL 2
REMARK VINA RESULT:      -8.0      1.902      3.221
REMARK  18 active torsions:
REMARK  status: ('A' for Active; 'I' for Inactive)
REMARK    1  A    between atoms: C_2  and  C_3 
REMARK    2  A    between atoms: C_3  and  C_4 
REMARK    3  A    between atoms: C_4  and  C_5 
REMARK    4  A    between atoms: C_5  and  C_6 
REMARK    5  A    between atoms: C_6  and  O_7 
REMARK    6  A    between atoms: O_7  and  C_8 
REMARK       I    between atoms: N_10  and  C_8 
REMARK    7  A    between atoms: C_12  and  C_13 
REMARK    8  A    between atoms: C_12  and  N_49 
REMARK    9  A    between atoms: C_16  and  N_19 
REMARK   10  A    between atoms: N_19  and  C_20 
REMARK   11  A    between atoms: C_20  and  C_21 
REMARK   12  A    between atoms: C_30  and  C_32 
REMARK       I    between atoms: C_32  and  N_34 
REMARK   13  A    between atoms: N_34  and  C_35 
REMARK   14  A    between atoms: N_34  and  C_42 
REMARK   15  A    between atoms: C_35  and  C_36 
REMARK   16  A    between atoms: C_36  and  C_37 
REMARK   17  A    between atoms: C_37  and  O_39 
REMARK   18  A    between atoms: O_39  and  C_40 
ROOT
HETATM    1  C   UNK N   1      32.272  17.277   6.834  0.00  0.00     0.102 A 
HETATM    2  N   UNK N   1      31.056  17.068   7.400  0.00  0.00    -0.343 N 
ATOM      3  HN  UNK N   1      30.811  17.073   8.390  1.00  0.00     0.167 HD
HETATM    4  C   UNK N   1      30.254  16.853   6.347  0.00  0.00     0.061 A 
HETATM    5  C   UNK N   1      30.970  16.938   5.190  0.00  0.00     0.062 A 
HETATM    6  N   UNK N   1      32.230  17.198   5.472  0.00  0.00    -0.338 N 
HETATM    7  C   UNK N   1      33.271  17.335   4.454  0.00  0.00     0.158 C 
HETATM    8  C   UNK N   1      30.422  16.768   3.944  0.00  0.00     0.033 A 
HETATM    9  C   UNK N   1      29.075  16.472   3.902  0.00  0.00     0.019 A 
HETATM   10  C   UNK N   1      28.310  16.314   5.088  0.00  0.00     0.034 A 
HETATM   11  C   UNK N   1      28.900  16.554   6.345  0.00  0.00     0.049 A 
ENDROOT
BRANCH   1  12
HETATM   12  C   UNK N   1      33.484  17.541   7.635  0.00  0.00     0.196 C 
BRANCH  12  13
HETATM   13  N   UNK N   1      34.078  16.277   7.908  0.00  0.00    -0.383 N 
HETATM   14  H   UNK N   1      34.345  15.713   7.147  0.00  0.00     0.160 HD
BRANCH  13  15
HETATM   15  C   UNK N   1      34.301  15.794   9.201  0.00  0.00     0.028 C 
HETATM   16  C   UNK N   1      34.086  14.442   9.422  0.00  0.00     0.030 C 
HETATM   17  C   UNK N   1      34.703  13.823  10.488  0.00  0.00     0.017 C 
HETATM   18  C   UNK N   1      35.541  14.561  11.322  0.00  0.00     0.008 C 
HETATM   19  C   UNK N   1      35.552  15.960  11.242  0.00  0.00     0.017 C 
HETATM   20  C   UNK N   1      34.933  16.585  10.164  0.00  0.00     0.030 C 
BRANCH  18  21
HETATM   21  C   UNK N   1      36.750  13.822  11.735  0.00  0.00     0.113 C 
HETATM   22  N   UNK N   1      36.946  13.492  12.991  0.00  0.00    -0.288 N 
HETATM   23  C   UNK N   1      36.072  13.463  14.059  0.00  0.00     0.366 C 
ATOM     24  HN  UNK N   1      37.900  13.211  13.215  1.00  0.00     0.172 HD
HETATM   25  O   UNK N   1      34.867  13.510  13.910  0.00  0.00    -0.238 OA
BRANCH  23  26
HETATM   26  O   UNK N   1      36.563  13.369  15.321  0.00  0.00    -0.304 OA
BRANCH  26  27
HETATM   27  C   UNK N   1      35.887  12.726  16.352  0.00  0.00     0.180 C 
BRANCH  27  28
HETATM   28  C   UNK N   1      35.260  13.703  17.353  0.00  0.00     0.027 C 
BRANCH  28  29
HETATM   29  C   UNK N   1      35.143  13.095  18.744  0.00  0.00     0.002 C 
BRANCH  29  30
HETATM   30  C   UNK N   1      35.317  11.590  18.708  0.00  0.00    -0.000 C 
BRANCH  30  31
HETATM   31  C   UNK N   1      36.017  11.092  19.956  0.00  0.00    -0.005 C 
HETATM   32  C   UNK N   1      36.873   9.896  19.601  0.00  0.00     0.005 C 
ENDBRANCH  30  31
ENDBRANCH  29  30
ENDBRANCH  28  29
ENDBRANCH  27  28
ENDBRANCH  26  27
ENDBRANCH  23  26
BRANCH  21  33
HETATM   33  N   UNK N   1      37.895  13.963  10.920  0.00  0.00    -0.385 N 
HETATM   34  H   UNK N   1      38.306  14.846  10.777  0.00  0.00     0.157 HD
HETATM   35  H   UNK N   1      38.286  13.168  10.489  0.00  0.00     0.157 HD
ENDBRANCH  21  33
ENDBRANCH  18  21
ENDBRANCH  13  15
ENDBRANCH  12  13
ENDBRANCH   1  12
BRANCH  10  36
HETATM   36  C   UNK N   1      26.885  15.972   4.964  0.00  0.00     0.259 C 
HETATM   37  O   UNK N   1      26.581  14.789   4.867  0.00  0.00    -0.267 OA
HETATM   38  N   UNK N   1      25.902  16.935   5.064  0.00  0.00    -0.299 N 
BRANCH  38  39
HETATM   39  C   UNK N   1      24.546  16.540   5.347  0.00  0.00     0.144 C 
BRANCH  39  40
HETATM   40  C   UNK N   1      23.593  16.942   4.234  0.00  0.00     0.131 C 
BRANCH  40  41
HETATM   41  C   UNK N   1      22.576  17.868   4.822  0.00  0.00     0.260 C 
HETATM   42  O   UNK N   1      22.371  17.835   6.025  0.00  0.00    -0.265 OA
BRANCH  41  43
HETATM   43  O   UNK N   1      21.914  18.771   4.056  0.00  0.00    -0.322 OA
BRANCH  43  44
HETATM   44  C   UNK N   1      20.857  18.422   3.243  0.00  0.00     0.174 C 
HETATM   45  C   UNK N   1      20.137  19.669   2.769  0.00  0.00     0.034 C 
ENDBRANCH  43  44
ENDBRANCH  41  43
ENDBRANCH  40  41
ENDBRANCH  39  40
ENDBRANCH  38  39
BRANCH  38  46
HETATM   46  C   UNK N   1      26.182  18.342   4.959  0.00  0.00     0.110 A 
HETATM   47  C   UNK N   1      26.329  18.955   3.697  0.00  0.00     0.049 A 
HETATM   48  C   UNK N   1      26.675  20.302   3.615  0.00  0.00     0.005 A 
HETATM   49  C   UNK N   1      26.868  21.034   4.783  0.00  0.00     0.017 A 
HETATM   50  C   UNK N   1      26.676  20.412   6.021  0.00  0.00     0.089 A 
HETATM   51  N   UNK N   1      26.329  19.096   6.085  0.00  0.00    -0.352 N 
ATOM     52  HN  UNK N   1      26.174  18.665   6.996  1.00  0.00     0.166 HD
ENDBRANCH  38  46
ENDBRANCH  10  36
TORSDOF 18
ENDMDL
MODEL 3
REMARK VINA RESULT:      -7.9      2.079     13.553
REMARK  18 active torsions:
REMARK  status: ('A' for Active; 'I' for Inactive)
REMARK    1  A    between atoms: C_2  and  C_3 
REMARK    2  A    between atoms: C_3  and  C_4 
REMARK    3  A    between atoms: C_4  and  C_5 
REMARK    4  A    between atoms: C_5  and  C_6 
REMARK    5  A    between atoms: C_6  and  O_7 
REMARK    6  A    between atoms: O_7  and  C_8 
REMARK       I    between atoms: N_10  and  C_8 
REMARK    7  A    between atoms: C_12  and  C_13 
REMARK    8  A    between atoms: C_12  and  N_49 
REMARK    9  A    between atoms: C_16  and  N_19 
REMARK   10  A    between atoms: N_19  and  C_20 
REMARK   11  A    between atoms: C_20  and  C_21 
REMARK   12  A    between atoms: C_30  and  C_32 
REMARK       I    between atoms: C_32  and  N_34 
REMARK   13  A    between atoms: N_34  and  C_35 
REMARK   14  A    between atoms: N_34  and  C_42 
REMARK   15  A    between atoms: C_35  and  C_36 
REMARK   16  A    between atoms: C_36  and  C_37 
REMARK   17  A    between atoms: C_37  and  O_39 
REMARK   18  A    between atoms: O_39  and  C_40 
ROOT
HETATM    1  C   UNK N   1      30.872  16.918   6.243  0.00  0.00     0.102 A 
HETATM    2  N   UNK N   1      30.886  16.561   7.553  0.00  0.00    -0.343 N 
ATOM      3  HN  UNK N   1      30.092  16.359   8.161  1.00  0.00     0.167 HD
HETATM    4  C   UNK N   1      32.191  16.538   7.856  0.00  0.00     0.061 A 
HETATM    5  C   UNK N   1      32.932  16.864   6.759  0.00  0.00     0.062 A 
HETATM    6  N   UNK N   1      32.128  17.108   5.745  0.00  0.00    -0.338 N 
HETATM    7  C   UNK N   1      32.603  17.505   4.419  0.00  0.00     0.158 C 
HETATM    8  C   UNK N   1      34.303  16.921   6.757  0.00  0.00     0.033 A 
HETATM    9  C   UNK N   1      34.928  16.651   7.957  0.00  0.00     0.019 A 
HETATM   10  C   UNK N   1      34.189  16.368   9.136  0.00  0.00     0.034 A 
HETATM   11  C   UNK N   1      32.785  16.263   9.079  0.00  0.00     0.049 A 
ENDROOT
BRANCH   1  12
HETATM   12  C   UNK N   1      29.619  17.088   5.481  0.00  0.00     0.196 C 
BRANCH  12  13
HETATM   13  N   UNK N   1      29.104  18.371   5.819  0.00  0.00    -0.383 N 
HETATM   14  H   UNK N   1      29.537  18.869   6.549  0.00  0.00     0.160 HD
BRANCH  13  15
HETATM   15  C   UNK N   1      28.017  18.960   5.168  0.00  0.00     0.028 C 
HETATM   16  C   UNK N   1      27.611  18.396   3.968  0.00  0.00     0.030 C 
HETATM   17  C   UNK N   1      26.324  18.606   3.521  0.00  0.00     0.017 C 
HETATM   18  C   UNK N   1      25.446  19.372   4.285  0.00  0.00     0.008 C 
HETATM   19  C   UNK N   1      25.932  20.135   5.355  0.00  0.00     0.017 C 
HETATM   20  C   UNK N   1      27.230  19.921   5.808  0.00  0.00     0.030 C 
BRANCH  18  21
HETATM   21  C   UNK N   1      24.073  18.832   4.311  0.00  0.00     0.113 C 
HETATM   22  N   UNK N   1      23.075  19.492   3.765  0.00  0.00    -0.288 N 
HETATM   23  C   UNK N   1      23.076  20.549   2.878  0.00  0.00     0.366 C 
ATOM     24  HN  UNK N   1      22.148  19.170   4.043  1.00  0.00     0.172 HD
HETATM   25  O   UNK N   1      24.070  20.871   2.256  0.00  0.00    -0.238 OA
BRANCH  23  26
HETATM   26  O   UNK N   1      21.934  21.253   2.678  0.00  0.00    -0.304 OA
BRANCH  26  27
HETATM   27  C   UNK N   1      20.669  20.680   2.742  0.00  0.00     0.180 C 
BRANCH  27  28
HETATM   28  C   UNK N   1      20.320  19.867   1.489  0.00  0.00     0.027 C 
BRANCH  28  29
HETATM   29  C   UNK N   1      20.328  18.369   1.762  0.00  0.00     0.002 C 
BRANCH  29  30
HETATM   30  C   UNK N   1      19.836  18.059   3.162  0.00  0.00    -0.000 C 
BRANCH  30  31
HETATM   31  C   UNK N   1      20.104  16.612   3.525  0.00  0.00    -0.005 C 
HETATM   32  C   UNK N   1      19.218  16.221   4.687  0.00  0.00     0.005 C 
ENDBRANCH  30  31
ENDBRANCH  29  30
ENDBRANCH  28  29
ENDBRANCH  27  28
ENDBRANCH  26  27
ENDBRANCH  23  26
BRANCH  21  33
HETATM   33  N   UNK N   1      23.756  17.936   5.355  0.00  0.00    -0.385 N 
HETATM   34  H   UNK N   1      23.226  17.125   5.179  0.00  0.00     0.157 HD
HETATM   35  H   UNK N   1      24.070  18.124   6.269  0.00  0.00     0.157 HD
ENDBRANCH  21  33
ENDBRANCH  18  21
ENDBRANCH  13  15
ENDBRANCH  12  13
ENDBRANCH   1  12
BRANCH  10  36
HETATM   36  C   UNK N   1      34.925  16.116  10.385  0.00  0.00     0.259 C 
HETATM   37  O   UNK N   1      35.274  17.081  11.054  0.00  0.00    -0.267 OA
HETATM   38  N   UNK N   1      35.127  14.835  10.855  0.00  0.00    -0.299 N 
BRANCH  38  39
HETATM   39  C   UNK N   1      35.474  14.633  12.239  0.00  0.00     0.144 C 
BRANCH  39  40
HETATM   40  C   UNK N   1      36.107  13.272  12.473  0.00  0.00     0.131 C 
BRANCH  40  41
HETATM   41  C   UNK N   1      35.188  12.491  13.357  0.00  0.00     0.260 C 
HETATM   42  O   UNK N   1      34.780  11.406  12.976  0.00  0.00    -0.265 OA
BRANCH  41  43
HETATM   43  O   UNK N   1      34.839  12.941  14.589  0.00  0.00    -0.322 OA
BRANCH  43  44
HETATM   44  C   UNK N   1      35.551  12.623  15.725  0.00  0.00     0.174 C 
HETATM   45  C   UNK N   1      34.880  13.228  16.942  0.00  0.00     0.034 C 
ENDBRANCH  43  44
ENDBRANCH  41  43
ENDBRANCH  40  41
ENDBRANCH  39  40
ENDBRANCH  38  39
BRANCH  38  46
HETATM   46  C   UNK N   1      34.945  13.669  10.032  0.00  0.00     0.110 A 
HETATM   47  C   UNK N   1      35.905  13.317   9.060  0.00  0.00     0.049 A 
HETATM   48  C   UNK N   1      35.676  12.229   8.221  0.00  0.00     0.005 A 
HETATM   49  C   UNK N   1      34.501  11.494   8.353  0.00  0.00     0.017 A 
HETATM   50  C   UNK N   1      33.586  11.841   9.352  0.00  0.00     0.089 A 
HETATM   51  N   UNK N   1      33.828  12.902  10.171  0.00  0.00    -0.352 N 
ATOM     52  HN  UNK N   1      33.157  13.127  10.906  1.00  0.00     0.166 HD
ENDBRANCH  38  46
ENDBRANCH  10  36
TORSDOF 18
ENDMDL
MODEL 4
REMARK VINA RESULT:      -7.8      1.846      2.996
REMARK  18 active torsions:
REMARK  status: ('A' for Active; 'I' for Inactive)
REMARK    1  A    between atoms: C_2  and  C_3 
REMARK    2  A    between atoms: C_3  and  C_4 
REMARK    3  A    between atoms: C_4  and  C_5 
REMARK    4  A    between atoms: C_5  and  C_6 
REMARK    5  A    between atoms: C_6  and  O_7 
REMARK    6  A    between atoms: O_7  and  C_8 
REMARK       I    between atoms: N_10  and  C_8 
REMARK    7  A    between atoms: C_12  and  C_13 
REMARK    8  A    between atoms: C_12  and  N_49 
REMARK    9  A    between atoms: C_16  and  N_19 
REMARK   10  A    between atoms: N_19  and  C_20 
REMARK   11  A    between atoms: C_20  and  C_21 
REMARK   12  A    between atoms: C_30  and  C_32 
REMARK       I    between atoms: C_32  and  N_34 
REMARK   13  A    between atoms: N_34  and  C_35 
REMARK   14  A    between atoms: N_34  and  C_42 
REMARK   15  A    between atoms: C_35  and  C_36 
REMARK   16  A    between atoms: C_36  and  C_37 
REMARK   17  A    between atoms: C_37  and  O_39 
REMARK   18  A    between atoms: O_39  and  C_40 
ROOT
HETATM    1  C   UNK N   1      32.322  15.872   5.752  0.00  0.00     0.102 A 
HETATM    2  N   UNK N   1      31.153  15.633   6.400  0.00  0.00    -0.343 N 
ATOM      3  HN  UNK N   1      31.013  15.381   7.379  1.00  0.00     0.167 HD
HETATM    4  C   UNK N   1      30.226  15.807   5.448  0.00  0.00     0.061 A 
HETATM    5  C   UNK N   1      30.824  16.145   4.270  0.00  0.00     0.062 A 
HETATM    6  N   UNK N   1      32.129  16.188   4.438  0.00  0.00    -0.338 N 
HETATM    7  C   UNK N   1      33.069  16.504   3.363  0.00  0.00     0.158 C 
HETATM    8  C   UNK N   1      30.133  16.392   3.111  0.00  0.00     0.033 A 
HETATM    9  C   UNK N   1      28.762  16.255   3.174  0.00  0.00     0.019 A 
HETATM   10  C   UNK N   1      28.108  15.844   4.366  0.00  0.00     0.034 A 
HETATM   11  C   UNK N   1      28.851  15.657   5.549  0.00  0.00     0.049 A 
ENDROOT
BRANCH   1  12
HETATM   12  C   UNK N   1      33.634  15.775   6.422  0.00  0.00     0.196 C 
BRANCH  12  13
HETATM   13  N   UNK N   1      33.567  16.607   7.575  0.00  0.00    -0.383 N 
HETATM   14  H   UNK N   1      33.237  17.528   7.466  0.00  0.00     0.160 HD
BRANCH  13  15
HETATM   15  C   UNK N   1      33.946  16.185   8.852  0.00  0.00     0.028 C 
HETATM   16  C   UNK N   1      33.747  14.849   9.167  0.00  0.00     0.030 C 
HETATM   17  C   UNK N   1      34.486  14.273  10.177  0.00  0.00     0.017 C 
HETATM   18  C   UNK N   1      35.432  15.036  10.860  0.00  0.00     0.008 C 
HETATM   19  C   UNK N   1      35.449  16.429  10.707  0.00  0.00     0.017 C 
HETATM   20  C   UNK N   1      34.705  17.010   9.686  0.00  0.00     0.030 C 
BRANCH  18  21
HETATM   21  C   UNK N   1      36.675  14.297  11.153  0.00  0.00     0.113 C 
HETATM   22  N   UNK N   1      36.932  13.859  12.365  0.00  0.00    -0.288 N 
HETATM   23  C   UNK N   1      36.105  13.707  13.460  0.00  0.00     0.366 C 
ATOM     24  HN  UNK N   1      37.902  13.586  12.523  1.00  0.00     0.172 HD
HETATM   25  O   UNK N   1      34.894  13.734  13.364  0.00  0.00    -0.238 OA
BRANCH  23  26
HETATM   26  O   UNK N   1      36.651  13.512  14.686  0.00  0.00    -0.304 OA
BRANCH  26  27
HETATM   27  C   UNK N   1      35.973  12.890  15.729  0.00  0.00     0.180 C 
BRANCH  27  28
HETATM   28  C   UNK N   1      36.010  11.360  15.635  0.00  0.00     0.027 C 
BRANCH  28  29
HETATM   29  C   UNK N   1      34.642  10.741  15.889  0.00  0.00     0.002 C 
BRANCH  29  30
HETATM   30  C   UNK N   1      33.810  10.695  14.623  0.00  0.00    -0.000 C 
BRANCH  30  31
HETATM   31  C   UNK N   1      34.643  10.245  13.440  0.00  0.00    -0.005 C 
HETATM   32  C   UNK N   1      33.744  10.083  12.235  0.00  0.00     0.005 C 
ENDBRANCH  30  31
ENDBRANCH  29  30
ENDBRANCH  28  29
ENDBRANCH  27  28
ENDBRANCH  26  27
ENDBRANCH  23  26
BRANCH  21  33
HETATM   33  N   UNK N   1      37.781  14.544  10.310  0.00  0.00    -0.385 N 
HETATM   34  H   UNK N   1      37.716  14.396   9.339  0.00  0.00     0.157 HD
HETATM   35  H   UNK N   1      38.626  14.867  10.698  0.00  0.00     0.157 HD
ENDBRANCH  21  33
ENDBRANCH  18  21
ENDBRANCH  13  15
ENDBRANCH  12  13
ENDBRANCH   1  12
BRANCH  10  36
HETATM   36  C   UNK N   1      26.645  15.694   4.349  0.00  0.00     0.259 C 
HETATM   37  O   UNK N   1      26.179  14.595   4.074  0.00  0.00    -0.267 OA
HETATM   38  N   UNK N   1      25.812  16.724   4.737  0.00  0.00    -0.299 N 
BRANCH  38  39
HETATM   39  C   UNK N   1      24.448  16.435   5.099  0.00  0.00     0.144 C 
BRANCH  39  40
HETATM   40  C   UNK N   1      23.490  16.677   3.945  0.00  0.00     0.131 C 
BRANCH  40  41
HETATM   41  C   UNK N   1      22.268  17.337   4.501  0.00  0.00     0.260 C 
HETATM   42  O   UNK N   1      22.395  18.346   5.175  0.00  0.00    -0.265 OA
BRANCH  41  43
HETATM   43  O   UNK N   1      21.025  16.864   4.232  0.00  0.00    -0.322 OA
BRANCH  43  44
HETATM   44  C   UNK N   1      20.063  17.623   3.602  0.00  0.00     0.174 C 
HETATM   45  C   UNK N   1      20.322  17.650   2.108  0.00  0.00     0.034 C 
ENDBRANCH  43  44
ENDBRANCH  41  43
ENDBRANCH  40  41
ENDBRANCH  39  40
ENDBRANCH  38  39
BRANCH  38  46
HETATM   46  C   UNK N   1      26.265  18.084   4.858  0.00  0.00     0.110 A 
HETATM   47  C   UNK N   1      26.288  18.937   3.735  0.00  0.00     0.049 A 
HETATM   48  C   UNK N   1      26.799  20.227   3.854  0.00  0.00     0.005 A 
HETATM   49  C   UNK N   1      27.281  20.665   5.085  0.00  0.00     0.017 A 
HETATM   50  C   UNK N   1      27.209  19.812   6.190  0.00  0.00     0.089 A 
HETATM   51  N   UNK N   1      26.697  18.556   6.060  0.00  0.00    -0.352 N 
ATOM     52  HN  UNK N   1      26.635  17.956   6.883  1.00  0.00     0.166 HD
ENDBRANCH  38  46
ENDBRANCH  10  36
TORSDOF 18
ENDMDL
MODEL 5
REMARK VINA RESULT:      -7.7      1.735      2.647
REMARK  18 active torsions:
REMARK  status: ('A' for Active; 'I' for Inactive)
REMARK    1  A    between atoms: C_2  and  C_3 
REMARK    2  A    between atoms: C_3  and  C_4 
REMARK    3  A    between atoms: C_4  and  C_5 
REMARK    4  A    between atoms: C_5  and  C_6 
REMARK    5  A    between atoms: C_6  and  O_7 
REMARK    6  A    between atoms: O_7  and  C_8 
REMARK       I    between atoms: N_10  and  C_8 
REMARK    7  A    between atoms: C_12  and  C_13 
REMARK    8  A    between atoms: C_12  and  N_49 
REMARK    9  A    between atoms: C_16  and  N_19 
REMARK   10  A    between atoms: N_19  and  C_20 
REMARK   11  A    between atoms: C_20  and  C_21 
REMARK   12  A    between atoms: C_30  and  C_32 
REMARK       I    between atoms: C_32  and  N_34 
REMARK   13  A    between atoms: N_34  and  C_35 
REMARK   14  A    between atoms: N_34  and  C_42 
REMARK   15  A    between atoms: C_35  and  C_36 
REMARK   16  A    between atoms: C_36  and  C_37 
REMARK   17  A    between atoms: C_37  and  O_39 
REMARK   18  A    between atoms: O_39  and  C_40 
ROOT
HETATM    1  C   UNK N   1      31.464  17.040   4.934  0.00  0.00     0.102 A 
HETATM    2  N   UNK N   1      30.696  17.945   4.275  0.00  0.00    -0.343 N 
ATOM      3  HN  UNK N   1      30.975  18.593   3.538  1.00  0.00     0.167 HD
HETATM    4  C   UNK N   1      29.484  17.785   4.824  0.00  0.00     0.061 A 
HETATM    5  C   UNK N   1      29.527  16.809   5.776  0.00  0.00     0.062 A 
HETATM    6  N   UNK N   1      30.752  16.335   5.861  0.00  0.00    -0.338 N 
HETATM    7  C   UNK N   1      31.145  15.286   6.802  0.00  0.00     0.158 C 
HETATM    8  C   UNK N   1      28.437  16.416   6.510  0.00  0.00     0.033 A 
HETATM    9  C   UNK N   1      27.256  17.085   6.259  0.00  0.00     0.019 A 
HETATM   10  C   UNK N   1      27.186  18.148   5.321  0.00  0.00     0.034 A 
HETATM   11  C   UNK N   1      28.316  18.480   4.547  0.00  0.00     0.049 A 
ENDROOT
BRANCH   1  12
HETATM   12  C   UNK N   1      32.906  16.876   4.662  0.00  0.00     0.196 C 
BRANCH  12  13
HETATM   13  N   UNK N   1      33.597  17.640   5.643  0.00  0.00    -0.383 N 
HETATM   14  H   UNK N   1      33.665  18.613   5.514  0.00  0.00     0.160 HD
BRANCH  13  15
HETATM   15  C   UNK N   1      34.186  17.080   6.780  0.00  0.00     0.028 C 
HETATM   16  C   UNK N   1      34.166  17.832   7.945  0.00  0.00     0.030 C 
HETATM   17  C   UNK N   1      34.293  17.200   9.163  0.00  0.00     0.017 C 
HETATM   18  C   UNK N   1      34.429  15.814   9.209  0.00  0.00     0.008 C 
HETATM   19  C   UNK N   1      34.699  15.099   8.034  0.00  0.00     0.017 C 
HETATM   20  C   UNK N   1      34.567  15.735   6.805  0.00  0.00     0.030 C 
BRANCH  18  21
HETATM   21  C   UNK N   1      33.674  15.190  10.312  0.00  0.00     0.113 C 
HETATM   22  N   UNK N   1      34.267  14.395  11.174  0.00  0.00    -0.288 N 
HETATM   23  C   UNK N   1      35.607  14.201  11.443  0.00  0.00     0.366 C 
ATOM     24  HN  UNK N   1      33.633  13.828  11.737  1.00  0.00     0.172 HD
HETATM   25  O   UNK N   1      36.462  14.973  11.058  0.00  0.00    -0.238 OA
BRANCH  23  26
HETATM   26  O   UNK N   1      35.991  13.121  12.169  0.00  0.00    -0.304 OA
BRANCH  26  27
HETATM   27  C   UNK N   1      35.114  12.112  12.551  0.00  0.00     0.180 C 
BRANCH  27  28
HETATM   28  C   UNK N   1      34.733  12.186  14.035  0.00  0.00     0.027 C 
BRANCH  28  29
HETATM   29  C   UNK N   1      33.877  11.001  14.461  0.00  0.00     0.002 C 
BRANCH  29  30
HETATM   30  C   UNK N   1      34.517  10.235  15.602  0.00  0.00    -0.000 C 
BRANCH  30  31
HETATM   31  C   UNK N   1      35.491  11.109  16.366  0.00  0.00    -0.005 C 
HETATM   32  C   UNK N   1      35.529  10.661  17.811  0.00  0.00     0.005 C 
ENDBRANCH  30  31
ENDBRANCH  29  30
ENDBRANCH  28  29
ENDBRANCH  27  28
ENDBRANCH  26  27
ENDBRANCH  23  26
BRANCH  21  33
HETATM   33  N   UNK N   1      32.287  15.006  10.115  0.00  0.00    -0.385 N 
HETATM   34  H   UNK N   1      31.633  15.423  10.721  0.00  0.00     0.157 HD
HETATM   35  H   UNK N   1      31.972  14.455   9.363  0.00  0.00     0.157 HD
ENDBRANCH  21  33
ENDBRANCH  18  21
ENDBRANCH  13  15
ENDBRANCH  12  13
ENDBRANCH   1  12
BRANCH  10  36
HETATM   36  C   UNK N   1      25.898  18.832   5.128  0.00  0.00     0.259 C 
HETATM   37  O   UNK N   1      25.775  19.967   5.572  0.00  0.00    -0.267 OA
HETATM   38  N   UNK N   1      24.889  18.266   4.376  0.00  0.00    -0.299 N 
BRANCH  38  39
HETATM   39  C   UNK N   1      23.828  19.100   3.870  0.00  0.00     0.144 C 
BRANCH  39  40
HETATM   40  C   UNK N   1      22.542  18.320   3.665  0.00  0.00     0.131 C 
BRANCH  40  41
HETATM   41  C   UNK N   1      21.413  19.170   4.158  0.00  0.00     0.260 C 
HETATM   42  O   UNK N   1      21.300  19.365   5.357  0.00  0.00    -0.265 OA
BRANCH  41  43
HETATM   43  O   UNK N   1      20.547  19.763   3.299  0.00  0.00    -0.322 OA
BRANCH  43  44
HETATM   44  C   UNK N   1      20.904  20.831   2.504  0.00  0.00     0.174 C 
HETATM   45  C   UNK N   1      20.933  20.405   1.049  0.00  0.00     0.034 C 
ENDBRANCH  43  44
ENDBRANCH  41  43
ENDBRANCH  40  41
ENDBRANCH  39  40
ENDBRANCH  38  39
BRANCH  38  46
HETATM   46  C   UNK N   1      24.877  16.873   4.017  0.00  0.00     0.110 A 
HETATM   47  C   UNK N   1      25.512  16.429   2.838  0.00  0.00     0.049 A 
HETATM   48  C   UNK N   1      25.427  15.089   2.467  0.00  0.00     0.005 A 
HETATM   49  C   UNK N   1      24.718  14.198   3.268  0.00  0.00     0.017 A 
HETATM   50  C   UNK N   1      24.133  14.658   4.452  0.00  0.00     0.089 A 
HETATM   51  N   UNK N   1      24.233  15.969   4.806  0.00  0.00    -0.352 N 
ATOM     52  HN  UNK N   1      23.816  16.281   5.684  1.00  0.00     0.166 HD
ENDBRANCH  38  46
ENDBRANCH  10  36
TORSDOF 18
ENDMDL
MODEL 6
REMARK VINA RESULT:      -7.6      2.291      3.582
REMARK  18 active torsions:
REMARK  status: ('A' for Active; 'I' for Inactive)
REMARK    1  A    between atoms: C_2  and  C_3 
REMARK    2  A    between atoms: C_3  and  C_4 
REMARK    3  A    between atoms: C_4  and  C_5 
REMARK    4  A    between atoms: C_5  and  C_6 
REMARK    5  A    between atoms: C_6  and  O_7 
REMARK    6  A    between atoms: O_7  and  C_8 
REMARK       I    between atoms: N_10  and  C_8 
REMARK    7  A    between atoms: C_12  and  C_13 
REMARK    8  A    between atoms: C_12  and  N_49 
REMARK    9  A    between atoms: C_16  and  N_19 
REMARK   10  A    between atoms: N_19  and  C_20 
REMARK   11  A    between atoms: C_20  and  C_21 
REMARK   12  A    between atoms: C_30  and  C_32 
REMARK       I    between atoms: C_32  and  N_34 
REMARK   13  A    between atoms: N_34  and  C_35 
REMARK   14  A    between atoms: N_34  and  C_42 
REMARK   15  A    between atoms: C_35  and  C_36 
REMARK   16  A    between atoms: C_36  and  C_37 
REMARK   17  A    between atoms: C_37  and  O_39 
REMARK   18  A    between atoms: O_39  and  C_40 
ROOT
HETATM    1  C   UNK N   1      32.037  17.227   6.741  0.00  0.00     0.102 A 
HETATM    2  N   UNK N   1      30.810  16.858   7.191  0.00  0.00    -0.343 N 
ATOM      3  HN  UNK N   1      30.494  16.761   8.156  1.00  0.00     0.167 HD
HETATM    4  C   UNK N   1      30.113  16.652   6.065  0.00  0.00     0.061 A 
HETATM    5  C   UNK N   1      30.899  16.897   4.978  0.00  0.00     0.062 A 
HETATM    6  N   UNK N   1      32.101  17.253   5.379  0.00  0.00    -0.338 N 
HETATM    7  C   UNK N   1      33.194  17.571   4.459  0.00  0.00     0.158 C 
HETATM    8  C   UNK N   1      30.463  16.775   3.683  0.00  0.00     0.033 A 
HETATM    9  C   UNK N   1      29.159  16.356   3.513  0.00  0.00     0.019 A 
HETATM   10  C   UNK N   1      28.330  16.031   4.618  0.00  0.00     0.034 A 
HETATM   11  C   UNK N   1      28.800  16.226   5.933  0.00  0.00     0.049 A 
ENDROOT
BRANCH   1  12
HETATM   12  C   UNK N   1      33.154  17.541   7.654  0.00  0.00     0.196 C 
BRANCH  12  13
HETATM   13  N   UNK N   1      33.830  16.316   7.911  0.00  0.00    -0.383 N 
HETATM   14  H   UNK N   1      34.091  15.758   7.144  0.00  0.00     0.160 HD
BRANCH  13  15
HETATM   15  C   UNK N   1      34.143  15.865   9.196  0.00  0.00     0.028 C 
HETATM   16  C   UNK N   1      33.895  14.530   9.481  0.00  0.00     0.030 C 
HETATM   17  C   UNK N   1      34.575  13.919  10.512  0.00  0.00     0.017 C 
HETATM   18  C   UNK N   1      35.509  14.646  11.247  0.00  0.00     0.008 C 
HETATM   19  C   UNK N   1      35.569  16.040  11.118  0.00  0.00     0.017 C 
HETATM   20  C   UNK N   1      34.885  16.657  10.076  0.00  0.00     0.030 C 
BRANCH  18  21
HETATM   21  C   UNK N   1      36.719  13.871  11.582  0.00  0.00     0.113 C 
HETATM   22  N   UNK N   1      36.960  13.491  12.817  0.00  0.00    -0.288 N 
HETATM   23  C   UNK N   1      36.130  13.439  13.919  0.00  0.00     0.366 C 
ATOM     24  HN  UNK N   1      37.917  13.184  12.990  1.00  0.00     0.172 HD
HETATM   25  O   UNK N   1      34.921  13.514  13.822  0.00  0.00    -0.238 OA
BRANCH  23  26
HETATM   26  O   UNK N   1      36.671  13.290  15.154  0.00  0.00    -0.304 OA
BRANCH  26  27
HETATM   27  C   UNK N   1      36.438  14.180  16.196  0.00  0.00     0.180 C 
BRANCH  27  28
HETATM   28  C   UNK N   1      35.317  13.718  17.135  0.00  0.00     0.027 C 
BRANCH  28  29
HETATM   29  C   UNK N   1      35.312  12.206  17.315  0.00  0.00     0.002 C 
BRANCH  29  30
HETATM   30  C   UNK N   1      35.313  11.822  18.782  0.00  0.00    -0.000 C 
BRANCH  30  31
HETATM   31  C   UNK N   1      35.888  10.435  18.982  0.00  0.00    -0.005 C 
HETATM   32  C   UNK N   1      36.427   9.928  17.663  0.00  0.00     0.005 C 
ENDBRANCH  30  31
ENDBRANCH  29  30
ENDBRANCH  28  29
ENDBRANCH  27  28
ENDBRANCH  26  27
ENDBRANCH  23  26
BRANCH  21  33
HETATM   33  N   UNK N   1      37.833  14.019  10.726  0.00  0.00    -0.385 N 
HETATM   34  H   UNK N   1      38.333  14.867  10.693  0.00  0.00     0.157 HD
HETATM   35  H   UNK N   1      38.111  13.267  10.155  0.00  0.00     0.157 HD
ENDBRANCH  21  33
ENDBRANCH  18  21
ENDBRANCH  13  15
ENDBRANCH  12  13
ENDBRANCH   1  12
BRANCH  10  36
HETATM   36  C   UNK N   1      26.960  15.564   4.357  0.00  0.00     0.259 C 
HETATM   37  O   UNK N   1      26.789  14.373   4.126  0.00  0.00    -0.267 OA
HETATM   38  N   UNK N   1      25.877  16.411   4.473  0.00  0.00    -0.299 N 
BRANCH  38  39
HETATM   39  C   UNK N   1      24.554  15.857   4.615  0.00  0.00     0.144 C 
BRANCH  39  40
HETATM   40  C   UNK N   1      24.079  15.882   6.057  0.00  0.00     0.131 C 
BRANCH  40  41
HETATM   41  C   UNK N   1      22.687  16.429   6.066  0.00  0.00     0.260 C 
HETATM   42  O   UNK N   1      22.378  17.274   5.241  0.00  0.00    -0.265 OA
BRANCH  41  43
HETATM   43  O   UNK N   1      21.753  15.972   6.937  0.00  0.00    -0.322 OA
BRANCH  43  44
HETATM   44  C   UNK N   1      20.586  16.657   7.201  0.00  0.00     0.174 C 
HETATM   45  C   UNK N   1      20.283  16.608   8.686  0.00  0.00     0.034 C 
ENDBRANCH  43  44
ENDBRANCH  41  43
ENDBRANCH  40  41
ENDBRANCH  39  40
ENDBRANCH  38  39
BRANCH  38  46
HETATM   46  C   UNK N   1      26.014  17.842   4.523  0.00  0.00     0.110 A 
HETATM   47  C   UNK N   1      25.837  18.623   3.361  0.00  0.00     0.049 A 
HETATM   48  C   UNK N   1      26.046  19.999   3.411  0.00  0.00     0.005 A 
HETATM   49  C   UNK N   1      26.426  20.593   4.612  0.00  0.00     0.017 A 
HETATM   50  C   UNK N   1      26.555  19.801   5.757  0.00  0.00     0.089 A 
HETATM   51  N   UNK N   1      26.336  18.458   5.694  0.00  0.00    -0.352 N 
ATOM     52  HN  UNK N   1      26.416  17.901   6.545  1.00  0.00     0.166 HD
ENDBRANCH  38  46
ENDBRANCH  10  36
TORSDOF 18
ENDMDL
MODEL 7
REMARK VINA RESULT:      -7.5      3.965      8.070
REMARK  18 active torsions:
REMARK  status: ('A' for Active; 'I' for Inactive)
REMARK    1  A    between atoms: C_2  and  C_3 
REMARK    2  A    between atoms: C_3  and  C_4 
REMARK    3  A    between atoms: C_4  and  C_5 
REMARK    4  A    between atoms: C_5  and  C_6 
REMARK    5  A    between atoms: C_6  and  O_7 
REMARK    6  A    between atoms: O_7  and  C_8 
REMARK       I    between atoms: N_10  and  C_8 
REMARK    7  A    between atoms: C_12  and  C_13 
REMARK    8  A    between atoms: C_12  and  N_49 
REMARK    9  A    between atoms: C_16  and  N_19 
REMARK   10  A    between atoms: N_19  and  C_20 
REMARK   11  A    between atoms: C_20  and  C_21 
REMARK   12  A    between atoms: C_30  and  C_32 
REMARK       I    between atoms: C_32  and  N_34 
REMARK   13  A    between atoms: N_34  and  C_35 
REMARK   14  A    between atoms: N_34  and  C_42 
REMARK   15  A    between atoms: C_35  and  C_36 
REMARK   16  A    between atoms: C_36  and  C_37 
REMARK   17  A    between atoms: C_37  and  O_39 
REMARK   18  A    between atoms: O_39  and  C_40 
ROOT
HETATM    1  C   UNK N   1      34.546  13.984  10.457  0.00  0.00     0.102 A 
HETATM    2  N   UNK N   1      33.333  13.805   9.874  0.00  0.00    -0.343 N 
ATOM      3  HN  UNK N   1      32.752  12.967   9.870  1.00  0.00     0.167 HD
HETATM    4  C   UNK N   1      33.082  14.992   9.304  0.00  0.00     0.061 A 
HETATM    5  C   UNK N   1      34.111  15.854   9.546  0.00  0.00     0.062 A 
HETATM    6  N   UNK N   1      35.034  15.243  10.260  0.00  0.00    -0.338 N 
HETATM    7  C   UNK N   1      36.281  15.883  10.678  0.00  0.00     0.158 C 
HETATM    8  C   UNK N   1      34.141  17.148   9.093  0.00  0.00     0.033 A 
HETATM    9  C   UNK N   1      33.063  17.556   8.334  0.00  0.00     0.019 A 
HETATM   10  C   UNK N   1      32.003  16.669   8.007  0.00  0.00     0.034 A 
HETATM   11  C   UNK N   1      31.985  15.366   8.542  0.00  0.00     0.049 A 
ENDROOT
BRANCH   1  12
HETATM   12  C   UNK N   1      35.235  12.910  11.199  0.00  0.00     0.196 C 
BRANCH  12  13
HETATM   13  N   UNK N   1      34.452  12.646  12.358  0.00  0.00    -0.383 N 
HETATM   14  H   UNK N   1      33.526  12.978  12.381  0.00  0.00     0.160 HD
BRANCH  13  15
HETATM   15  C   UNK N   1      34.931  11.940  13.465  0.00  0.00     0.028 C 
HETATM   16  C   UNK N   1      36.200  12.260  13.925  0.00  0.00     0.030 C 
HETATM   17  C   UNK N   1      36.543  11.966  15.227  0.00  0.00     0.017 C 
HETATM   18  C   UNK N   1      35.610  11.361  16.066  0.00  0.00     0.008 C 
HETATM   19  C   UNK N   1      34.434  10.820  15.529  0.00  0.00     0.017 C 
HETATM   20  C   UNK N   1      34.085  11.120  14.216  0.00  0.00     0.030 C 
BRANCH  18  21
HETATM   21  C   UNK N   1      35.632  11.893  17.442  0.00  0.00     0.113 C 
HETATM   22  N   UNK N   1      35.857  11.105  18.469  0.00  0.00    -0.288 N 
HETATM   23  C   UNK N   1      36.371   9.825  18.524  0.00  0.00     0.366 C 
ATOM     24  HN  UNK N   1      35.612  11.505  19.375  1.00  0.00     0.172 HD
HETATM   25  O   UNK N   1      36.948   9.319  17.582  0.00  0.00    -0.238 OA
BRANCH  23  26
HETATM   26  O   UNK N   1      36.242   9.103  19.665  0.00  0.00    -0.304 OA
BRANCH  26  27
HETATM   27  C   UNK N   1      35.164   8.261  19.912  0.00  0.00     0.180 C 
BRANCH  27  28
HETATM   28  C   UNK N   1      33.815   8.989  19.861  0.00  0.00     0.027 C 
BRANCH  28  29
HETATM   29  C   UNK N   1      32.746   8.263  20.666  0.00  0.00     0.002 C 
BRANCH  29  30
HETATM   30  C   UNK N   1      31.358   8.776  20.336  0.00  0.00    -0.000 C 
BRANCH  30  31
HETATM   31  C   UNK N   1      30.393   7.630  20.110  0.00  0.00    -0.005 C 
HETATM   32  C   UNK N   1      31.164   6.329  20.092  0.00  0.00     0.005 C 
ENDBRANCH  30  31
ENDBRANCH  29  30
ENDBRANCH  28  29
ENDBRANCH  27  28
ENDBRANCH  26  27
ENDBRANCH  23  26
BRANCH  21  33
HETATM   33  N   UNK N   1      34.892  13.072  17.685  0.00  0.00    -0.385 N 
HETATM   34  H   UNK N   1      35.345  13.940  17.779  0.00  0.00     0.157 HD
HETATM   35  H   UNK N   1      33.911  13.023  17.761  0.00  0.00     0.157 HD
ENDBRANCH  21  33
ENDBRANCH  18  21
ENDBRANCH  13  15
ENDBRANCH  12  13
ENDBRANCH   1  12
BRANCH  10  36
HETATM   36  C   UNK N   1      30.901  17.168   7.170  0.00  0.00     0.259 C 
HETATM   37  O   UNK N   1      30.034  17.850   7.703  0.00  0.00    -0.267 OA
HETATM   38  N   UNK N   1      30.890  16.974   5.804  0.00  0.00    -0.299 N 
BRANCH  38  39
HETATM   39  C   UNK N   1      30.046  17.798   4.977  0.00  0.00     0.144 C 
BRANCH  39  40
HETATM   40  C   UNK N   1      28.685  17.164   4.744  0.00  0.00     0.131 C 
BRANCH  40  41
HETATM   41  C   UNK N   1      27.684  18.269   4.630  0.00  0.00     0.260 C 
HETATM   42  O   UNK N   1      26.530  17.995   4.344  0.00  0.00    -0.265 OA
BRANCH  41  43
HETATM   43  O   UNK N   1      28.021  19.559   4.884  0.00  0.00    -0.322 OA
BRANCH  43  44
HETATM   44  C   UNK N   1      27.104  20.586   4.848  0.00  0.00     0.174 C 
HETATM   45  C   UNK N   1      26.981  21.216   6.222  0.00  0.00     0.034 C 
ENDBRANCH  43  44
ENDBRANCH  41  43
ENDBRANCH  40  41
ENDBRANCH  39  40
ENDBRANCH  38  39
BRANCH  38  46
HETATM   46  C   UNK N   1      31.739  16.014   5.151  0.00  0.00     0.110 A 
HETATM   47  C   UNK N   1      32.994  16.398   4.633  0.00  0.00     0.049 A 
HETATM   48  C   UNK N   1      33.770  15.474   3.938  0.00  0.00     0.005 A 
HETATM   49  C   UNK N   1      33.301  14.175   3.764  0.00  0.00     0.017 A 
HETATM   50  C   UNK N   1      32.072  13.811   4.323  0.00  0.00     0.089 A 
HETATM   51  N   UNK N   1      31.328  14.723   5.008  0.00  0.00    -0.352 N 
ATOM     52  HN  UNK N   1      30.444  14.432   5.425  1.00  0.00     0.166 HD
ENDBRANCH  38  46
ENDBRANCH  10  36
TORSDOF 18
ENDMDL
MODEL 8
REMARK VINA RESULT:      -7.5      1.672      2.630
REMARK  18 active torsions:
REMARK  status: ('A' for Active; 'I' for Inactive)
REMARK    1  A    between atoms: C_2  and  C_3 
REMARK    2  A    between atoms: C_3  and  C_4 
REMARK    3  A    between atoms: C_4  and  C_5 
REMARK    4  A    between atoms: C_5  and  C_6 
REMARK    5  A    between atoms: C_6  and  O_7 
REMARK    6  A    between atoms: O_7  and  C_8 
REMARK       I    between atoms: N_10  and  C_8 
REMARK    7  A    between atoms: C_12  and  C_13 
REMARK    8  A    between atoms: C_12  and  N_49 
REMARK    9  A    between atoms: C_16  and  N_19 
REMARK   10  A    between atoms: N_19  and  C_20 
REMARK   11  A    between atoms: C_20  and  C_21 
REMARK   12  A    between atoms: C_30  and  C_32 
REMARK       I    between atoms: C_32  and  N_34 
REMARK   13  A    between atoms: N_34  and  C_35 
REMARK   14  A    between atoms: N_34  and  C_42 
REMARK   15  A    between atoms: C_35  and  C_36 
REMARK   16  A    between atoms: C_36  and  C_37 
REMARK   17  A    between atoms: C_37  and  O_39 
REMARK   18  A    between atoms: O_39  and  C_40 
ROOT
HETATM    1  C   UNK N   1      30.323  16.940   5.100  0.00  0.00     0.102 A 
HETATM    2  N   UNK N   1      29.679  17.357   3.981  0.00  0.00    -0.343 N 
ATOM      3  HN  UNK N   1      29.935  17.194   3.007  1.00  0.00     0.167 HD
HETATM    4  C   UNK N   1      28.626  18.035   4.460  0.00  0.00     0.061 A 
HETATM    5  C   UNK N   1      28.640  18.016   5.823  0.00  0.00     0.062 A 
HETATM    6  N   UNK N   1      29.691  17.342   6.241  0.00  0.00    -0.338 N 
HETATM    7  C   UNK N   1      30.012  17.148   7.655  0.00  0.00     0.158 C 
HETATM    8  C   UNK N   1      27.686  18.623   6.601  0.00  0.00     0.033 A 
HETATM    9  C   UNK N   1      26.689  19.300   5.929  0.00  0.00     0.019 A 
HETATM   10  C   UNK N   1      26.675  19.395   4.512  0.00  0.00     0.034 A 
HETATM   11  C   UNK N   1      27.642  18.707   3.751  0.00  0.00     0.049 A 
ENDROOT
BRANCH   1  12
HETATM   12  C   UNK N   1      31.573  16.156   5.050  0.00  0.00     0.196 C 
BRANCH  12  13
HETATM   13  N   UNK N   1      32.622  17.031   5.446  0.00  0.00    -0.383 N 
HETATM   14  H   UNK N   1      32.757  17.859   4.932  0.00  0.00     0.160 HD
BRANCH  13  15
HETATM   15  C   UNK N   1      33.471  16.776   6.527  0.00  0.00     0.028 C 
HETATM   16  C   UNK N   1      33.524  17.727   7.535  0.00  0.00     0.030 C 
HETATM   17  C   UNK N   1      33.948  17.358   8.793  0.00  0.00     0.017 C 
HETATM   18  C   UNK N   1      34.308  16.034   9.038  0.00  0.00     0.008 C 
HETATM   19  C   UNK N   1      34.490  15.149   7.967  0.00  0.00     0.017 C 
HETATM   20  C   UNK N   1      34.059  15.520   6.698  0.00  0.00     0.030 C 
BRANCH  18  21
HETATM   21  C   UNK N   1      33.853  15.540  10.352  0.00  0.00     0.113 C 
HETATM   22  N   UNK N   1      34.712  15.109  11.248  0.00  0.00    -0.288 N 
HETATM   23  C   UNK N   1      36.080  15.267  11.330  0.00  0.00     0.366 C 
ATOM     24  HN  UNK N   1      34.299  14.569  12.009  1.00  0.00     0.172 HD
HETATM   25  O   UNK N   1      36.677  16.090  10.663  0.00  0.00    -0.238 OA
BRANCH  23  26
HETATM   26  O   UNK N   1      36.792  14.491  12.185  0.00  0.00    -0.304 OA
BRANCH  26  27
HETATM   27  C   UNK N   1      36.198  13.672  13.138  0.00  0.00     0.180 C 
BRANCH  27  28
HETATM   28  C   UNK N   1      36.473  14.133  14.575  0.00  0.00     0.027 C 
BRANCH  28  29
HETATM   29  C   UNK N   1      35.678  13.327  15.593  0.00  0.00     0.002 C 
BRANCH  29  30
HETATM   30  C   UNK N   1      35.547  11.877  15.172  0.00  0.00    -0.000 C 
BRANCH  30  31
HETATM   31  C   UNK N   1      36.607  11.020  15.833  0.00  0.00    -0.005 C 
HETATM   32  C   UNK N   1      37.544  10.486  14.772  0.00  0.00     0.005 C 
ENDBRANCH  30  31
ENDBRANCH  29  30
ENDBRANCH  28  29
ENDBRANCH  27  28
ENDBRANCH  26  27
ENDBRANCH  23  26
BRANCH  21  33
HETATM   33  N   UNK N   1      32.537  15.030  10.423  0.00  0.00    -0.385 N 
HETATM   34  H   UNK N   1      32.218  14.369   9.768  0.00  0.00     0.157 HD
HETATM   35  H   UNK N   1      31.934  15.339  11.137  0.00  0.00     0.157 HD
ENDBRANCH  21  33
ENDBRANCH  18  21
ENDBRANCH  13  15
ENDBRANCH  12  13
ENDBRANCH   1  12
BRANCH  10  36
HETATM   36  C   UNK N   1      25.594  20.156   3.868  0.00  0.00     0.259 C 
HETATM   37  O   UNK N   1      25.830  21.304   3.509  0.00  0.00    -0.267 OA
HETATM   38  N   UNK N   1      24.379  19.572   3.573  0.00  0.00    -0.299 N 
BRANCH  38  39
HETATM   39  C   UNK N   1      23.511  20.190   2.604  0.00  0.00     0.144 C 
BRANCH  39  40
HETATM   40  C   UNK N   1      22.084  20.305   3.110  0.00  0.00     0.131 C 
BRANCH  40  41
HETATM   41  C   UNK N   1      21.171  19.997   1.966  0.00  0.00     0.260 C 
HETATM   42  O   UNK N   1      21.402  20.491   0.875  0.00  0.00    -0.265 OA
BRANCH  41  43
HETATM   43  O   UNK N   1      20.124  19.145   2.106  0.00  0.00    -0.322 OA
BRANCH  43  44
HETATM   44  C   UNK N   1      20.272  17.776   2.071  0.00  0.00     0.174 C 
HETATM   45  C   UNK N   1      19.929  17.184   3.425  0.00  0.00     0.034 C 
ENDBRANCH  43  44
ENDBRANCH  41  43
ENDBRANCH  40  41
ENDBRANCH  39  40
ENDBRANCH  38  39
BRANCH  38  46
HETATM   46  C   UNK N   1      23.959  18.324   4.151  0.00  0.00     0.110 A 
HETATM   47  C   UNK N   1      24.221  17.102   3.494  0.00  0.00     0.049 A 
HETATM   48  C   UNK N   1      23.741  15.909   4.030  0.00  0.00     0.005 A 
HETATM   49  C   UNK N   1      23.009  15.933   5.214  0.00  0.00     0.017 A 
HETATM   50  C   UNK N   1      22.799  17.153   5.865  0.00  0.00     0.089 A 
HETATM   51  N   UNK N   1      23.283  18.311   5.333  0.00  0.00    -0.352 N 
ATOM     52  HN  UNK N   1      23.136  19.188   5.833  1.00  0.00     0.166 HD
ENDBRANCH  38  46
ENDBRANCH  10  36
TORSDOF 18
ENDMDL
MODEL 9
REMARK VINA RESULT:      -7.4      2.724     14.330
REMARK  18 active torsions:
REMARK  status: ('A' for Active; 'I' for Inactive)
REMARK    1  A    between atoms: C_2  and  C_3 
REMARK    2  A    between atoms: C_3  and  C_4 
REMARK    3  A    between atoms: C_4  and  C_5 
REMARK    4  A    between atoms: C_5  and  C_6 
REMARK    5  A    between atoms: C_6  and  O_7 
REMARK    6  A    between atoms: O_7  and  C_8 
REMARK       I    between atoms: N_10  and  C_8 
REMARK    7  A    between atoms: C_12  and  C_13 
REMARK    8  A    between atoms: C_12  and  N_49 
REMARK    9  A    between atoms: C_16  and  N_19 
REMARK   10  A    between atoms: N_19  and  C_20 
REMARK   11  A    between atoms: C_20  and  C_21 
REMARK   12  A    between atoms: C_30  and  C_32 
REMARK       I    between atoms: C_32  and  N_34 
REMARK   13  A    between atoms: N_34  and  C_35 
REMARK   14  A    between atoms: N_34  and  C_42 
REMARK   15  A    between atoms: C_35  and  C_36 
REMARK   16  A    between atoms: C_36  and  C_37 
REMARK   17  A    between atoms: C_37  and  O_39 
REMARK   18  A    between atoms: O_39  and  C_40 
ROOT
HETATM    1  C   UNK N   1      32.811  15.658   8.739  0.00  0.00     0.102 A 
HETATM    2  N   UNK N   1      32.906  14.588   9.568  0.00  0.00    -0.343 N 
ATOM      3  HN  UNK N   1      32.307  13.763   9.606  1.00  0.00     0.167 HD
HETATM    4  C   UNK N   1      33.974  14.873  10.327  0.00  0.00     0.061 A 
HETATM    5  C   UNK N   1      34.503  16.074   9.955  0.00  0.00     0.062 A 
HETATM    6  N   UNK N   1      33.790  16.580   8.970  0.00  0.00    -0.338 N 
HETATM    7  C   UNK N   1      34.080  17.872   8.348  0.00  0.00     0.158 C 
HETATM    8  C   UNK N   1      35.606  16.634  10.547  0.00  0.00     0.033 A 
HETATM    9  C   UNK N   1      36.169  15.924  11.587  0.00  0.00     0.019 A 
HETATM   10  C   UNK N   1      35.610  14.701  12.044  0.00  0.00     0.034 A 
HETATM   11  C   UNK N   1      34.511  14.134  11.370  0.00  0.00     0.049 A 
ENDROOT
BRANCH   1  12
HETATM   12  C   UNK N   1      31.746  15.782   7.724  0.00  0.00     0.196 C 
BRANCH  12  13
HETATM   13  N   UNK N   1      30.877  16.818   8.167  0.00  0.00    -0.383 N 
HETATM   14  H   UNK N   1      30.900  17.071   9.118  0.00  0.00     0.160 HD
BRANCH  13  15
HETATM   15  C   UNK N   1      29.992  17.494   7.323  0.00  0.00     0.028 C 
HETATM   16  C   UNK N   1      30.008  17.154   5.979  0.00  0.00     0.030 C 
HETATM   17  C   UNK N   1      28.901  17.415   5.200  0.00  0.00     0.017 C 
HETATM   18  C   UNK N   1      27.779  18.008   5.774  0.00  0.00     0.008 C 
HETATM   19  C   UNK N   1      27.864  18.571   7.055  0.00  0.00     0.017 C 
HETATM   20  C   UNK N   1      28.979  18.304   7.843  0.00  0.00     0.030 C 
BRANCH  18  21
HETATM   21  C   UNK N   1      26.506  17.445   5.284  0.00  0.00     0.113 C 
HETATM   22  N   UNK N   1      25.697  18.155   4.530  0.00  0.00    -0.288 N 
HETATM   23  C   UNK N   1      25.916  19.324   3.830  0.00  0.00     0.366 C 
ATOM     24  HN  UNK N   1      24.752  17.780   4.449  1.00  0.00     0.172 HD
HETATM   25  O   UNK N   1      27.035  19.747   3.611  0.00  0.00    -0.238 OA
BRANCH  23  26
HETATM   26  O   UNK N   1      24.856  20.028   3.359  0.00  0.00    -0.304 OA
BRANCH  26  27
HETATM   27  C   UNK N   1      23.536  19.660   3.595  0.00  0.00     0.180 C 
BRANCH  27  28
HETATM   28  C   UNK N   1      22.529  20.547   2.852  0.00  0.00     0.027 C 
BRANCH  28  29
HETATM   29  C   UNK N   1      21.566  19.727   2.005  0.00  0.00     0.002 C 
BRANCH  29  30
HETATM   30  C   UNK N   1      20.129  19.938   2.438  0.00  0.00    -0.000 C 
BRANCH  30  31
HETATM   31  C   UNK N   1      19.438  18.615   2.700  0.00  0.00    -0.005 C 
HETATM   32  C   UNK N   1      20.412  17.488   2.437  0.00  0.00     0.005 C 
ENDBRANCH  30  31
ENDBRANCH  29  30
ENDBRANCH  28  29
ENDBRANCH  27  28
ENDBRANCH  26  27
ENDBRANCH  23  26
BRANCH  21  33
HETATM   33  N   UNK N   1      25.929  16.407   6.049  0.00  0.00    -0.385 N 
HETATM   34  H   UNK N   1      26.455  15.933   6.733  0.00  0.00     0.157 HD
HETATM   35  H   UNK N   1      24.989  16.155   5.896  0.00  0.00     0.157 HD
ENDBRANCH  21  33
ENDBRANCH  18  21
ENDBRANCH  13  15
ENDBRANCH  12  13
ENDBRANCH   1  12
BRANCH  10  36
HETATM   36  C   UNK N   1      36.250  14.014  13.177  0.00  0.00     0.259 C 
HETATM   37  O   UNK N   1      36.023  14.429  14.307  0.00  0.00    -0.267 OA
HETATM   38  N   UNK N   1      36.999  12.870  12.994  0.00  0.00    -0.299 N 
BRANCH  38  39
HETATM   39  C   UNK N   1      37.263  12.008  14.118  0.00  0.00     0.144 C 
BRANCH  39  40
HETATM   40  C   UNK N   1      36.003  11.320  14.615  0.00  0.00     0.131 C 
BRANCH  40  41
HETATM   41  C   UNK N   1      36.236  10.921  16.038  0.00  0.00     0.260 C 
HETATM   42  O   UNK N   1      37.106  10.103  16.288  0.00  0.00    -0.265 OA
BRANCH  41  43
HETATM   43  O   UNK N   1      35.535  11.483  17.054  0.00  0.00    -0.322 OA
BRANCH  43  44
HETATM   44  C   UNK N   1      34.877  12.687  16.925  0.00  0.00     0.174 C 
HETATM   45  C   UNK N   1      35.222  13.592  18.092  0.00  0.00     0.034 C 
ENDBRANCH  43  44
ENDBRANCH  41  43
ENDBRANCH  40  41
ENDBRANCH  39  40
ENDBRANCH  38  39
BRANCH  38  46
HETATM   46  C   UNK N   1      37.484  12.458  11.705  0.00  0.00     0.110 A 
HETATM   47  C   UNK N   1      36.965  11.307  11.074  0.00  0.00     0.049 A 
HETATM   48  C   UNK N   1      37.499  10.880   9.860  0.00  0.00     0.005 A 
HETATM   49  C   UNK N   1      38.538  11.599   9.276  0.00  0.00     0.017 A 
HETATM   50  C   UNK N   1      39.006  12.758   9.903  0.00  0.00     0.089 A 
HETATM   51  N   UNK N   1      38.467  13.168  11.085  0.00  0.00    -0.352 N 
ATOM     52  HN  UNK N   1      38.808  14.028  11.516  1.00  0.00     0.166 HD
ENDBRANCH  38  46
ENDBRANCH  10  36
TORSDOF 18
ENDMDL
