MODEL 1
REMARK VINA RESULT:      -7.3      0.000      0.000
REMARK  15 active torsions:
REMARK  status: ('A' for Active; 'I' for Inactive)
REMARK    1  A    between atoms: O_4  and  C_25 
REMARK    2  A    between atoms: O_6  and  C_27 
REMARK    3  A    between atoms: O_6  and  C_28 
REMARK    4  A    between atoms: O_7  and  C_29 
REMARK    5  A    between atoms: O_7  and  C_34 
REMARK    6  A    between atoms: N_8  and  C_15 
REMARK    7  A    between atoms: C_21  and  N_9 
REMARK    8  A    between atoms: N_9  and  C_26 
REMARK       I    between atoms: N_10  and  C_23 
REMARK    9  A    between atoms: C_15  and  C_22 
REMARK   10  A    between atoms: C_16  and  C_19 
REMARK   11  A    between atoms: C_17  and  C_23 
REMARK   12  A    between atoms: C_19  and  C_21 
REMARK   13  A    between atoms: C_22  and  C_25 
REMARK   14  A    between atoms: C_26  and  C_27 
REMARK   15  A    between atoms: C_34  and  C_35 
ROOT
HETATM    1  C   UNK N   1      32.304  17.277   3.780  0.00  0.00     0.062 C 
ENDROOT
BRANCH   1   2
HETATM    2  C   UNK N   1      33.180  16.733   4.855  0.00  0.00    -0.055 A 
HETATM    3  C   UNK N   1      33.985  15.625   4.589  0.00  0.00     0.016 A 
HETATM    4  C   UNK N   1      34.826  15.158   5.590  0.00  0.00    -0.029 A 
HETATM    5  C   UNK N   1      34.888  15.740   6.825  0.00  0.00     0.052 A 
HETATM    6  C   UNK N   1      35.739  13.988   5.482  0.00  0.00     0.060 A 
HETATM    7  N   UNK N   1      35.777  15.012   7.637  0.00  0.00    -0.379 N 
HETATM    8  C   UNK N   1      34.095  16.890   7.127  0.00  0.00     0.059 A 
HETATM    9  C   UNK N   1      36.378  13.925   6.895  0.00  0.00     0.128 A 
HETATM   10  C   UNK N   1      33.241  17.363   6.109  0.00  0.00     0.026 A 
BRANCH   7  11
HETATM   11  C   UNK N   1      35.735  14.983   9.075  0.00  0.00     0.125 C 
BRANCH  11  12
HETATM   12  C   UNK N   1      34.514  14.242   9.579  0.00  0.00     0.046 C 
BRANCH  12  13
HETATM   13  C   UNK N   1      34.161  14.796  10.944  0.00  0.00     0.165 C 
BRANCH  13  14
HETATM   14  O   UNK N   1      32.797  15.070  11.003  0.00  0.00    -0.401 OA
HETATM   15  H   UNK N   1      32.345  15.919  10.884  0.00  0.00     0.209 HD
ENDBRANCH  13  14
ENDBRANCH  12  13
ENDBRANCH  11  12
ENDBRANCH   7  11
BRANCH   8  16
HETATM   16  C   UNK N   1      34.126  17.672   8.399  0.00  0.00     0.251 C 
HETATM   17  O   UNK N   1      35.066  18.396   8.678  0.00  0.00    -0.268 OA
HETATM   18  N   UNK N   1      33.063  17.647   9.228  0.00  0.00    -0.366 N 
HETATM   19  H   UNK N   1      33.140  18.008  10.140  0.00  0.00     0.159 HD
HETATM   20  H   UNK N   1      32.208  17.268   8.919  0.00  0.00     0.159 HD
ENDBRANCH   8  16
ENDBRANCH   1   2
BRANCH   1  21
HETATM   21  C   UNK N   1      31.323  16.207   3.319  0.00  0.00     0.076 C 
HETATM   22  C   UNK N   1      30.942  15.254   4.457  0.00  0.00     0.032 C 
BRANCH  21  23
HETATM   23  N   UNK N   1      30.163  16.798   2.641  0.00  0.00    -0.415 N 
HETATM   24  H   UNK N   1      30.203  17.658   2.095  0.00  0.00     0.153 HD
BRANCH  23  25
HETATM   25  C   UNK N   1      28.944  16.015   2.837  0.00  0.00     0.141 C 
BRANCH  25  26
HETATM   26  C   UNK N   1      27.831  16.861   3.433  0.00  0.00     0.195 C 
BRANCH  26  27
HETATM   27  O   UNK N   1      28.280  17.454   4.593  0.00  0.00    -0.347 OA
BRANCH  27  28
HETATM   28  C   UNK N   1      27.843  18.660   5.036  0.00  0.00     0.102 A 
HETATM   29  C   UNK N   1      27.852  18.963   6.421  0.00  0.00     0.102 A 
HETATM   30  C   UNK N   1      27.425  20.228   6.845  0.00  0.00     0.039 A 
HETATM   31  C   UNK N   1      26.970  21.177   5.929  0.00  0.00     0.003 A 
HETATM   32  C   UNK N   1      26.945  20.877   4.569  0.00  0.00     0.003 A 
HETATM   33  C   UNK N   1      27.384  19.631   4.124  0.00  0.00     0.039 A 
BRANCH  29  34
HETATM   34  O   UNK N   1      28.245  18.084   7.379  0.00  0.00    -0.340 OA
BRANCH  34  35
HETATM   35  C   UNK N   1      29.483  18.047   7.985  0.00  0.00     0.293 C 
BRANCH  35  36
HETATM   36  C   UNK N   1      29.353  17.921   9.497  0.00  0.00     0.408 C 
HETATM   37  F   UNK N   1      29.974  16.765   9.931  0.00  0.00    -0.169 F 
HETATM   38  F   UNK N   1      29.921  19.015  10.125  0.00  0.00    -0.169 F 
HETATM   39  F   UNK N   1      28.012  17.866   9.825  0.00  0.00    -0.169 F 
ENDBRANCH  35  36
ENDBRANCH  34  35
ENDBRANCH  29  34
ENDBRANCH  27  28
ENDBRANCH  26  27
ENDBRANCH  25  26
ENDBRANCH  23  25
ENDBRANCH  21  23
ENDBRANCH   1  21
TORSDOF 15
ENDMDL
MODEL 2
REMARK VINA RESULT:      -7.1      1.662      2.486
REMARK  15 active torsions:
REMARK  status: ('A' for Active; 'I' for Inactive)
REMARK    1  A    between atoms: O_4  and  C_25 
REMARK    2  A    between atoms: O_6  and  C_27 
REMARK    3  A    between atoms: O_6  and  C_28 
REMARK    4  A    between atoms: O_7  and  C_29 
REMARK    5  A    between atoms: O_7  and  C_34 
REMARK    6  A    between atoms: N_8  and  C_15 
REMARK    7  A    between atoms: C_21  and  N_9 
REMARK    8  A    between atoms: N_9  and  C_26 
REMARK       I    between atoms: N_10  and  C_23 
REMARK    9  A    between atoms: C_15  and  C_22 
REMARK   10  A    between atoms: C_16  and  C_19 
REMARK   11  A    between atoms: C_17  and  C_23 
REMARK   12  A    between atoms: C_19  and  C_21 
REMARK   13  A    between atoms: C_22  and  C_25 
REMARK   14  A    between atoms: C_26  and  C_27 
REMARK   15  A    between atoms: C_34  and  C_35 
ROOT
HETATM    1  C   UNK N   1      30.562  15.710   4.739  0.00  0.00     0.062 C 
ENDROOT
BRANCH   1   2
HETATM    2  C   UNK N   1      31.584  15.752   5.821  0.00  0.00    -0.055 A 
HETATM    3  C   UNK N   1      32.084  16.984   6.244  0.00  0.00     0.016 A 
HETATM    4  C   UNK N   1      33.004  17.007   7.283  0.00  0.00    -0.029 A 
HETATM    5  C   UNK N   1      33.442  15.867   7.899  0.00  0.00     0.052 A 
HETATM    6  C   UNK N   1      33.646  18.224   7.850  0.00  0.00     0.060 A 
HETATM    7  N   UNK N   1      34.410  16.204   8.863  0.00  0.00    -0.379 N 
HETATM    8  C   UNK N   1      32.935  14.590   7.508  0.00  0.00     0.059 A 
HETATM    9  C   UNK N   1      34.591  17.637   8.932  0.00  0.00     0.128 A 
HETATM   10  C   UNK N   1      32.000  14.569   6.452  0.00  0.00     0.026 A 
BRANCH   7  11
HETATM   11  C   UNK N   1      35.434  15.312   9.340  0.00  0.00     0.125 C 
BRANCH  11  12
HETATM   12  C   UNK N   1      35.730  15.542  10.807  0.00  0.00     0.046 C 
BRANCH  12  13
HETATM   13  C   UNK N   1      34.902  14.561  11.611  0.00  0.00     0.165 C 
BRANCH  13  14
HETATM   14  O   UNK N   1      33.549  14.751  11.337  0.00  0.00    -0.401 OA
HETATM   15  H   UNK N   1      33.142  15.203  10.582  0.00  0.00     0.209 HD
ENDBRANCH  13  14
ENDBRANCH  12  13
ENDBRANCH  11  12
ENDBRANCH   7  11
BRANCH   8  16
HETATM   16  C   UNK N   1      33.259  13.279   8.148  0.00  0.00     0.251 C 
HETATM   17  O   UNK N   1      32.638  12.873   9.114  0.00  0.00    -0.268 OA
HETATM   18  N   UNK N   1      34.204  12.484   7.607  0.00  0.00    -0.366 N 
HETATM   19  H   UNK N   1      34.548  11.713   8.113  0.00  0.00     0.159 HD
HETATM   20  H   UNK N   1      34.549  12.675   6.705  0.00  0.00     0.159 HD
ENDBRANCH   8  16
ENDBRANCH   1   2
BRANCH   1  21
HETATM   21  C   UNK N   1      30.801  16.847   3.754  0.00  0.00     0.076 C 
HETATM   22  C   UNK N   1      32.077  16.632   2.933  0.00  0.00     0.032 C 
BRANCH  21  23
HETATM   23  N   UNK N   1      29.614  17.102   2.928  0.00  0.00    -0.415 N 
HETATM   24  H   UNK N   1      29.521  17.899   2.299  0.00  0.00     0.153 HD
BRANCH  23  25
HETATM   25  C   UNK N   1      28.580  16.086   3.110  0.00  0.00     0.141 C 
BRANCH  25  26
HETATM   26  C   UNK N   1      27.221  16.716   3.370  0.00  0.00     0.195 C 
BRANCH  26  27
HETATM   27  O   UNK N   1      27.132  17.076   4.697  0.00  0.00    -0.347 OA
BRANCH  27  28
HETATM   28  C   UNK N   1      27.015  18.361   5.119  0.00  0.00     0.102 A 
HETATM   29  C   UNK N   1      27.885  18.873   6.114  0.00  0.00     0.102 A 
HETATM   30  C   UNK N   1      27.760  20.212   6.505  0.00  0.00     0.039 A 
HETATM   31  C   UNK N   1      26.780  21.035   5.949  0.00  0.00     0.003 A 
HETATM   32  C   UNK N   1      25.913  20.531   4.982  0.00  0.00     0.003 A 
HETATM   33  C   UNK N   1      26.032  19.206   4.564  0.00  0.00     0.039 A 
BRANCH  29  34
HETATM   34  O   UNK N   1      28.840  18.130   6.729  0.00  0.00    -0.340 OA
BRANCH  34  35
HETATM   35  C   UNK N   1      28.659  17.344   7.848  0.00  0.00     0.293 C 
BRANCH  35  36
HETATM   36  C   UNK N   1      29.618  17.741   8.961  0.00  0.00     0.408 C 
HETATM   37  F   UNK N   1      30.421  16.668   9.300  0.00  0.00    -0.169 F 
HETATM   38  F   UNK N   1      30.410  18.804   8.564  0.00  0.00    -0.169 F 
HETATM   39  F   UNK N   1      28.883  18.124  10.067  0.00  0.00    -0.169 F 
ENDBRANCH  35  36
ENDBRANCH  34  35
ENDBRANCH  29  34
ENDBRANCH  27  28
ENDBRANCH  26  27
ENDBRANCH  25  26
ENDBRANCH  23  25
ENDBRANCH  21  23
ENDBRANCH   1  21
TORSDOF 15
ENDMDL
MODEL 3
REMARK VINA RESULT:      -7.0      4.051      9.382
REMARK  15 active torsions:
REMARK  status: ('A' for Active; 'I' for Inactive)
REMARK    1  A    between atoms: O_4  and  C_25 
REMARK    2  A    between atoms: O_6  and  C_27 
REMARK    3  A    between atoms: O_6  and  C_28 
REMARK    4  A    between atoms: O_7  and  C_29 
REMARK    5  A    between atoms: O_7  and  C_34 
REMARK    6  A    between atoms: N_8  and  C_15 
REMARK    7  A    between atoms: C_21  and  N_9 
REMARK    8  A    between atoms: N_9  and  C_26 
REMARK       I    between atoms: N_10  and  C_23 
REMARK    9  A    between atoms: C_15  and  C_22 
REMARK   10  A    between atoms: C_16  and  C_19 
REMARK   11  A    between atoms: C_17  and  C_23 
REMARK   12  A    between atoms: C_19  and  C_21 
REMARK   13  A    between atoms: C_22  and  C_25 
REMARK   14  A    between atoms: C_26  and  C_27 
REMARK   15  A    between atoms: C_34  and  C_35 
ROOT
HETATM    1  C   UNK N   1      33.161  17.483   8.460  0.00  0.00     0.062 C 
ENDROOT
BRANCH   1   2
HETATM    2  C   UNK N   1      31.860  17.505   7.735  0.00  0.00    -0.055 A 
HETATM    3  C   UNK N   1      31.829  17.218   6.371  0.00  0.00     0.016 A 
HETATM    4  C   UNK N   1      30.603  17.202   5.721  0.00  0.00    -0.029 A 
HETATM    5  C   UNK N   1      29.428  17.465   6.368  0.00  0.00     0.052 A 
HETATM    6  C   UNK N   1      30.389  16.928   4.274  0.00  0.00     0.060 A 
HETATM    7  N   UNK N   1      28.371  17.436   5.440  0.00  0.00    -0.379 N 
HETATM    8  C   UNK N   1      29.417  17.741   7.770  0.00  0.00     0.059 A 
HETATM    9  C   UNK N   1      28.853  17.087   4.122  0.00  0.00     0.128 A 
HETATM   10  C   UNK N   1      30.665  17.757   8.428  0.00  0.00     0.026 A 
BRANCH   7  11
HETATM   11  C   UNK N   1      27.120  18.128   5.604  0.00  0.00     0.125 C 
BRANCH  11  12
HETATM   12  C   UNK N   1      27.058  19.372   4.743  0.00  0.00     0.046 C 
BRANCH  12  13
HETATM   13  C   UNK N   1      26.409  20.473   5.556  0.00  0.00     0.165 C 
BRANCH  13  14
HETATM   14  O   UNK N   1      27.374  21.124   6.321  0.00  0.00    -0.401 OA
HETATM   15  H   UNK N   1      27.289  21.944   6.832  0.00  0.00     0.209 HD
ENDBRANCH  13  14
ENDBRANCH  12  13
ENDBRANCH  11  12
ENDBRANCH   7  11
BRANCH   8  16
HETATM   16  C   UNK N   1      28.205  17.959   8.616  0.00  0.00     0.251 C 
HETATM   17  O   UNK N   1      27.758  17.076   9.326  0.00  0.00    -0.268 OA
HETATM   18  N   UNK N   1      27.632  19.178   8.664  0.00  0.00    -0.366 N 
HETATM   19  H   UNK N   1      26.741  19.289   9.069  0.00  0.00     0.159 HD
HETATM   20  H   UNK N   1      28.104  19.958   8.294  0.00  0.00     0.159 HD
ENDBRANCH   8  16
ENDBRANCH   1   2
BRANCH   1  21
HETATM   21  C   UNK N   1      33.514  16.053   8.847  0.00  0.00     0.076 C 
HETATM   22  C   UNK N   1      34.638  15.486   7.973  0.00  0.00     0.032 C 
BRANCH  21  23
HETATM   23  N   UNK N   1      33.782  15.937  10.286  0.00  0.00    -0.415 N 
HETATM   24  H   UNK N   1      33.108  15.574  10.961  0.00  0.00     0.153 HD
BRANCH  23  25
HETATM   25  C   UNK N   1      35.121  16.400  10.644  0.00  0.00     0.141 C 
BRANCH  25  26
HETATM   26  C   UNK N   1      35.740  15.529  11.725  0.00  0.00     0.195 C 
BRANCH  26  27
HETATM   27  O   UNK N   1      34.830  14.570  12.115  0.00  0.00    -0.347 OA
BRANCH  27  28
HETATM   28  C   UNK N   1      35.086  13.237  12.084  0.00  0.00     0.102 A 
HETATM   29  C   UNK N   1      34.879  12.439  13.237  0.00  0.00     0.102 A 
HETATM   30  C   UNK N   1      35.121  11.061  13.165  0.00  0.00     0.039 A 
HETATM   31  C   UNK N   1      35.584  10.474  11.987  0.00  0.00     0.003 A 
HETATM   32  C   UNK N   1      35.803  11.257  10.856  0.00  0.00     0.003 A 
HETATM   33  C   UNK N   1      35.550  12.628  10.901  0.00  0.00     0.039 A 
BRANCH  29  34
HETATM   34  O   UNK N   1      34.465  12.938  14.430  0.00  0.00    -0.340 OA
BRANCH  34  35
HETATM   35  C   UNK N   1      34.454  12.260  15.632  0.00  0.00     0.293 C 
BRANCH  35  36
HETATM   36  C   UNK N   1      35.719  12.537  16.433  0.00  0.00     0.408 C 
HETATM   37  F   UNK N   1      36.677  11.583  16.147  0.00  0.00    -0.169 F 
HETATM   38  F   UNK N   1      36.215  13.794  16.138  0.00  0.00    -0.169 F 
HETATM   39  F   UNK N   1      35.413  12.483  17.779  0.00  0.00    -0.169 F 
ENDBRANCH  35  36
ENDBRANCH  34  35
ENDBRANCH  29  34
ENDBRANCH  27  28
ENDBRANCH  26  27
ENDBRANCH  25  26
ENDBRANCH  23  25
ENDBRANCH  21  23
ENDBRANCH   1  21
TORSDOF 15
ENDMDL
MODEL 4
REMARK VINA RESULT:      -6.9     10.190     12.672
REMARK  15 active torsions:
REMARK  status: ('A' for Active; 'I' for Inactive)
REMARK    1  A    between atoms: O_4  and  C_25 
REMARK    2  A    between atoms: O_6  and  C_27 
REMARK    3  A    between atoms: O_6  and  C_28 
REMARK    4  A    between atoms: O_7  and  C_29 
REMARK    5  A    between atoms: O_7  and  C_34 
REMARK    6  A    between atoms: N_8  and  C_15 
REMARK    7  A    between atoms: C_21  and  N_9 
REMARK    8  A    between atoms: N_9  and  C_26 
REMARK       I    between atoms: N_10  and  C_23 
REMARK    9  A    between atoms: C_15  and  C_22 
REMARK   10  A    between atoms: C_16  and  C_19 
REMARK   11  A    between atoms: C_17  and  C_23 
REMARK   12  A    between atoms: C_19  and  C_21 
REMARK   13  A    between atoms: C_22  and  C_25 
REMARK   14  A    between atoms: C_26  and  C_27 
REMARK   15  A    between atoms: C_34  and  C_35 
ROOT
HETATM    1  C   UNK N   1      22.394  12.836   2.307  0.00  0.00     0.062 C 
ENDROOT
BRANCH   1   2
HETATM    2  C   UNK N   1      21.954  14.251   2.454  0.00  0.00    -0.055 A 
HETATM    3  C   UNK N   1      22.398  14.997   3.546  0.00  0.00     0.016 A 
HETATM    4  C   UNK N   1      22.013  16.327   3.645  0.00  0.00    -0.029 A 
HETATM    5  C   UNK N   1      21.209  16.927   2.715  0.00  0.00     0.052 A 
HETATM    6  C   UNK N   1      22.383  17.262   4.742  0.00  0.00     0.060 A 
HETATM    7  N   UNK N   1      20.943  18.249   3.116  0.00  0.00    -0.379 N 
HETATM    8  C   UNK N   1      20.754  16.202   1.572  0.00  0.00     0.059 A 
HETATM    9  C   UNK N   1      21.643  18.566   4.343  0.00  0.00     0.128 A 
HETATM   10  C   UNK N   1      21.146  14.850   1.474  0.00  0.00     0.026 A 
BRANCH   7  11
HETATM   11  C   UNK N   1      19.791  19.011   2.713  0.00  0.00     0.125 C 
BRANCH  11  12
HETATM   12  C   UNK N   1      20.162  20.438   2.370  0.00  0.00     0.046 C 
BRANCH  12  13
HETATM   13  C   UNK N   1      21.165  20.401   1.235  0.00  0.00     0.165 C 
BRANCH  13  14
HETATM   14  O   UNK N   1      20.502  20.526   0.016  0.00  0.00    -0.401 OA
HETATM   15  H   UNK N   1      20.449  19.889  -0.712  0.00  0.00     0.209 HD
ENDBRANCH  13  14
ENDBRANCH  12  13
ENDBRANCH  11  12
ENDBRANCH   7  11
BRANCH   8  16
HETATM   16  C   UNK N   1      19.947  16.753   0.442  0.00  0.00     0.251 C 
HETATM   17  O   UNK N   1      20.450  17.458  -0.414  0.00  0.00    -0.268 OA
HETATM   18  N   UNK N   1      18.651  16.405   0.311  0.00  0.00    -0.366 N 
HETATM   19  H   UNK N   1      18.069  16.895  -0.314  0.00  0.00     0.159 HD
HETATM   20  H   UNK N   1      18.286  15.660   0.842  0.00  0.00     0.159 HD
ENDBRANCH   8  16
ENDBRANCH   1   2
BRANCH   1  21
HETATM   21  C   UNK N   1      21.367  11.905   2.940  0.00  0.00     0.076 C 
HETATM   22  C   UNK N   1      21.454  10.487   2.367  0.00  0.00     0.032 C 
BRANCH  21  23
HETATM   23  N   UNK N   1      21.437  11.946   4.406  0.00  0.00    -0.415 N 
HETATM   24  H   UNK N   1      20.719  12.364   4.997  0.00  0.00     0.153 HD
BRANCH  23  25
HETATM   25  C   UNK N   1      22.653  11.322   4.925  0.00  0.00     0.141 C 
BRANCH  25  26
HETATM   26  C   UNK N   1      23.137  12.012   6.189  0.00  0.00     0.195 C 
BRANCH  26  27
HETATM   27  O   UNK N   1      22.050  12.367   6.959  0.00  0.00    -0.347 OA
BRANCH  27  28
HETATM   28  C   UNK N   1      22.053  12.342   8.316  0.00  0.00     0.102 A 
HETATM   29  C   UNK N   1      21.164  13.166   9.052  0.00  0.00     0.102 A 
HETATM   30  C   UNK N   1      21.168  13.095  10.450  0.00  0.00     0.039 A 
HETATM   31  C   UNK N   1      22.047  12.245  11.124  0.00  0.00     0.003 A 
HETATM   32  C   UNK N   1      22.931  11.445  10.405  0.00  0.00     0.003 A 
HETATM   33  C   UNK N   1      22.931  11.487   9.012  0.00  0.00     0.039 A 
BRANCH  29  34
HETATM   34  O   UNK N   1      20.304  14.044   8.474  0.00  0.00    -0.340 OA
BRANCH  34  35
HETATM   35  C   UNK N   1      19.742  15.147   9.083  0.00  0.00     0.293 C 
BRANCH  35  36
HETATM   36  C   UNK N   1      20.073  16.424   8.324  0.00  0.00     0.408 C 
HETATM   37  F   UNK N   1      19.900  17.521   9.146  0.00  0.00    -0.169 F 
HETATM   38  F   UNK N   1      21.377  16.391   7.865  0.00  0.00    -0.169 F 
HETATM   39  F   UNK N   1      19.222  16.531   7.240  0.00  0.00    -0.169 F 
ENDBRANCH  35  36
ENDBRANCH  34  35
ENDBRANCH  29  34
ENDBRANCH  27  28
ENDBRANCH  26  27
ENDBRANCH  25  26
ENDBRANCH  23  25
ENDBRANCH  21  23
ENDBRANCH   1  21
TORSDOF 15
ENDMDL
MODEL 5
REMARK VINA RESULT:      -6.9      5.180     10.469
REMARK  15 active torsions:
REMARK  status: ('A' for Active; 'I' for Inactive)
REMARK    1  A    between atoms: O_4  and  C_25 
REMARK    2  A    between atoms: O_6  and  C_27 
REMARK    3  A    between atoms: O_6  and  C_28 
REMARK    4  A    between atoms: O_7  and  C_29 
REMARK    5  A    between atoms: O_7  and  C_34 
REMARK    6  A    between atoms: N_8  and  C_15 
REMARK    7  A    between atoms: C_21  and  N_9 
REMARK    8  A    between atoms: N_9  and  C_26 
REMARK       I    between atoms: N_10  and  C_23 
REMARK    9  A    between atoms: C_15  and  C_22 
REMARK   10  A    between atoms: C_16  and  C_19 
REMARK   11  A    between atoms: C_17  and  C_23 
REMARK   12  A    between atoms: C_19  and  C_21 
REMARK   13  A    between atoms: C_22  and  C_25 
REMARK   14  A    between atoms: C_26  and  C_27 
REMARK   15  A    between atoms: C_34  and  C_35 
ROOT
HETATM    1  C   UNK N   1      25.942  20.124   4.162  0.00  0.00     0.062 C 
ENDROOT
BRANCH   1   2
HETATM    2  C   UNK N   1      24.673  19.384   3.916  0.00  0.00    -0.055 A 
HETATM    3  C   UNK N   1      24.627  18.007   4.136  0.00  0.00     0.016 A 
HETATM    4  C   UNK N   1      23.425  17.341   3.943  0.00  0.00    -0.029 A 
HETATM    5  C   UNK N   1      22.288  17.985   3.538  0.00  0.00     0.052 A 
HETATM    6  C   UNK N   1      23.201  15.881   4.120  0.00  0.00     0.060 A 
HETATM    7  N   UNK N   1      21.257  17.043   3.371  0.00  0.00    -0.379 N 
HETATM    8  C   UNK N   1      22.291  19.397   3.325  0.00  0.00     0.059 A 
HETATM    9  C   UNK N   1      21.708  15.716   3.730  0.00  0.00     0.128 A 
HETATM   10  C   UNK N   1      23.514  20.072   3.521  0.00  0.00     0.026 A 
BRANCH   7  11
HETATM   11  C   UNK N   1      20.118  17.222   2.509  0.00  0.00     0.125 C 
BRANCH  11  12
HETATM   12  C   UNK N   1      20.077  16.171   1.420  0.00  0.00     0.046 C 
BRANCH  12  13
HETATM   13  C   UNK N   1      19.912  16.879   0.091  0.00  0.00     0.165 C 
BRANCH  13  14
HETATM   14  O   UNK N   1      20.240  18.226   0.232  0.00  0.00    -0.401 OA
HETATM   15  H   UNK N   1      20.647  18.674   0.989  0.00  0.00     0.209 HD
ENDBRANCH  13  14
ENDBRANCH  12  13
ENDBRANCH  11  12
ENDBRANCH   7  11
BRANCH   8  16
HETATM   16  C   UNK N   1      21.108  20.237   2.966  0.00  0.00     0.251 C 
HETATM   17  O   UNK N   1      20.322  20.622   3.814  0.00  0.00    -0.268 OA
HETATM   18  N   UNK N   1      20.939  20.650   1.695  0.00  0.00    -0.366 N 
HETATM   19  H   UNK N   1      20.082  21.045   1.413  0.00  0.00     0.159 HD
HETATM   20  H   UNK N   1      21.674  20.556   1.046  0.00  0.00     0.159 HD
ENDBRANCH   8  16
ENDBRANCH   1   2
BRANCH   1  21
HETATM   21  C   UNK N   1      26.885  19.272   5.002  0.00  0.00     0.076 C 
HETATM   22  C   UNK N   1      28.332  19.369   4.510  0.00  0.00     0.032 C 
BRANCH  21  23
HETATM   23  N   UNK N   1      26.736  19.560   6.434  0.00  0.00    -0.415 N 
HETATM   24  H   UNK N   1      25.843  19.770   6.881  0.00  0.00     0.153 HD
BRANCH  23  25
HETATM   25  C   UNK N   1      28.011  19.514   7.148  0.00  0.00     0.141 C 
BRANCH  25  26
HETATM   26  C   UNK N   1      28.102  18.290   8.044  0.00  0.00     0.195 C 
BRANCH  26  27
HETATM   27  O   UNK N   1      28.857  17.322   7.418  0.00  0.00    -0.347 OA
BRANCH  27  28
HETATM   28  C   UNK N   1      30.208  17.382   7.304  0.00  0.00     0.102 A 
HETATM   29  C   UNK N   1      30.839  17.079   6.071  0.00  0.00     0.102 A 
HETATM   30  C   UNK N   1      32.232  17.181   5.975  0.00  0.00     0.039 A 
HETATM   31  C   UNK N   1      33.003  17.550   7.079  0.00  0.00     0.003 A 
HETATM   32  C   UNK N   1      32.388  17.833   8.295  0.00  0.00     0.003 A 
HETATM   33  C   UNK N   1      31.000  17.757   8.407  0.00  0.00     0.039 A 
BRANCH  29  34
HETATM   34  O   UNK N   1      30.165  16.678   4.962  0.00  0.00    -0.340 OA
BRANCH  34  35
HETATM   35  C   UNK N   1      29.574  15.446   4.775  0.00  0.00     0.293 C 
BRANCH  35  36
HETATM   36  C   UNK N   1      28.302  15.564   3.949  0.00  0.00     0.408 C 
HETATM   37  F   UNK N   1      27.254  15.977   4.750  0.00  0.00    -0.169 F 
HETATM   38  F   UNK N   1      28.476  16.467   2.915  0.00  0.00    -0.169 F 
HETATM   39  F   UNK N   1      28.002  14.326   3.413  0.00  0.00    -0.169 F 
ENDBRANCH  35  36
ENDBRANCH  34  35
ENDBRANCH  29  34
ENDBRANCH  27  28
ENDBRANCH  26  27
ENDBRANCH  25  26
ENDBRANCH  23  25
ENDBRANCH  21  23
ENDBRANCH   1  21
TORSDOF 15
ENDMDL
MODEL 6
REMARK VINA RESULT:      -6.9      4.269      6.208
REMARK  15 active torsions:
REMARK  status: ('A' for Active; 'I' for Inactive)
REMARK    1  A    between atoms: O_4  and  C_25 
REMARK    2  A    between atoms: O_6  and  C_27 
REMARK    3  A    between atoms: O_6  and  C_28 
REMARK    4  A    between atoms: O_7  and  C_29 
REMARK    5  A    between atoms: O_7  and  C_34 
REMARK    6  A    between atoms: N_8  and  C_15 
REMARK    7  A    between atoms: C_21  and  N_9 
REMARK    8  A    between atoms: N_9  and  C_26 
REMARK       I    between atoms: N_10  and  C_23 
REMARK    9  A    between atoms: C_15  and  C_22 
REMARK   10  A    between atoms: C_16  and  C_19 
REMARK   11  A    between atoms: C_17  and  C_23 
REMARK   12  A    between atoms: C_19  and  C_21 
REMARK   13  A    between atoms: C_22  and  C_25 
REMARK   14  A    between atoms: C_26  and  C_27 
REMARK   15  A    between atoms: C_34  and  C_35 
ROOT
HETATM    1  C   UNK N   1      26.898  18.014   4.297  0.00  0.00     0.062 C 
ENDROOT
BRANCH   1   2
HETATM    2  C   UNK N   1      27.930  17.760   5.339  0.00  0.00    -0.055 A 
HETATM    3  C   UNK N   1      27.811  18.375   6.586  0.00  0.00     0.016 A 
HETATM    4  C   UNK N   1      28.759  18.094   7.560  0.00  0.00    -0.029 A 
HETATM    5  C   UNK N   1      29.807  17.244   7.338  0.00  0.00     0.052 A 
HETATM    6  C   UNK N   1      28.792  18.666   8.933  0.00  0.00     0.060 A 
HETATM    7  N   UNK N   1      30.626  17.209   8.481  0.00  0.00    -0.379 N 
HETATM    8  C   UNK N   1      29.949  16.579   6.082  0.00  0.00     0.059 A 
HETATM    9  C   UNK N   1      30.074  18.032   9.535  0.00  0.00     0.128 A 
HETATM   10  C   UNK N   1      28.984  16.866   5.093  0.00  0.00     0.026 A 
BRANCH   7  11
HETATM   11  C   UNK N   1      32.023  16.864   8.476  0.00  0.00     0.125 C 
BRANCH  11  12
HETATM   12  C   UNK N   1      32.887  18.055   8.117  0.00  0.00     0.046 C 
BRANCH  12  13
HETATM   13  C   UNK N   1      34.147  17.538   7.456  0.00  0.00     0.165 C 
BRANCH  13  14
HETATM   14  O   UNK N   1      34.122  17.837   6.095  0.00  0.00    -0.401 OA
HETATM   15  H   UNK N   1      34.301  18.683   5.658  0.00  0.00     0.209 HD
ENDBRANCH  13  14
ENDBRANCH  12  13
ENDBRANCH  11  12
ENDBRANCH   7  11
BRANCH   8  16
HETATM   16  C   UNK N   1      30.990  15.566   5.733  0.00  0.00     0.251 C 
HETATM   17  O   UNK N   1      30.880  14.400   6.069  0.00  0.00    -0.268 OA
HETATM   18  N   UNK N   1      32.039  15.919   4.964  0.00  0.00    -0.366 N 
HETATM   19  H   UNK N   1      32.813  15.317   4.878  0.00  0.00     0.159 HD
HETATM   20  H   UNK N   1      32.030  16.781   4.487  0.00  0.00     0.159 HD
ENDBRANCH   8  16
ENDBRANCH   1   2
BRANCH   1  21
HETATM   21  C   UNK N   1      26.055  19.224   4.683  0.00  0.00     0.076 C 
HETATM   22  C   UNK N   1      26.089  20.310   3.603  0.00  0.00     0.032 C 
BRANCH  21  23
HETATM   23  N   UNK N   1      24.695  18.829   5.071  0.00  0.00    -0.415 N 
HETATM   24  H   UNK N   1      24.449  18.478   5.996  0.00  0.00     0.153 HD
BRANCH  23  25
HETATM   25  C   UNK N   1      23.734  18.995   3.982  0.00  0.00     0.141 C 
BRANCH  25  26
HETATM   26  C   UNK N   1      22.401  18.347   4.315  0.00  0.00     0.195 C 
BRANCH  26  27
HETATM   27  O   UNK N   1      22.341  18.093   5.668  0.00  0.00    -0.347 OA
BRANCH  27  28
HETATM   28  C   UNK N   1      21.938  16.907   6.191  0.00  0.00     0.102 A 
HETATM   29  C   UNK N   1      22.882  15.891   6.482  0.00  0.00     0.102 A 
HETATM   30  C   UNK N   1      22.438  14.690   7.051  0.00  0.00     0.039 A 
HETATM   31  C   UNK N   1      21.084  14.475   7.310  0.00  0.00     0.003 A 
HETATM   32  C   UNK N   1      20.151  15.466   7.011  0.00  0.00     0.003 A 
HETATM   33  C   UNK N   1      20.574  16.676   6.462  0.00  0.00     0.039 A 
BRANCH  29  34
HETATM   34  O   UNK N   1      24.211  16.007   6.228  0.00  0.00    -0.340 OA
BRANCH  34  35
HETATM   35  C   UNK N   1      24.986  15.099   5.537  0.00  0.00     0.293 C 
BRANCH  35  36
HETATM   36  C   UNK N   1      26.115  14.564   6.406  0.00  0.00     0.408 C 
HETATM   37  F   UNK N   1      27.202  14.234   5.619  0.00  0.00    -0.169 F 
HETATM   38  F   UNK N   1      26.493  15.506   7.345  0.00  0.00    -0.169 F 
HETATM   39  F   UNK N   1      25.672  13.432   7.064  0.00  0.00    -0.169 F 
ENDBRANCH  35  36
ENDBRANCH  34  35
ENDBRANCH  29  34
ENDBRANCH  27  28
ENDBRANCH  26  27
ENDBRANCH  25  26
ENDBRANCH  23  25
ENDBRANCH  21  23
ENDBRANCH   1  21
TORSDOF 15
ENDMDL
MODEL 7
REMARK VINA RESULT:      -6.9      4.660     10.100
REMARK  15 active torsions:
REMARK  status: ('A' for Active; 'I' for Inactive)
REMARK    1  A    between atoms: O_4  and  C_25 
REMARK    2  A    between atoms: O_6  and  C_27 
REMARK    3  A    between atoms: O_6  and  C_28 
REMARK    4  A    between atoms: O_7  and  C_29 
REMARK    5  A    between atoms: O_7  and  C_34 
REMARK    6  A    between atoms: N_8  and  C_15 
REMARK    7  A    between atoms: C_21  and  N_9 
REMARK    8  A    between atoms: N_9  and  C_26 
REMARK       I    between atoms: N_10  and  C_23 
REMARK    9  A    between atoms: C_15  and  C_22 
REMARK   10  A    between atoms: C_16  and  C_19 
REMARK   11  A    between atoms: C_17  and  C_23 
REMARK   12  A    between atoms: C_19  and  C_21 
REMARK   13  A    between atoms: C_22  and  C_25 
REMARK   14  A    between atoms: C_26  and  C_27 
REMARK   15  A    between atoms: C_34  and  C_35 
ROOT
HETATM    1  C   UNK N   1      26.425  20.572   3.642  0.00  0.00     0.062 C 
ENDROOT
BRANCH   1   2
HETATM    2  C   UNK N   1      25.085  19.923   3.604  0.00  0.00    -0.055 A 
HETATM    3  C   UNK N   1      24.873  18.745   4.321  0.00  0.00     0.016 A 
HETATM    4  C   UNK N   1      23.607  18.177   4.308  0.00  0.00    -0.029 A 
HETATM    5  C   UNK N   1      22.565  18.725   3.613  0.00  0.00     0.052 A 
HETATM    6  C   UNK N   1      23.209  16.923   5.004  0.00  0.00     0.060 A 
HETATM    7  N   UNK N   1      21.436  17.896   3.739  0.00  0.00    -0.379 N 
HETATM    8  C   UNK N   1      22.739  19.942   2.885  0.00  0.00     0.059 A 
HETATM    9  C   UNK N   1      21.719  16.769   4.601  0.00  0.00     0.128 A 
HETATM   10  C   UNK N   1      24.027  20.518   2.899  0.00  0.00     0.026 A 
BRANCH   7  11
HETATM   11  C   UNK N   1      20.350  17.844   2.797  0.00  0.00     0.125 C 
BRANCH  11  12
HETATM   12  C   UNK N   1      20.402  16.582   1.960  0.00  0.00     0.046 C 
BRANCH  12  13
HETATM   13  C   UNK N   1      19.873  16.913   0.580  0.00  0.00     0.165 C 
BRANCH  13  14
HETATM   14  O   UNK N   1      20.299  18.185   0.205  0.00  0.00    -0.401 OA
HETATM   15  H   UNK N   1      20.556  18.929   0.771  0.00  0.00     0.209 HD
ENDBRANCH  13  14
ENDBRANCH  12  13
ENDBRANCH  11  12
ENDBRANCH   7  11
BRANCH   8  16
HETATM   16  C   UNK N   1      21.672  20.693   2.156  0.00  0.00     0.251 C 
HETATM   17  O   UNK N   1      21.581  20.650   0.942  0.00  0.00    -0.268 OA
HETATM   18  N   UNK N   1      20.738  21.373   2.850  0.00  0.00    -0.366 N 
HETATM   19  H   UNK N   1      20.146  22.010   2.387  0.00  0.00     0.159 HD
HETATM   20  H   UNK N   1      20.646  21.232   3.820  0.00  0.00     0.159 HD
ENDBRANCH   8  16
ENDBRANCH   1   2
BRANCH   1  21
HETATM   21  C   UNK N   1      27.035  20.423   5.030  0.00  0.00     0.076 C 
HETATM   22  C   UNK N   1      26.316  21.294   6.065  0.00  0.00     0.032 C 
BRANCH  21  23
HETATM   23  N   UNK N   1      27.135  19.013   5.424  0.00  0.00    -0.415 N 
HETATM   24  H   UNK N   1      26.328  18.413   5.595  0.00  0.00     0.153 HD
BRANCH  23  25
HETATM   25  C   UNK N   1      28.521  18.564   5.545  0.00  0.00     0.141 C 
BRANCH  25  26
HETATM   26  C   UNK N   1      28.862  17.523   4.492  0.00  0.00     0.195 C 
BRANCH  26  27
HETATM   27  O   UNK N   1      29.742  16.606   5.025  0.00  0.00    -0.347 OA
BRANCH  27  28
HETATM   28  C   UNK N   1      30.987  16.926   5.458  0.00  0.00     0.102 A 
HETATM   29  C   UNK N   1      31.277  16.966   6.846  0.00  0.00     0.102 A 
HETATM   30  C   UNK N   1      32.580  17.269   7.262  0.00  0.00     0.039 A 
HETATM   31  C   UNK N   1      33.583  17.552   6.333  0.00  0.00     0.003 A 
HETATM   32  C   UNK N   1      33.298  17.528   4.970  0.00  0.00     0.003 A 
HETATM   33  C   UNK N   1      32.012  17.211   4.534  0.00  0.00     0.039 A 
BRANCH  29  34
HETATM   34  O   UNK N   1      30.351  16.738   7.812  0.00  0.00    -0.340 OA
BRANCH  34  35
HETATM   35  C   UNK N   1      30.419  17.175   9.119  0.00  0.00     0.293 C 
BRANCH  35  36
HETATM   36  C   UNK N   1      29.433  18.307   9.373  0.00  0.00     0.408 C 
HETATM   37  F   UNK N   1      29.761  18.966  10.543  0.00  0.00    -0.169 F 
HETATM   38  F   UNK N   1      29.441  19.203   8.319  0.00  0.00    -0.169 F 
HETATM   39  F   UNK N   1      28.164  17.773   9.494  0.00  0.00    -0.169 F 
ENDBRANCH  35  36
ENDBRANCH  34  35
ENDBRANCH  29  34
ENDBRANCH  27  28
ENDBRANCH  26  27
ENDBRANCH  25  26
ENDBRANCH  23  25
ENDBRANCH  21  23
ENDBRANCH   1  21
TORSDOF 15
ENDMDL
MODEL 8
REMARK VINA RESULT:      -6.8      5.355     10.519
REMARK  15 active torsions:
REMARK  status: ('A' for Active; 'I' for Inactive)
REMARK    1  A    between atoms: O_4  and  C_25 
REMARK    2  A    between atoms: O_6  and  C_27 
REMARK    3  A    between atoms: O_6  and  C_28 
REMARK    4  A    between atoms: O_7  and  C_29 
REMARK    5  A    between atoms: O_7  and  C_34 
REMARK    6  A    between atoms: N_8  and  C_15 
REMARK    7  A    between atoms: C_21  and  N_9 
REMARK    8  A    between atoms: N_9  and  C_26 
REMARK       I    between atoms: N_10  and  C_23 
REMARK    9  A    between atoms: C_15  and  C_22 
REMARK   10  A    between atoms: C_16  and  C_19 
REMARK   11  A    between atoms: C_17  and  C_23 
REMARK   12  A    between atoms: C_19  and  C_21 
REMARK   13  A    between atoms: C_22  and  C_25 
REMARK   14  A    between atoms: C_26  and  C_27 
REMARK   15  A    between atoms: C_34  and  C_35 
ROOT
HETATM    1  C   UNK N   1      25.595  18.997   4.820  0.00  0.00     0.062 C 
ENDROOT
BRANCH   1   2
HETATM    2  C   UNK N   1      24.276  18.527   4.312  0.00  0.00    -0.055 A 
HETATM    3  C   UNK N   1      23.981  17.163   4.332  0.00  0.00     0.016 A 
HETATM    4  C   UNK N   1      22.731  16.747   3.895  0.00  0.00    -0.029 A 
HETATM    5  C   UNK N   1      21.785  17.623   3.439  0.00  0.00     0.052 A 
HETATM    6  C   UNK N   1      22.254  15.338   3.838  0.00  0.00     0.060 A 
HETATM    7  N   UNK N   1      20.655  16.903   3.011  0.00  0.00    -0.379 N 
HETATM    8  C   UNK N   1      22.044  19.028   3.425  0.00  0.00     0.059 A 
HETATM    9  C   UNK N   1      20.831  15.485   3.239  0.00  0.00     0.128 A 
HETATM   10  C   UNK N   1      23.315  19.449   3.870  0.00  0.00     0.026 A 
BRANCH   7  11
HETATM   11  C   UNK N   1      19.702  17.378   2.043  0.00  0.00     0.125 C 
BRANCH  11  12
HETATM   12  C   UNK N   1      20.190  17.152   0.627  0.00  0.00     0.046 C 
BRANCH  12  13
HETATM   13  C   UNK N   1      19.224  16.207  -0.057  0.00  0.00     0.165 C 
BRANCH  13  14
HETATM   14  O   UNK N   1      17.948  16.767  -0.070  0.00  0.00    -0.401 OA
HETATM   15  H   UNK N   1      17.340  16.869  -0.818  0.00  0.00     0.209 HD
ENDBRANCH  13  14
ENDBRANCH  12  13
ENDBRANCH  11  12
ENDBRANCH   7  11
BRANCH   8  16
HETATM   16  C   UNK N   1      21.077  20.098   3.037  0.00  0.00     0.251 C 
HETATM   17  O   UNK N   1      20.320  20.597   3.851  0.00  0.00    -0.268 OA
HETATM   18  N   UNK N   1      21.085  20.586   1.781  0.00  0.00    -0.366 N 
HETATM   19  H   UNK N   1      20.346  21.155   1.466  0.00  0.00     0.159 HD
HETATM   20  H   UNK N   1      21.834  20.375   1.176  0.00  0.00     0.159 HD
ENDBRANCH   8  16
ENDBRANCH   1   2
BRANCH   1  21
HETATM   21  C   UNK N   1      26.541  19.247   3.652  0.00  0.00     0.076 C 
HETATM   22  C   UNK N   1      26.351  20.644   3.053  0.00  0.00     0.032 C 
BRANCH  21  23
HETATM   23  N   UNK N   1      27.933  18.955   4.017  0.00  0.00    -0.415 N 
HETATM   24  H   UNK N   1      28.620  19.671   4.254  0.00  0.00     0.153 HD
BRANCH  23  25
HETATM   25  C   UNK N   1      28.225  17.523   4.002  0.00  0.00     0.141 C 
BRANCH  25  26
HETATM   26  C   UNK N   1      29.566  17.221   4.650  0.00  0.00     0.195 C 
BRANCH  26  27
HETATM   27  O   UNK N   1      29.357  16.600   5.863  0.00  0.00    -0.347 OA
BRANCH  27  28
HETATM   28  C   UNK N   1      29.396  17.249   7.054  0.00  0.00     0.102 A 
HETATM   29  C   UNK N   1      30.622  17.398   7.752  0.00  0.00     0.102 A 
HETATM   30  C   UNK N   1      30.636  18.100   8.963  0.00  0.00     0.039 A 
HETATM   31  C   UNK N   1      29.461  18.630   9.500  0.00  0.00     0.003 A 
HETATM   32  C   UNK N   1      28.253  18.472   8.826  0.00  0.00     0.003 A 
HETATM   33  C   UNK N   1      28.220  17.793   7.609  0.00  0.00     0.039 A 
BRANCH  29  34
HETATM   34  O   UNK N   1      31.800  16.883   7.315  0.00  0.00    -0.340 OA
BRANCH  34  35
HETATM   35  C   UNK N   1      32.826  16.419   8.112  0.00  0.00     0.293 C 
BRANCH  35  36
HETATM   36  C   UNK N   1      34.117  17.180   7.848  0.00  0.00     0.408 C 
HETATM   37  F   UNK N   1      34.851  17.286   9.014  0.00  0.00    -0.169 F 
HETATM   38  F   UNK N   1      34.872  16.535   6.884  0.00  0.00    -0.169 F 
HETATM   39  F   UNK N   1      33.802  18.446   7.393  0.00  0.00    -0.169 F 
ENDBRANCH  35  36
ENDBRANCH  34  35
ENDBRANCH  29  34
ENDBRANCH  27  28
ENDBRANCH  26  27
ENDBRANCH  25  26
ENDBRANCH  23  25
ENDBRANCH  21  23
ENDBRANCH   1  21
TORSDOF 15
ENDMDL
MODEL 9
REMARK VINA RESULT:      -6.7      3.622      8.909
REMARK  15 active torsions:
REMARK  status: ('A' for Active; 'I' for Inactive)
REMARK    1  A    between atoms: O_4  and  C_25 
REMARK    2  A    between atoms: O_6  and  C_27 
REMARK    3  A    between atoms: O_6  and  C_28 
REMARK    4  A    between atoms: O_7  and  C_29 
REMARK    5  A    between atoms: O_7  and  C_34 
REMARK    6  A    between atoms: N_8  and  C_15 
REMARK    7  A    between atoms: C_21  and  N_9 
REMARK    8  A    between atoms: N_9  and  C_26 
REMARK       I    between atoms: N_10  and  C_23 
REMARK    9  A    between atoms: C_15  and  C_22 
REMARK   10  A    between atoms: C_16  and  C_19 
REMARK   11  A    between atoms: C_17  and  C_23 
REMARK   12  A    between atoms: C_19  and  C_21 
REMARK   13  A    between atoms: C_22  and  C_25 
REMARK   14  A    between atoms: C_26  and  C_27 
REMARK   15  A    between atoms: C_34  and  C_35 
ROOT
HETATM    1  C   UNK N   1      27.885  15.452   2.899  0.00  0.00     0.062 C 
ENDROOT
BRANCH   1   2
HETATM    2  C   UNK N   1      26.657  16.248   3.177  0.00  0.00    -0.055 A 
HETATM    3  C   UNK N   1      25.475  15.590   3.516  0.00  0.00     0.016 A 
HETATM    4  C   UNK N   1      24.352  16.349   3.812  0.00  0.00    -0.029 A 
HETATM    5  C   UNK N   1      24.362  17.716   3.777  0.00  0.00     0.052 A 
HETATM    6  C   UNK N   1      23.013  15.815   4.181  0.00  0.00     0.060 A 
HETATM    7  N   UNK N   1      23.071  18.196   4.061  0.00  0.00    -0.379 N 
HETATM    8  C   UNK N   1      25.559  18.425   3.456  0.00  0.00     0.059 A 
HETATM    9  C   UNK N   1      22.167  17.104   4.352  0.00  0.00     0.128 A 
HETATM   10  C   UNK N   1      26.700  17.652   3.154  0.00  0.00     0.026 A 
BRANCH   7  11
HETATM   11  C   UNK N   1      22.562  19.475   3.640  0.00  0.00     0.125 C 
BRANCH  11  12
HETATM   12  C   UNK N   1      21.062  19.437   3.442  0.00  0.00     0.046 C 
BRANCH  12  13
HETATM   13  C   UNK N   1      20.661  20.670   2.658  0.00  0.00     0.165 C 
BRANCH  13  14
HETATM   14  O   UNK N   1      21.674  21.624   2.731  0.00  0.00    -0.401 OA
HETATM   15  H   UNK N   1      22.251  21.949   2.023  0.00  0.00     0.209 HD
ENDBRANCH  13  14
ENDBRANCH  12  13
ENDBRANCH  11  12
ENDBRANCH   7  11
BRANCH   8  16
HETATM   16  C   UNK N   1      25.734  19.909   3.463  0.00  0.00     0.251 C 
HETATM   17  O   UNK N   1      25.618  20.568   2.445  0.00  0.00    -0.268 OA
HETATM   18  N   UNK N   1      25.947  20.554   4.627  0.00  0.00    -0.366 N 
HETATM   19  H   UNK N   1      26.239  21.494   4.625  0.00  0.00     0.159 HD
HETATM   20  H   UNK N   1      25.810  20.083   5.482  0.00  0.00     0.159 HD
ENDBRANCH   8  16
ENDBRANCH   1   2
BRANCH   1  21
HETATM   21  C   UNK N   1      29.027  15.932   3.786  0.00  0.00     0.076 C 
HETATM   22  C   UNK N   1      29.573  14.807   4.671  0.00  0.00     0.032 C 
BRANCH  21  23
HETATM   23  N   UNK N   1      30.065  16.614   3.004  0.00  0.00    -0.415 N 
HETATM   24  H   UNK N   1      29.887  17.422   2.408  0.00  0.00     0.153 HD
BRANCH  23  25
HETATM   25  C   UNK N   1      31.383  16.004   3.174  0.00  0.00     0.141 C 
BRANCH  25  26
HETATM   26  C   UNK N   1      32.394  17.006   3.708  0.00  0.00     0.195 C 
BRANCH  26  27
HETATM   27  O   UNK N   1      31.875  17.628   4.823  0.00  0.00    -0.347 OA
BRANCH  27  28
HETATM   28  C   UNK N   1      32.373  17.461   6.074  0.00  0.00     0.102 A 
HETATM   29  C   UNK N   1      31.507  17.178   7.161  0.00  0.00     0.102 A 
HETATM   30  C   UNK N   1      32.053  16.980   8.435  0.00  0.00     0.039 A 
HETATM   31  C   UNK N   1      33.429  17.080   8.650  0.00  0.00     0.003 A 
HETATM   32  C   UNK N   1      34.281  17.372   7.588  0.00  0.00     0.003 A 
HETATM   33  C   UNK N   1      33.759  17.555   6.308  0.00  0.00     0.039 A 
BRANCH  29  34
HETATM   34  O   UNK N   1      30.156  17.100   7.042  0.00  0.00    -0.340 OA
BRANCH  34  35
HETATM   35  C   UNK N   1      29.240  17.929   7.654  0.00  0.00     0.293 C 
BRANCH  35  36
HETATM   36  C   UNK N   1      28.199  18.428   6.661  0.00  0.00     0.408 C 
HETATM   37  F   UNK N   1      27.526  19.514   7.188  0.00  0.00    -0.169 F 
HETATM   38  F   UNK N   1      28.800  18.789   5.469  0.00  0.00    -0.169 F 
HETATM   39  F   UNK N   1      27.296  17.411   6.415  0.00  0.00    -0.169 F 
ENDBRANCH  35  36
ENDBRANCH  34  35
ENDBRANCH  29  34
ENDBRANCH  27  28
ENDBRANCH  26  27
ENDBRANCH  25  26
ENDBRANCH  23  25
ENDBRANCH  21  23
ENDBRANCH   1  21
TORSDOF 15
ENDMDL
