MODEL 1
REMARK VINA RESULT:      -7.5      0.000      0.000
REMARK  9 active torsions:
REMARK  status: ('A' for Active; 'I' for Inactive)
REMARK    1  A    between atoms: C_6  and  N_1 
REMARK    2  A    between atoms: C_7  and  C_2 
REMARK    3  A    between atoms: C_13  and  C_6 
REMARK    4  A    between atoms: N_10  and  C_26 
REMARK    5  A    between atoms: O_27  and  C_14 
REMARK    6  A    between atoms: O_28  and  C_17 
REMARK    7  A    between atoms: O_25  and  C_18 
REMARK    8  A    between atoms: C_29  and  O_25 
REMARK    9  A    between atoms: C_26  and  C_29 
ROOT
HETATM    1  N   UNK N   1      27.452  23.893  -4.831  0.00  0.00    -0.341 N 
HETATM    2  C   UNK N   1      27.835  23.673  -6.117  0.00  0.00     0.052 A 
HETATM    3  C   UNK N   1      29.116  23.099  -6.115  0.00  0.00    -0.022 A 
HETATM    4  C   UNK N   1      29.499  22.999  -4.790  0.00  0.00     0.002 A 
HETATM    5  C   UNK N   1      28.456  23.474  -4.032  0.00  0.00     0.046 A 
HETATM    6  C   UNK N   1      28.516  23.458  -2.636  0.00  0.00     0.033 A 
HETATM    7  C   UNK N   1      30.669  22.510  -4.205  0.00  0.00     0.051 A 
HETATM    8  C   UNK N   1      30.763  22.521  -2.798  0.00  0.00     0.066 A 
HETATM    9  C   UNK N   1      29.921  22.661  -7.291  0.00  0.00     0.051 C 
HETATM   10  C   UNK N   1      29.685  22.989  -2.018  0.00  0.00     0.039 A 
ENDROOT
BRANCH   1  11
HETATM   11  C   UNK N   1      26.105  24.358  -4.474  0.00  0.00     0.168 C 
BRANCH  11  12
HETATM   12  C   UNK N   1      25.852  25.807  -4.307  0.00  0.00    -0.040 C 
HETATM   13  C   UNK N   1      25.373  26.590  -5.351  0.00  0.00     0.011 C 
HETATM   14  C   UNK N   1      25.586  27.957  -5.334  0.00  0.00     0.037 C 
HETATM   15  C   UNK N   1      26.265  28.555  -4.261  0.00  0.00     0.068 C 
HETATM   16  C   UNK N   1      26.606  27.787  -3.148  0.00  0.00     0.037 C 
HETATM   17  C   UNK N   1      26.419  26.409  -3.183  0.00  0.00     0.011 C 
BRANCH  15  18
HETATM   18  O   UNK N   1      26.686  29.836  -4.328  0.00  0.00    -0.349 OA
BRANCH  18  19
HETATM   19  C   UNK N   1      27.791  30.279  -3.628  0.00  0.00     0.206 C 
BRANCH  19  20
HETATM   20  C   UNK N   1      28.987  30.444  -4.561  0.00  0.00     0.299 C 
BRANCH  20  21
HETATM   21  N   UNK N   1      29.895  29.295  -4.538  0.00  0.00     0.090 N 
HETATM   22  C   UNK N   1      29.861  28.644  -3.227  0.00  0.00     0.272 C 
HETATM   23  C   UNK N   1      31.123  27.823  -3.019  0.00  0.00     0.030 C 
HETATM   24  C   UNK N   1      30.904  26.388  -3.475  0.00  0.00     0.002 C 
HETATM   25  C   UNK N   1      30.734  26.288  -4.984  0.00  0.00     0.002 C 
HETATM   26  C   UNK N   1      29.437  26.945  -5.427  0.00  0.00     0.030 C 
HETATM   27  C   UNK N   1      29.647  28.435  -5.713  0.00  0.00     0.272 C 
ENDBRANCH  20  21
ENDBRANCH  19  20
ENDBRANCH  18  19
ENDBRANCH  15  18
ENDBRANCH  11  12
ENDBRANCH   1  11
BRANCH   2  28
HETATM   28  C   UNK N   1      26.965  23.969  -7.300  0.00  0.00    -0.009 A 
HETATM   29  C   UNK N   1      27.110  25.188  -7.985  0.00  0.00     0.016 A 
HETATM   30  C   UNK N   1      26.297  25.526  -9.060  0.00  0.00     0.037 A 
HETATM   31  C   UNK N   1      25.306  24.645  -9.470  0.00  0.00     0.065 A 
HETATM   32  C   UNK N   1      25.144  23.417  -8.814  0.00  0.00     0.037 A 
HETATM   33  C   UNK N   1      25.976  23.076  -7.736  0.00  0.00     0.016 A 
BRANCH  31  34
HETATM   34  O   UNK N   1      24.507  24.977 -10.496  0.00  0.00    -0.361 OA
HETATM   35  H   UNK N   1      23.611  24.705 -10.499  0.00  0.00     0.217 HD
ENDBRANCH  31  34
ENDBRANCH   2  28
BRANCH   8  36
HETATM   36  O   UNK N   1      31.879  22.081  -2.195  0.00  0.00    -0.361 OA
HETATM   37  H   UNK N   1      32.276  22.586  -1.514  0.00  0.00     0.217 HD
ENDBRANCH   8  36
TORSDOF 9
ENDMDL
MODEL 2
REMARK VINA RESULT:      -7.0     14.789     19.148
REMARK  9 active torsions:
REMARK  status: ('A' for Active; 'I' for Inactive)
REMARK    1  A    between atoms: C_6  and  N_1 
REMARK    2  A    between atoms: C_7  and  C_2 
REMARK    3  A    between atoms: C_13  and  C_6 
REMARK    4  A    between atoms: N_10  and  C_26 
REMARK    5  A    between atoms: O_27  and  C_14 
REMARK    6  A    between atoms: O_28  and  C_17 
REMARK    7  A    between atoms: O_25  and  C_18 
REMARK    8  A    between atoms: C_29  and  O_25 
REMARK    9  A    between atoms: C_26  and  C_29 
ROOT
HETATM    1  N   UNK N   1      32.005  17.102   6.891  0.00  0.00    -0.341 N 
HETATM    2  C   UNK N   1      31.520  16.341   5.874  0.00  0.00     0.052 A 
HETATM    3  C   UNK N   1      30.126  16.247   6.006  0.00  0.00    -0.022 A 
HETATM    4  C   UNK N   1      29.790  16.959   7.143  0.00  0.00     0.002 A 
HETATM    5  C   UNK N   1      30.956  17.483   7.649  0.00  0.00     0.046 A 
HETATM    6  C   UNK N   1      30.943  18.304   8.779  0.00  0.00     0.033 A 
HETATM    7  C   UNK N   1      28.555  17.196   7.749  0.00  0.00     0.051 A 
HETATM    8  C   UNK N   1      28.528  17.991   8.913  0.00  0.00     0.066 A 
HETATM    9  C   UNK N   1      29.170  15.540   5.106  0.00  0.00     0.051 C 
HETATM   10  C   UNK N   1      29.720  18.547   9.421  0.00  0.00     0.039 A 
ENDROOT
BRANCH   1  11
HETATM   11  C   UNK N   1      33.414  17.513   6.971  0.00  0.00     0.168 C 
BRANCH  11  12
HETATM   12  C   UNK N   1      34.349  16.755   7.833  0.00  0.00    -0.040 C 
HETATM   13  C   UNK N   1      34.992  15.609   7.382  0.00  0.00     0.011 C 
HETATM   14  C   UNK N   1      35.462  14.683   8.297  0.00  0.00     0.037 C 
HETATM   15  C   UNK N   1      35.308  14.907   9.674  0.00  0.00     0.068 C 
HETATM   16  C   UNK N   1      34.801  16.127  10.121  0.00  0.00     0.037 C 
HETATM   17  C   UNK N   1      34.301  17.040   9.198  0.00  0.00     0.011 C 
BRANCH  15  18
HETATM   18  O   UNK N   1      35.545  13.927  10.572  0.00  0.00    -0.349 OA
BRANCH  18  19
HETATM   19  C   UNK N   1      34.806  13.805  11.731  0.00  0.00     0.206 C 
BRANCH  19  20
HETATM   20  C   UNK N   1      35.701  13.965  12.958  0.00  0.00     0.299 C 
BRANCH  20  21
HETATM   21  N   UNK N   1      35.734  12.768  13.802  0.00  0.00     0.090 N 
HETATM   22  C   UNK N   1      35.471  13.120  15.199  0.00  0.00     0.272 C 
HETATM   23  C   UNK N   1      36.004  12.035  16.120  0.00  0.00     0.030 C 
HETATM   24  C   UNK N   1      34.918  11.013  16.420  0.00  0.00     0.002 C 
HETATM   25  C   UNK N   1      34.546  10.197  15.190  0.00  0.00     0.002 C 
HETATM   26  C   UNK N   1      33.860  11.069  14.150  0.00  0.00     0.030 C 
HETATM   27  C   UNK N   1      34.885  11.713  13.213  0.00  0.00     0.272 C 
ENDBRANCH  20  21
ENDBRANCH  19  20
ENDBRANCH  18  19
ENDBRANCH  15  18
ENDBRANCH  11  12
ENDBRANCH   1  11
BRANCH   2  28
HETATM   28  C   UNK N   1      32.380  15.766   4.790  0.00  0.00    -0.009 A 
HETATM   29  C   UNK N   1      32.710  16.553   3.672  0.00  0.00     0.016 A 
HETATM   30  C   UNK N   1      33.467  16.051   2.621  0.00  0.00     0.037 A 
HETATM   31  C   UNK N   1      33.909  14.735   2.664  0.00  0.00     0.065 A 
HETATM   32  C   UNK N   1      33.605  13.930   3.771  0.00  0.00     0.037 A 
HETATM   33  C   UNK N   1      32.848  14.446   4.835  0.00  0.00     0.016 A 
BRANCH  31  34
HETATM   34  O   UNK N   1      34.625  14.242   1.642  0.00  0.00    -0.361 OA
HETATM   35  H   UNK N   1      34.235  13.631   1.049  0.00  0.00     0.217 HD
ENDBRANCH  31  34
ENDBRANCH   2  28
BRANCH   8  36
HETATM   36  O   UNK N   1      27.363  18.227   9.540  0.00  0.00    -0.361 OA
HETATM   37  H   UNK N   1      27.141  17.749  10.314  0.00  0.00     0.217 HD
ENDBRANCH   8  36
TORSDOF 9
ENDMDL
MODEL 3
REMARK VINA RESULT:      -7.0      1.979      6.196
REMARK  9 active torsions:
REMARK  status: ('A' for Active; 'I' for Inactive)
REMARK    1  A    between atoms: C_6  and  N_1 
REMARK    2  A    between atoms: C_7  and  C_2 
REMARK    3  A    between atoms: C_13  and  C_6 
REMARK    4  A    between atoms: N_10  and  C_26 
REMARK    5  A    between atoms: O_27  and  C_14 
REMARK    6  A    between atoms: O_28  and  C_17 
REMARK    7  A    between atoms: O_25  and  C_18 
REMARK    8  A    between atoms: C_29  and  O_25 
REMARK    9  A    between atoms: C_26  and  C_29 
ROOT
HETATM    1  N   UNK N   1      26.166  24.799  -5.826  0.00  0.00    -0.341 N 
HETATM    2  C   UNK N   1      26.292  25.921  -6.586  0.00  0.00     0.052 A 
HETATM    3  C   UNK N   1      26.094  25.578  -7.932  0.00  0.00    -0.022 A 
HETATM    4  C   UNK N   1      25.865  24.214  -7.962  0.00  0.00     0.002 A 
HETATM    5  C   UNK N   1      25.897  23.773  -6.660  0.00  0.00     0.046 A 
HETATM    6  C   UNK N   1      25.647  22.434  -6.349  0.00  0.00     0.033 A 
HETATM    7  C   UNK N   1      25.613  23.346  -9.026  0.00  0.00     0.051 A 
HETATM    8  C   UNK N   1      25.396  21.983  -8.734  0.00  0.00     0.066 A 
HETATM    9  C   UNK N   1      26.108  26.485  -9.116  0.00  0.00     0.051 C 
HETATM   10  C   UNK N   1      25.408  21.533  -7.398  0.00  0.00     0.039 A 
ENDROOT
BRANCH   1  11
HETATM   11  C   UNK N   1      26.178  24.832  -4.357  0.00  0.00     0.168 C 
BRANCH  11  12
HETATM   12  C   UNK N   1      27.462  24.697  -3.634  0.00  0.00    -0.040 C 
HETATM   13  C   UNK N   1      28.601  25.387  -4.031  0.00  0.00     0.011 C 
HETATM   14  C   UNK N   1      29.850  24.913  -3.669  0.00  0.00     0.037 C 
HETATM   15  C   UNK N   1      29.968  23.752  -2.888  0.00  0.00     0.068 C 
HETATM   16  C   UNK N   1      28.822  23.153  -2.366  0.00  0.00     0.037 C 
HETATM   17  C   UNK N   1      27.569  23.615  -2.759  0.00  0.00     0.011 C 
BRANCH  15  18
HETATM   18  O   UNK N   1      31.161  23.144  -2.717  0.00  0.00    -0.349 OA
BRANCH  18  19
HETATM   19  C   UNK N   1      31.471  21.956  -3.348  0.00  0.00     0.206 C 
BRANCH  19  20
HETATM   20  C   UNK N   1      32.255  22.218  -4.632  0.00  0.00     0.299 C 
BRANCH  20  21
HETATM   21  N   UNK N   1      31.515  21.847  -5.840  0.00  0.00     0.090 N 
HETATM   22  C   UNK N   1      30.635  20.708  -5.571  0.00  0.00     0.272 C 
HETATM   23  C   UNK N   1      30.280  20.004  -6.870  0.00  0.00     0.030 C 
HETATM   24  C   UNK N   1      28.987  20.565  -7.442  0.00  0.00     0.002 C 
HETATM   25  C   UNK N   1      29.151  22.000  -7.922  0.00  0.00     0.002 C 
HETATM   26  C   UNK N   1      29.393  22.938  -6.750  0.00  0.00     0.030 C 
HETATM   27  C   UNK N   1      30.887  23.045  -6.433  0.00  0.00     0.272 C 
ENDBRANCH  20  21
ENDBRANCH  19  20
ENDBRANCH  18  19
ENDBRANCH  15  18
ENDBRANCH  11  12
ENDBRANCH   1  11
BRANCH   2  28
HETATM   28  C   UNK N   1      26.549  27.280  -6.014  0.00  0.00    -0.009 A 
HETATM   29  C   UNK N   1      27.630  28.044  -6.490  0.00  0.00     0.016 A 
HETATM   30  C   UNK N   1      27.934  29.292  -5.961  0.00  0.00     0.037 A 
HETATM   31  C   UNK N   1      27.161  29.804  -4.927  0.00  0.00     0.065 A 
HETATM   32  C   UNK N   1      26.071  29.070  -4.439  0.00  0.00     0.037 A 
HETATM   33  C   UNK N   1      25.760  27.815  -4.986  0.00  0.00     0.016 A 
BRANCH  31  34
HETATM   34  O   UNK N   1      27.465  31.001  -4.401  0.00  0.00    -0.361 OA
HETATM   35  H   UNK N   1      27.888  31.649  -4.928  0.00  0.00     0.217 HD
ENDBRANCH  31  34
ENDBRANCH   2  28
BRANCH   8  36
HETATM   36  O   UNK N   1      25.172  21.110  -9.729  0.00  0.00    -0.361 OA
HETATM   37  H   UNK N   1      24.328  21.064 -10.132  0.00  0.00     0.217 HD
ENDBRANCH   8  36
TORSDOF 9
ENDMDL
MODEL 4
REMARK VINA RESULT:      -6.8      1.601      5.194
REMARK  9 active torsions:
REMARK  status: ('A' for Active; 'I' for Inactive)
REMARK    1  A    between atoms: C_6  and  N_1 
REMARK    2  A    between atoms: C_7  and  C_2 
REMARK    3  A    between atoms: C_13  and  C_6 
REMARK    4  A    between atoms: N_10  and  C_26 
REMARK    5  A    between atoms: O_27  and  C_14 
REMARK    6  A    between atoms: O_28  and  C_17 
REMARK    7  A    between atoms: O_25  and  C_18 
REMARK    8  A    between atoms: C_29  and  O_25 
REMARK    9  A    between atoms: C_26  and  C_29 
ROOT
HETATM    1  N   UNK N   1      27.277  24.507  -7.034  0.00  0.00    -0.341 N 
HETATM    2  C   UNK N   1      28.622  24.506  -6.829  0.00  0.00     0.052 A 
HETATM    3  C   UNK N   1      29.256  24.941  -8.003  0.00  0.00    -0.022 A 
HETATM    4  C   UNK N   1      28.255  25.184  -8.925  0.00  0.00     0.002 A 
HETATM    5  C   UNK N   1      27.059  24.927  -8.297  0.00  0.00     0.046 A 
HETATM    6  C   UNK N   1      25.844  25.131  -8.956  0.00  0.00     0.033 A 
HETATM    7  C   UNK N   1      28.310  25.626 -10.248  0.00  0.00     0.051 A 
HETATM    8  C   UNK N   1      27.094  25.801 -10.941  0.00  0.00     0.066 A 
HETATM    9  C   UNK N   1      30.718  25.127  -8.234  0.00  0.00     0.051 C 
HETATM   10  C   UNK N   1      25.866  25.558 -10.292  0.00  0.00     0.039 A 
ENDROOT
BRANCH   1  11
HETATM   11  C   UNK N   1      26.312  24.237  -5.959  0.00  0.00     0.168 C 
BRANCH  11  12
HETATM   12  C   UNK N   1      25.847  25.347  -5.098  0.00  0.00    -0.040 C 
HETATM   13  C   UNK N   1      25.175  26.445  -5.620  0.00  0.00     0.011 C 
HETATM   14  C   UNK N   1      25.171  27.641  -4.923  0.00  0.00     0.037 C 
HETATM   15  C   UNK N   1      25.826  27.741  -3.685  0.00  0.00     0.068 C 
HETATM   16  C   UNK N   1      26.365  26.597  -3.096  0.00  0.00     0.037 C 
HETATM   17  C   UNK N   1      26.394  25.406  -3.815  0.00  0.00     0.011 C 
BRANCH  15  18
HETATM   18  O   UNK N   1      26.034  28.940  -3.101  0.00  0.00    -0.349 OA
BRANCH  18  19
HETATM   19  C   UNK N   1      26.601  29.996  -3.785  0.00  0.00     0.206 C 
BRANCH  19  20
HETATM   20  C   UNK N   1      28.124  29.882  -3.781  0.00  0.00     0.299 C 
BRANCH  20  21
HETATM   21  N   UNK N   1      28.644  29.127  -4.924  0.00  0.00     0.090 N 
HETATM   22  C   UNK N   1      27.962  29.530  -6.155  0.00  0.00     0.272 C 
HETATM   23  C   UNK N   1      28.098  28.441  -7.207  0.00  0.00     0.030 C 
HETATM   24  C   UNK N   1      29.318  28.694  -8.079  0.00  0.00     0.002 C 
HETATM   25  C   UNK N   1      30.618  28.519  -7.307  0.00  0.00     0.002 C 
HETATM   26  C   UNK N   1      30.771  29.605  -6.253  0.00  0.00     0.030 C 
HETATM   27  C   UNK N   1      30.120  29.183  -4.933  0.00  0.00     0.272 C 
ENDBRANCH  20  21
ENDBRANCH  19  20
ENDBRANCH  18  19
ENDBRANCH  15  18
ENDBRANCH  11  12
ENDBRANCH   1  11
BRANCH   2  28
HETATM   28  C   UNK N   1      29.258  24.141  -5.523  0.00  0.00    -0.009 A 
HETATM   29  C   UNK N   1      29.350  22.789  -5.147  0.00  0.00     0.016 A 
HETATM   30  C   UNK N   1      29.892  22.403  -3.928  0.00  0.00     0.037 A 
HETATM   31  C   UNK N   1      30.350  23.373  -3.046  0.00  0.00     0.065 A 
HETATM   32  C   UNK N   1      30.281  24.728  -3.397  0.00  0.00     0.037 A 
HETATM   33  C   UNK N   1      29.743  25.111  -4.636  0.00  0.00     0.016 A 
BRANCH  31  34
HETATM   34  O   UNK N   1      30.857  23.003  -1.859  0.00  0.00    -0.361 OA
HETATM   35  H   UNK N   1      30.605  22.186  -1.477  0.00  0.00     0.217 HD
ENDBRANCH  31  34
ENDBRANCH   2  28
BRANCH   8  36
HETATM   36  O   UNK N   1      27.102  26.204 -12.222  0.00  0.00    -0.361 OA
HETATM   37  H   UNK N   1      27.913  26.300 -12.679  0.00  0.00     0.217 HD
ENDBRANCH   8  36
TORSDOF 9
ENDMDL
MODEL 5
REMARK VINA RESULT:      -6.7     10.618     14.390
REMARK  9 active torsions:
REMARK  status: ('A' for Active; 'I' for Inactive)
REMARK    1  A    between atoms: C_6  and  N_1 
REMARK    2  A    between atoms: C_7  and  C_2 
REMARK    3  A    between atoms: C_13  and  C_6 
REMARK    4  A    between atoms: N_10  and  C_26 
REMARK    5  A    between atoms: O_27  and  C_14 
REMARK    6  A    between atoms: O_28  and  C_17 
REMARK    7  A    between atoms: O_25  and  C_18 
REMARK    8  A    between atoms: C_29  and  O_25 
REMARK    9  A    between atoms: C_26  and  C_29 
ROOT
HETATM    1  N   UNK N   1      28.642  17.180   4.885  0.00  0.00    -0.341 N 
HETATM    2  C   UNK N   1      27.901  18.233   5.323  0.00  0.00     0.052 A 
HETATM    3  C   UNK N   1      28.334  18.584   6.610  0.00  0.00    -0.022 A 
HETATM    4  C   UNK N   1      29.344  17.699   6.941  0.00  0.00     0.002 A 
HETATM    5  C   UNK N   1      29.519  16.867   5.860  0.00  0.00     0.046 A 
HETATM    6  C   UNK N   1      30.514  15.885   5.864  0.00  0.00     0.033 A 
HETATM    7  C   UNK N   1      30.123  17.581   8.093  0.00  0.00     0.051 A 
HETATM    8  C   UNK N   1      31.106  16.570   8.129  0.00  0.00     0.066 A 
HETATM    9  C   UNK N   1      27.833  19.695   7.470  0.00  0.00     0.051 C 
HETATM   10  C   UNK N   1      31.302  15.730   7.014  0.00  0.00     0.039 A 
ENDROOT
BRANCH   1  11
HETATM   11  C   UNK N   1      28.538  16.652   3.517  0.00  0.00     0.168 C 
BRANCH  11  12
HETATM   12  C   UNK N   1      27.538  15.605   3.212  0.00  0.00    -0.040 C 
HETATM   13  C   UNK N   1      26.611  15.756   2.187  0.00  0.00     0.011 C 
HETATM   14  C   UNK N   1      25.433  15.029   2.217  0.00  0.00     0.037 C 
HETATM   15  C   UNK N   1      25.183  14.129   3.266  0.00  0.00     0.068 C 
HETATM   16  C   UNK N   1      26.181  13.869   4.204  0.00  0.00     0.037 C 
HETATM   17  C   UNK N   1      27.350  14.625   4.188  0.00  0.00     0.011 C 
BRANCH  15  18
HETATM   18  O   UNK N   1      23.959  13.586   3.442  0.00  0.00    -0.349 OA
BRANCH  18  19
HETATM   19  C   UNK N   1      22.935  14.280   4.055  0.00  0.00     0.206 C 
BRANCH  19  20
HETATM   20  C   UNK N   1      21.804  14.552   3.067  0.00  0.00     0.299 C 
BRANCH  20  21
HETATM   21  N   UNK N   1      21.564  15.980   2.850  0.00  0.00     0.090 N 
HETATM   22  C   UNK N   1      20.182  16.208   2.425  0.00  0.00     0.272 C 
HETATM   23  C   UNK N   1      20.068  17.546   1.714  0.00  0.00     0.030 C 
HETATM   24  C   UNK N   1      19.695  18.642   2.701  0.00  0.00     0.002 C 
HETATM   25  C   UNK N   1      20.818  18.928   3.687  0.00  0.00     0.002 C 
HETATM   26  C   UNK N   1      21.035  17.746   4.618  0.00  0.00     0.030 C 
HETATM   27  C   UNK N   1      22.034  16.753   4.018  0.00  0.00     0.272 C 
ENDBRANCH  20  21
ENDBRANCH  19  20
ENDBRANCH  18  19
ENDBRANCH  15  18
ENDBRANCH  11  12
ENDBRANCH   1  11
BRANCH   2  28
HETATM   28  C   UNK N   1      26.844  18.899   4.497  0.00  0.00    -0.009 A 
HETATM   29  C   UNK N   1      27.179  20.006   3.697  0.00  0.00     0.016 A 
HETATM   30  C   UNK N   1      26.226  20.684   2.948  0.00  0.00     0.037 A 
HETATM   31  C   UNK N   1      24.902  20.268   2.989  0.00  0.00     0.065 A 
HETATM   32  C   UNK N   1      24.539  19.161   3.768  0.00  0.00     0.037 A 
HETATM   33  C   UNK N   1      25.509  18.473   4.515  0.00  0.00     0.016 A 
BRANCH  31  34
HETATM   34  O   UNK N   1      23.976  20.933   2.281  0.00  0.00    -0.361 OA
HETATM   35  H   UNK N   1      23.458  21.596   2.692  0.00  0.00     0.217 HD
ENDBRANCH  31  34
ENDBRANCH   2  28
BRANCH   8  36
HETATM   36  O   UNK N   1      31.864  16.408   9.226  0.00  0.00    -0.361 OA
HETATM   37  H   UNK N   1      32.748  16.109   9.147  0.00  0.00     0.217 HD
ENDBRANCH   8  36
TORSDOF 9
ENDMDL
MODEL 6
REMARK VINA RESULT:      -6.6     11.626     15.319
REMARK  9 active torsions:
REMARK  status: ('A' for Active; 'I' for Inactive)
REMARK    1  A    between atoms: C_6  and  N_1 
REMARK    2  A    between atoms: C_7  and  C_2 
REMARK    3  A    between atoms: C_13  and  C_6 
REMARK    4  A    between atoms: N_10  and  C_26 
REMARK    5  A    between atoms: O_27  and  C_14 
REMARK    6  A    between atoms: O_28  and  C_17 
REMARK    7  A    between atoms: O_25  and  C_18 
REMARK    8  A    between atoms: C_29  and  O_25 
REMARK    9  A    between atoms: C_26  and  C_29 
ROOT
HETATM    1  N   UNK N   1      28.389  17.204   4.990  0.00  0.00    -0.341 N 
HETATM    2  C   UNK N   1      27.689  18.294   5.402  0.00  0.00     0.052 A 
HETATM    3  C   UNK N   1      28.209  18.726   6.633  0.00  0.00    -0.022 A 
HETATM    4  C   UNK N   1      29.229  17.850   6.958  0.00  0.00     0.002 A 
HETATM    5  C   UNK N   1      29.325  16.945   5.927  0.00  0.00     0.046 A 
HETATM    6  C   UNK N   1      30.308  15.952   5.934  0.00  0.00     0.033 A 
HETATM    7  C   UNK N   1      30.080  17.799   8.063  0.00  0.00     0.051 A 
HETATM    8  C   UNK N   1      31.053  16.779   8.104  0.00  0.00     0.066 A 
HETATM    9  C   UNK N   1      27.776  19.899   7.445  0.00  0.00     0.051 C 
HETATM   10  C   UNK N   1      31.168  15.862   7.039  0.00  0.00     0.039 A 
ENDROOT
BRANCH   1  11
HETATM   11  C   UNK N   1      28.191  16.587   3.672  0.00  0.00     0.168 C 
BRANCH  11  12
HETATM   12  C   UNK N   1      27.055  15.662   3.460  0.00  0.00    -0.040 C 
HETATM   13  C   UNK N   1      26.113  15.879   2.461  0.00  0.00     0.011 C 
HETATM   14  C   UNK N   1      24.855  15.313   2.573  0.00  0.00     0.037 C 
HETATM   15  C   UNK N   1      24.536  14.507   3.678  0.00  0.00     0.068 C 
HETATM   16  C   UNK N   1      25.531  14.169   4.594  0.00  0.00     0.037 C 
HETATM   17  C   UNK N   1      26.784  14.767   4.496  0.00  0.00     0.011 C 
BRANCH  15  18
HETATM   18  O   UNK N   1      23.262  14.136   3.926  0.00  0.00    -0.349 OA
BRANCH  18  19
HETATM   19  C   UNK N   1      22.233  15.055   3.986  0.00  0.00     0.206 C 
BRANCH  19  20
HETATM   20  C   UNK N   1      22.266  15.813   5.311  0.00  0.00     0.299 C 
BRANCH  20  21
HETATM   21  N   UNK N   1      21.709  15.042   6.425  0.00  0.00     0.090 N 
HETATM   22  C   UNK N   1      22.778  14.588   7.317  0.00  0.00     0.272 C 
HETATM   23  C   UNK N   1      22.303  13.400   8.137  0.00  0.00     0.030 C 
HETATM   24  C   UNK N   1      21.719  13.868   9.461  0.00  0.00     0.002 C 
HETATM   25  C   UNK N   1      20.417  14.633   9.272  0.00  0.00     0.002 C 
HETATM   26  C   UNK N   1      20.665  15.957   8.568  0.00  0.00     0.030 C 
HETATM   27  C   UNK N   1      20.598  15.790   7.047  0.00  0.00     0.272 C 
ENDBRANCH  20  21
ENDBRANCH  19  20
ENDBRANCH  18  19
ENDBRANCH  15  18
ENDBRANCH  11  12
ENDBRANCH   1  11
BRANCH   2  28
HETATM   28  C   UNK N   1      26.587  18.918   4.603  0.00  0.00    -0.009 A 
HETATM   29  C   UNK N   1      26.888  19.930   3.673  0.00  0.00     0.016 A 
HETATM   30  C   UNK N   1      25.896  20.569   2.940  0.00  0.00     0.037 A 
HETATM   31  C   UNK N   1      24.568  20.211   3.129  0.00  0.00     0.065 A 
HETATM   32  C   UNK N   1      24.239  19.199   4.040  0.00  0.00     0.037 A 
HETATM   33  C   UNK N   1      25.246  18.548   4.770  0.00  0.00     0.016 A 
BRANCH  31  34
HETATM   34  O   UNK N   1      23.606  20.840   2.435  0.00  0.00    -0.361 OA
HETATM   35  H   UNK N   1      23.167  21.579   2.807  0.00  0.00     0.217 HD
ENDBRANCH  31  34
ENDBRANCH   2  28
BRANCH   8  36
HETATM   36  O   UNK N   1      31.879  16.679   9.159  0.00  0.00    -0.361 OA
HETATM   37  H   UNK N   1      31.825  15.940   9.731  0.00  0.00     0.217 HD
ENDBRANCH   8  36
TORSDOF 9
ENDMDL
MODEL 7
REMARK VINA RESULT:      -6.4     13.508     16.544
REMARK  9 active torsions:
REMARK  status: ('A' for Active; 'I' for Inactive)
REMARK    1  A    between atoms: C_6  and  N_1 
REMARK    2  A    between atoms: C_7  and  C_2 
REMARK    3  A    between atoms: C_13  and  C_6 
REMARK    4  A    between atoms: N_10  and  C_26 
REMARK    5  A    between atoms: O_27  and  C_14 
REMARK    6  A    between atoms: O_28  and  C_17 
REMARK    7  A    between atoms: O_25  and  C_18 
REMARK    8  A    between atoms: C_29  and  O_25 
REMARK    9  A    between atoms: C_26  and  C_29 
ROOT
HETATM    1  N   UNK N   1      23.028  14.214   7.298  0.00  0.00    -0.341 N 
HETATM    2  C   UNK N   1      21.886  14.949   7.381  0.00  0.00     0.052 A 
HETATM    3  C   UNK N   1      21.261  14.673   8.607  0.00  0.00    -0.022 A 
HETATM    4  C   UNK N   1      22.050  13.737   9.249  0.00  0.00     0.002 A 
HETATM    5  C   UNK N   1      23.128  13.492   8.433  0.00  0.00     0.046 A 
HETATM    6  C   UNK N   1      24.145  12.619   8.829  0.00  0.00     0.033 A 
HETATM    7  C   UNK N   1      21.907  13.107  10.487  0.00  0.00     0.051 A 
HETATM    8  C   UNK N   1      22.904  12.193  10.886  0.00  0.00     0.066 A 
HETATM    9  C   UNK N   1      20.003  15.268   9.142  0.00  0.00     0.051 C 
HETATM   10  C   UNK N   1      24.022  11.956  10.060  0.00  0.00     0.039 A 
ENDROOT
BRANCH   1  11
HETATM   11  C   UNK N   1      23.992  14.370   6.200  0.00  0.00     0.168 C 
BRANCH  11  12
HETATM   12  C   UNK N   1      24.925  15.520   6.204  0.00  0.00    -0.040 C 
HETATM   13  C   UNK N   1      24.910  16.476   5.196  0.00  0.00     0.011 C 
HETATM   14  C   UNK N   1      26.040  17.238   4.960  0.00  0.00     0.037 C 
HETATM   15  C   UNK N   1      27.190  17.063   5.746  0.00  0.00     0.068 C 
HETATM   16  C   UNK N   1      27.147  16.213   6.851  0.00  0.00     0.037 C 
HETATM   17  C   UNK N   1      26.019  15.426   7.065  0.00  0.00     0.011 C 
BRANCH  15  18
HETATM   18  O   UNK N   1      28.369  17.621   5.394  0.00  0.00    -0.349 OA
BRANCH  18  19
HETATM   19  C   UNK N   1      29.140  17.110   4.370  0.00  0.00     0.206 C 
BRANCH  19  20
HETATM   20  C   UNK N   1      30.334  16.340   4.930  0.00  0.00     0.299 C 
BRANCH  20  21
HETATM   21  N   UNK N   1      31.142  17.134   5.859  0.00  0.00     0.090 N 
HETATM   22  C   UNK N   1      31.090  16.556   7.203  0.00  0.00     0.272 C 
HETATM   23  C   UNK N   1      31.460  17.606   8.238  0.00  0.00     0.030 C 
HETATM   24  C   UNK N   1      32.952  17.559   8.532  0.00  0.00     0.002 C 
HETATM   25  C   UNK N   1      33.783  18.015   7.340  0.00  0.00     0.002 C 
HETATM   26  C   UNK N   1      33.671  17.024   6.192  0.00  0.00     0.030 C 
HETATM   27  C   UNK N   1      32.483  17.366   5.288  0.00  0.00     0.272 C 
ENDBRANCH  20  21
ENDBRANCH  19  20
ENDBRANCH  18  19
ENDBRANCH  15  18
ENDBRANCH  11  12
ENDBRANCH   1  11
BRANCH   2  28
HETATM   28  C   UNK N   1      21.449  15.917   6.325  0.00  0.00    -0.009 A 
HETATM   29  C   UNK N   1      20.844  15.439   5.149  0.00  0.00     0.016 A 
HETATM   30  C   UNK N   1      20.461  16.294   4.123  0.00  0.00     0.037 A 
HETATM   31  C   UNK N   1      20.686  17.658   4.250  0.00  0.00     0.065 A 
HETATM   32  C   UNK N   1      21.277  18.165   5.415  0.00  0.00     0.037 A 
HETATM   33  C   UNK N   1      21.652  17.298   6.454  0.00  0.00     0.016 A 
BRANCH  31  34
HETATM   34  O   UNK N   1      20.334  18.484   3.252  0.00  0.00    -0.361 OA
HETATM   35  H   UNK N   1      20.834  18.501   2.460  0.00  0.00     0.217 HD
ENDBRANCH  31  34
ENDBRANCH   2  28
BRANCH   8  36
HETATM   36  O   UNK N   1      22.795  11.548  12.059  0.00  0.00    -0.361 OA
HETATM   37  H   UNK N   1      23.254  11.863  12.813  0.00  0.00     0.217 HD
ENDBRANCH   8  36
TORSDOF 9
ENDMDL
MODEL 8
REMARK VINA RESULT:      -6.3      2.444      6.460
REMARK  9 active torsions:
REMARK  status: ('A' for Active; 'I' for Inactive)
REMARK    1  A    between atoms: C_6  and  N_1 
REMARK    2  A    between atoms: C_7  and  C_2 
REMARK    3  A    between atoms: C_13  and  C_6 
REMARK    4  A    between atoms: N_10  and  C_26 
REMARK    5  A    between atoms: O_27  and  C_14 
REMARK    6  A    between atoms: O_28  and  C_17 
REMARK    7  A    between atoms: O_25  and  C_18 
REMARK    8  A    between atoms: C_29  and  O_25 
REMARK    9  A    between atoms: C_26  and  C_29 
ROOT
HETATM    1  N   UNK N   1      27.866  25.973  -5.163  0.00  0.00    -0.341 N 
HETATM    2  C   UNK N   1      26.609  25.828  -5.660  0.00  0.00     0.052 A 
HETATM    3  C   UNK N   1      25.841  26.938  -5.275  0.00  0.00    -0.022 A 
HETATM    4  C   UNK N   1      26.669  27.745  -4.515  0.00  0.00     0.002 A 
HETATM    5  C   UNK N   1      27.901  27.137  -4.482  0.00  0.00     0.046 A 
HETATM    6  C   UNK N   1      28.980  27.738  -3.828  0.00  0.00     0.033 A 
HETATM    7  C   UNK N   1      26.432  28.964  -3.878  0.00  0.00     0.051 A 
HETATM    8  C   UNK N   1      27.500  29.566  -3.181  0.00  0.00     0.066 A 
HETATM    9  C   UNK N   1      24.417  27.223  -5.614  0.00  0.00     0.051 C 
HETATM   10  C   UNK N   1      28.771  28.955  -3.163  0.00  0.00     0.039 A 
ENDROOT
BRANCH   1  11
HETATM   11  C   UNK N   1      28.962  25.053  -5.498  0.00  0.00     0.168 C 
BRANCH  11  12
HETATM   12  C   UNK N   1      29.320  23.968  -4.557  0.00  0.00    -0.040 C 
HETATM   13  C   UNK N   1      29.866  24.236  -3.307  0.00  0.00     0.011 C 
HETATM   14  C   UNK N   1      30.608  23.262  -2.662  0.00  0.00     0.037 C 
HETATM   15  C   UNK N   1      30.792  22.002  -3.255  0.00  0.00     0.068 C 
HETATM   16  C   UNK N   1      30.114  21.690  -4.433  0.00  0.00     0.037 C 
HETATM   17  C   UNK N   1      29.397  22.683  -5.094  0.00  0.00     0.011 C 
BRANCH  15  18
HETATM   18  O   UNK N   1      31.691  21.124  -2.762  0.00  0.00    -0.349 OA
BRANCH  18  19
HETATM   19  C   UNK N   1      33.048  21.378  -2.787  0.00  0.00     0.206 C 
BRANCH  19  20
HETATM   20  C   UNK N   1      33.774  20.340  -3.639  0.00  0.00     0.299 C 
BRANCH  20  21
HETATM   21  N   UNK N   1      33.970  20.773  -5.024  0.00  0.00     0.090 N 
HETATM   22  C   UNK N   1      32.989  20.132  -5.903  0.00  0.00     0.272 C 
HETATM   23  C   UNK N   1      33.487  20.147  -7.339  0.00  0.00     0.030 C 
HETATM   24  C   UNK N   1      32.978  21.384  -8.065  0.00  0.00     0.002 C 
HETATM   25  C   UNK N   1      33.604  22.661  -7.524  0.00  0.00     0.002 C 
HETATM   26  C   UNK N   1      33.137  22.933  -6.103  0.00  0.00     0.030 C 
HETATM   27  C   UNK N   1      34.052  22.246  -5.085  0.00  0.00     0.272 C 
ENDBRANCH  20  21
ENDBRANCH  19  20
ENDBRANCH  18  19
ENDBRANCH  15  18
ENDBRANCH  11  12
ENDBRANCH   1  11
BRANCH   2  28
HETATM   28  C   UNK N   1      26.188  24.673  -6.516  0.00  0.00    -0.009 A 
HETATM   29  C   UNK N   1      26.061  24.846  -7.906  0.00  0.00     0.016 A 
HETATM   30  C   UNK N   1      25.632  23.818  -8.736  0.00  0.00     0.037 A 
HETATM   31  C   UNK N   1      25.309  22.585  -8.185  0.00  0.00     0.065 A 
HETATM   32  C   UNK N   1      25.436  22.379  -6.805  0.00  0.00     0.037 A 
HETATM   33  C   UNK N   1      25.881  23.418  -5.972  0.00  0.00     0.016 A 
BRANCH  31  34
HETATM   34  O   UNK N   1      24.877  21.596  -8.983  0.00  0.00    -0.361 OA
HETATM   35  H   UNK N   1      25.184  20.721  -8.853  0.00  0.00     0.217 HD
ENDBRANCH  31  34
ENDBRANCH   2  28
BRANCH   8  36
HETATM   36  O   UNK N   1      27.312  30.729  -2.535  0.00  0.00    -0.361 OA
HETATM   37  H   UNK N   1      26.655  31.328  -2.829  0.00  0.00     0.217 HD
ENDBRANCH   8  36
TORSDOF 9
ENDMDL
MODEL 9
REMARK VINA RESULT:      -6.2     21.133     25.031
REMARK  9 active torsions:
REMARK  status: ('A' for Active; 'I' for Inactive)
REMARK    1  A    between atoms: C_6  and  N_1 
REMARK    2  A    between atoms: C_7  and  C_2 
REMARK    3  A    between atoms: C_13  and  C_6 
REMARK    4  A    between atoms: N_10  and  C_26 
REMARK    5  A    between atoms: O_27  and  C_14 
REMARK    6  A    between atoms: O_28  and  C_17 
REMARK    7  A    between atoms: O_25  and  C_18 
REMARK    8  A    between atoms: C_29  and  O_25 
REMARK    9  A    between atoms: C_26  and  C_29 
ROOT
HETATM    1  N   UNK N   1      35.043  12.404  14.028  0.00  0.00    -0.341 N 
HETATM    2  C   UNK N   1      35.759  12.783  15.120  0.00  0.00     0.052 A 
HETATM    3  C   UNK N   1      36.409  13.994  14.836  0.00  0.00    -0.022 A 
HETATM    4  C   UNK N   1      36.078  14.322  13.534  0.00  0.00     0.002 A 
HETATM    5  C   UNK N   1      35.229  13.342  13.076  0.00  0.00     0.046 A 
HETATM    6  C   UNK N   1      34.671  13.416  11.797  0.00  0.00     0.033 A 
HETATM    7  C   UNK N   1      36.443  15.409  12.738  0.00  0.00     0.051 A 
HETATM    8  C   UNK N   1      35.919  15.479  11.430  0.00  0.00     0.066 A 
HETATM    9  C   UNK N   1      37.279  14.797  15.743  0.00  0.00     0.051 C 
HETATM   10  C   UNK N   1      35.032  14.487  10.966  0.00  0.00     0.039 A 
ENDROOT
BRANCH   1  11
HETATM   11  C   UNK N   1      34.133  11.250  14.038  0.00  0.00     0.168 C 
BRANCH  11  12
HETATM   12  C   UNK N   1      34.424  10.084  13.175  0.00  0.00    -0.040 C 
HETATM   13  C   UNK N   1      35.605   9.362  13.294  0.00  0.00     0.011 C 
HETATM   14  C   UNK N   1      36.062   8.615  12.223  0.00  0.00     0.037 C 
HETATM   15  C   UNK N   1      35.328   8.569  11.027  0.00  0.00     0.068 C 
HETATM   16  C   UNK N   1      34.071   9.168  10.967  0.00  0.00     0.037 C 
HETATM   17  C   UNK N   1      33.631   9.945  12.035  0.00  0.00     0.011 C 
BRANCH  15  18
HETATM   18  O   UNK N   1      35.859   8.043   9.902  0.00  0.00    -0.349 OA
BRANCH  18  19
HETATM   19  C   UNK N   1      35.782   8.693   8.687  0.00  0.00     0.206 C 
BRANCH  19  20
HETATM   20  C   UNK N   1      37.102   9.390   8.365  0.00  0.00     0.299 C 
BRANCH  20  21
HETATM   21  N   UNK N   1      37.189  10.738   8.931  0.00  0.00     0.090 N 
HETATM   22  C   UNK N   1      38.181  10.778  10.007  0.00  0.00     0.272 C 
HETATM   23  C   UNK N   1      37.917  11.966  10.917  0.00  0.00     0.030 C 
HETATM   24  C   UNK N   1      38.716  13.176  10.456  0.00  0.00     0.002 C 
HETATM   25  C   UNK N   1      38.221  13.713   9.121  0.00  0.00     0.002 C 
HETATM   26  C   UNK N   1      38.502  12.723   8.002  0.00  0.00     0.030 C 
HETATM   27  C   UNK N   1      37.347  11.729   7.847  0.00  0.00     0.272 C 
ENDBRANCH  20  21
ENDBRANCH  19  20
ENDBRANCH  18  19
ENDBRANCH  15  18
ENDBRANCH  11  12
ENDBRANCH   1  11
BRANCH   2  28
HETATM   28  C   UNK N   1      35.770  12.016  16.407  0.00  0.00    -0.009 A 
HETATM   29  C   UNK N   1      35.154  12.560  17.548  0.00  0.00     0.016 A 
HETATM   30  C   UNK N   1      35.176  11.907  18.774  0.00  0.00     0.037 A 
HETATM   31  C   UNK N   1      35.828  10.686  18.886  0.00  0.00     0.065 A 
HETATM   32  C   UNK N   1      36.440  10.113  17.764  0.00  0.00     0.037 A 
HETATM   33  C   UNK N   1      36.406  10.773  16.525  0.00  0.00     0.016 A 
BRANCH  31  34
HETATM   34  O   UNK N   1      35.866  10.062  20.074  0.00  0.00    -0.361 OA
HETATM   35  H   UNK N   1      35.124   9.574  20.371  0.00  0.00     0.217 HD
ENDBRANCH  31  34
ENDBRANCH   2  28
BRANCH   8  36
HETATM   36  O   UNK N   1      36.261  16.497  10.623  0.00  0.00    -0.361 OA
HETATM   37  H   UNK N   1      36.246  16.384   9.693  0.00  0.00     0.217 HD
ENDBRANCH   8  36
TORSDOF 9
ENDMDL
