MODEL 1
REMARK VINA RESULT:      -6.7      0.000      0.000
REMARK  8 active torsions:
REMARK  status: ('A' for Active; 'I' for Inactive)
REMARK    1  A    between atoms: C_10  and  C_8 
REMARK    2  A    between atoms: C_15  and  C_8 
REMARK    3  A    between atoms: C_14  and  C_9 
REMARK    4  A    between atoms: O_23  and  C_9 
REMARK    5  A    between atoms: N_19  and  C_13 
REMARK    6  A    between atoms: O_21  and  C_14 
REMARK    7  A    between atoms: O_23  and  C_15 
REMARK    8  A    between atoms: N_19  and  C_16 
ROOT
HETATM    1  C   UNK N   1      38.279  13.407   9.982  0.00  0.00     0.001 A 
HETATM    2  C   UNK N   1      38.088  12.198  10.652  0.00  0.00     0.002 A 
HETATM    3  C   UNK N   1      37.474  14.505  10.286  0.00  0.00     0.010 A 
HETATM    4  C   UNK N   1      37.108  12.093  11.644  0.00  0.00     0.030 A 
HETATM    5  C   UNK N   1      36.491  14.406  11.279  0.00  0.00    -0.022 A 
HETATM    6  C   UNK N   1      36.321  13.203  11.987  0.00  0.00     0.039 A 
ENDROOT
BRANCH   6   7
HETATM    7  N   UNK N   1      35.301  13.125  12.979  0.00  0.00    -0.353 N 
HETATM    8  H   UNK N   1      34.550  13.751  12.858  0.00  0.00     0.166 HD
BRANCH   7   9
HETATM    9  C   UNK N   1      35.204  12.275  14.123  0.00  0.00     0.076 A 
HETATM   10  C   UNK N   1      35.896  12.669  15.287  0.00  0.00     0.062 A 
HETATM   11  C   UNK N   1      35.867  11.876  16.436  0.00  0.00     0.026 A 
HETATM   12 Cl   UNK N   1      36.822  14.163  15.322  0.00  0.00    -0.082 Cl
HETATM   13  C   UNK N   1      35.159  10.679  16.444  0.00  0.00     0.003 A 
HETATM   14  C   UNK N   1      34.496  10.256  15.295  0.00  0.00     0.026 A 
HETATM   15  C   UNK N   1      34.509  11.031  14.131  0.00  0.00     0.062 A 
HETATM   16 Cl   UNK N   1      33.736  10.325  12.720  0.00  0.00    -0.082 Cl
ENDBRANCH   7   9
ENDBRANCH   6   7
BRANCH   5  17
HETATM   17  C   UNK N   1      35.604  15.577  11.565  0.00  0.00     0.151 C 
BRANCH  17  18
HETATM   18  C   UNK N   1      34.710  15.839  10.394  0.00  0.00     0.263 C 
HETATM   19  O   UNK N   1      34.172  14.905   9.816  0.00  0.00    -0.265 OA
BRANCH  18  20
HETATM   20  O   UNK N   1      34.496  17.116   9.997  0.00  0.00    -0.311 OA
BRANCH  20  21
HETATM   21  C   UNK N   1      33.730  17.418   8.895  0.00  0.00     0.288 C 
BRANCH  21  22
HETATM   22  C   UNK N   1      34.511  18.278   7.963  0.00  0.00     0.165 C 
HETATM   23  O   UNK N   1      35.266  19.125   8.408  0.00  0.00    -0.648 OA
BRANCH  22  24
HETATM   24  O   UNK N   1      34.380  18.127   6.632  0.00  0.00    -0.775 OA
HETATM   25  H   UNK N   1      33.612  18.377   6.158  0.00  0.00     0.167 HD
ENDBRANCH  22  24
ENDBRANCH  21  22
ENDBRANCH  20  21
ENDBRANCH  18  20
ENDBRANCH  17  18
ENDBRANCH   5  17
TORSDOF 8
ENDMDL
MODEL 2
REMARK VINA RESULT:      -6.7     18.191     22.022
REMARK  8 active torsions:
REMARK  status: ('A' for Active; 'I' for Inactive)
REMARK    1  A    between atoms: C_10  and  C_8 
REMARK    2  A    between atoms: C_15  and  C_8 
REMARK    3  A    between atoms: C_14  and  C_9 
REMARK    4  A    between atoms: O_23  and  C_9 
REMARK    5  A    between atoms: N_19  and  C_13 
REMARK    6  A    between atoms: O_21  and  C_14 
REMARK    7  A    between atoms: O_23  and  C_15 
REMARK    8  A    between atoms: N_19  and  C_16 
ROOT
HETATM    1  C   UNK N   1      26.081  20.881  -8.166  0.00  0.00     0.001 A 
HETATM    2  C   UNK N   1      25.213  21.839  -7.642  0.00  0.00     0.002 A 
HETATM    3  C   UNK N   1      27.457  21.010  -7.975  0.00  0.00     0.010 A 
HETATM    4  C   UNK N   1      25.719  22.916  -6.905  0.00  0.00     0.030 A 
HETATM    5  C   UNK N   1      27.969  22.085  -7.238  0.00  0.00    -0.022 A 
HETATM    6  C   UNK N   1      27.098  23.032  -6.671  0.00  0.00     0.039 A 
ENDROOT
BRANCH   6   7
HETATM    7  N   UNK N   1      27.647  24.126  -5.942  0.00  0.00    -0.353 N 
HETATM    8  H   UNK N   1      28.614  24.067  -5.764  0.00  0.00     0.166 HD
BRANCH   7   9
HETATM    9  C   UNK N   1      27.007  25.295  -5.429  0.00  0.00     0.076 A 
HETATM   10  C   UNK N   1      26.814  25.374  -4.034  0.00  0.00     0.062 A 
HETATM   11  C   UNK N   1      26.174  26.475  -3.464  0.00  0.00     0.026 A 
HETATM   12 Cl   UNK N   1      27.367  24.084  -2.975  0.00  0.00    -0.082 Cl
HETATM   13  C   UNK N   1      25.707  27.509  -4.269  0.00  0.00     0.003 A 
HETATM   14  C   UNK N   1      25.857  27.436  -5.651  0.00  0.00     0.026 A 
HETATM   15  C   UNK N   1      26.496  26.344  -6.248  0.00  0.00     0.062 A 
HETATM   16 Cl   UNK N   1      26.511  26.319  -8.004  0.00  0.00    -0.082 Cl
ENDBRANCH   7   9
ENDBRANCH   6   7
BRANCH   5  17
HETATM   17  C   UNK N   1      29.449  22.238  -7.078  0.00  0.00     0.151 C 
BRANCH  17  18
HETATM   18  C   UNK N   1      29.908  21.518  -5.849  0.00  0.00     0.263 C 
HETATM   19  O   UNK N   1      30.448  20.425  -5.947  0.00  0.00    -0.265 OA
BRANCH  18  20
HETATM   20  O   UNK N   1      29.728  22.097  -4.637  0.00  0.00    -0.311 OA
BRANCH  20  21
HETATM   21  C   UNK N   1      30.684  22.907  -4.068  0.00  0.00     0.288 C 
BRANCH  21  22
HETATM   22  C   UNK N   1      31.029  22.397  -2.712  0.00  0.00     0.165 C 
HETATM   23  O   UNK N   1      30.653  23.002  -1.723  0.00  0.00    -0.648 OA
BRANCH  22  24
HETATM   24  O   UNK N   1      31.761  21.276  -2.577  0.00  0.00    -0.775 OA
HETATM   25  H   UNK N   1      32.605  21.159  -2.968  0.00  0.00     0.167 HD
ENDBRANCH  22  24
ENDBRANCH  21  22
ENDBRANCH  20  21
ENDBRANCH  18  20
ENDBRANCH  17  18
ENDBRANCH   5  17
TORSDOF 8
ENDMDL
MODEL 3
REMARK VINA RESULT:      -6.5      7.168     10.522
REMARK  8 active torsions:
REMARK  status: ('A' for Active; 'I' for Inactive)
REMARK    1  A    between atoms: C_10  and  C_8 
REMARK    2  A    between atoms: C_15  and  C_8 
REMARK    3  A    between atoms: C_14  and  C_9 
REMARK    4  A    between atoms: O_23  and  C_9 
REMARK    5  A    between atoms: N_19  and  C_13 
REMARK    6  A    between atoms: O_21  and  C_14 
REMARK    7  A    between atoms: O_23  and  C_15 
REMARK    8  A    between atoms: N_19  and  C_16 
ROOT
HETATM    1  C   UNK N   1      29.907  18.135   9.385  0.00  0.00     0.001 A 
HETATM    2  C   UNK N   1      28.736  18.631   8.811  0.00  0.00     0.002 A 
HETATM    3  C   UNK N   1      30.830  17.445   8.599  0.00  0.00     0.010 A 
HETATM    4  C   UNK N   1      28.499  18.457   7.443  0.00  0.00     0.030 A 
HETATM    5  C   UNK N   1      30.598  17.269   7.229  0.00  0.00    -0.022 A 
HETATM    6  C   UNK N   1      29.440  17.802   6.634  0.00  0.00     0.039 A 
ENDROOT
BRANCH   6   7
HETATM    7  N   UNK N   1      29.221  17.591   5.243  0.00  0.00    -0.353 N 
HETATM    8  H   UNK N   1      29.984  17.811   4.660  0.00  0.00     0.166 HD
BRANCH   7   9
HETATM    9  C   UNK N   1      28.059  17.109   4.565  0.00  0.00     0.076 A 
HETATM   10  C   UNK N   1      27.180  18.067   4.017  0.00  0.00     0.062 A 
HETATM   11  C   UNK N   1      26.013  17.671   3.362  0.00  0.00     0.026 A 
HETATM   12 Cl   UNK N   1      27.525  19.786   4.152  0.00  0.00    -0.082 Cl
HETATM   13  C   UNK N   1      25.696  16.322   3.248  0.00  0.00     0.003 A 
HETATM   14  C   UNK N   1      26.533  15.362   3.810  0.00  0.00     0.026 A 
HETATM   15  C   UNK N   1      27.709  15.731   4.472  0.00  0.00     0.062 A 
HETATM   16 Cl   UNK N   1      28.609  14.432   5.238  0.00  0.00    -0.082 Cl
ENDBRANCH   7   9
ENDBRANCH   6   7
BRANCH   5  17
HETATM   17  C   UNK N   1      31.573  16.488   6.405  0.00  0.00     0.151 C 
BRANCH  17  18
HETATM   18  C   UNK N   1      32.513  17.420   5.706  0.00  0.00     0.263 C 
HETATM   19  O   UNK N   1      32.332  17.699   4.529  0.00  0.00    -0.265 OA
BRANCH  18  20
HETATM   20  O   UNK N   1      33.548  17.956   6.394  0.00  0.00    -0.311 OA
BRANCH  20  21
HETATM   21  C   UNK N   1      34.359  17.193   7.202  0.00  0.00     0.288 C 
BRANCH  21  22
HETATM   22  C   UNK N   1      34.641  17.928   8.466  0.00  0.00     0.165 C 
HETATM   23  O   UNK N   1      34.336  17.431   9.537  0.00  0.00    -0.648 OA
BRANCH  22  24
HETATM   24  O   UNK N   1      35.224  19.140   8.428  0.00  0.00    -0.775 OA
HETATM   25  H   UNK N   1      35.135  19.777   9.109  0.00  0.00     0.167 HD
ENDBRANCH  22  24
ENDBRANCH  21  22
ENDBRANCH  20  21
ENDBRANCH  18  20
ENDBRANCH  17  18
ENDBRANCH   5  17
TORSDOF 8
ENDMDL
MODEL 4
REMARK VINA RESULT:      -6.5      7.200     10.631
REMARK  8 active torsions:
REMARK  status: ('A' for Active; 'I' for Inactive)
REMARK    1  A    between atoms: C_10  and  C_8 
REMARK    2  A    between atoms: C_15  and  C_8 
REMARK    3  A    between atoms: C_14  and  C_9 
REMARK    4  A    between atoms: O_23  and  C_9 
REMARK    5  A    between atoms: N_19  and  C_13 
REMARK    6  A    between atoms: O_21  and  C_14 
REMARK    7  A    between atoms: O_23  and  C_15 
REMARK    8  A    between atoms: N_19  and  C_16 
ROOT
HETATM    1  C   UNK N   1      29.941  18.151   9.397  0.00  0.00     0.001 A 
HETATM    2  C   UNK N   1      28.734  18.587   8.850  0.00  0.00     0.002 A 
HETATM    3  C   UNK N   1      30.860  17.467   8.601  0.00  0.00     0.010 A 
HETATM    4  C   UNK N   1      28.455  18.361   7.498  0.00  0.00     0.030 A 
HETATM    5  C   UNK N   1      30.586  17.238   7.246  0.00  0.00    -0.022 A 
HETATM    6  C   UNK N   1      29.390  17.712   6.677  0.00  0.00     0.039 A 
ENDROOT
BRANCH   6   7
HETATM    7  N   UNK N   1      29.130  17.449   5.301  0.00  0.00    -0.353 N 
HETATM    8  H   UNK N   1      29.919  17.480   4.712  0.00  0.00     0.166 HD
BRANCH   7   9
HETATM    9  C   UNK N   1      27.897  17.146   4.647  0.00  0.00     0.076 A 
HETATM   10  C   UNK N   1      27.537  15.787   4.530  0.00  0.00     0.062 A 
HETATM   11  C   UNK N   1      26.359  15.415   3.882  0.00  0.00     0.026 A 
HETATM   12 Cl   UNK N   1      28.568  14.524   5.189  0.00  0.00    -0.082 Cl
HETATM   13  C   UNK N   1      25.524  16.383   3.333  0.00  0.00     0.003 A 
HETATM   14  C   UNK N   1      25.877  17.728   3.408  0.00  0.00     0.026 A 
HETATM   15  C   UNK N   1      27.052  18.128   4.053  0.00  0.00     0.062 A 
HETATM   16 Cl   UNK N   1      27.437  19.840   3.971  0.00  0.00    -0.082 Cl
ENDBRANCH   7   9
ENDBRANCH   6   7
BRANCH   5  17
HETATM   17  C   UNK N   1      31.559  16.465   6.413  0.00  0.00     0.151 C 
BRANCH  17  18
HETATM   18  C   UNK N   1      32.475  17.404   5.693  0.00  0.00     0.263 C 
HETATM   19  O   UNK N   1      32.267  17.680   4.519  0.00  0.00    -0.265 OA
BRANCH  18  20
HETATM   20  O   UNK N   1      33.520  17.950   6.359  0.00  0.00    -0.311 OA
BRANCH  20  21
HETATM   21  C   UNK N   1      34.336  17.200   7.175  0.00  0.00     0.288 C 
BRANCH  21  22
HETATM   22  C   UNK N   1      34.603  17.946   8.437  0.00  0.00     0.165 C 
HETATM   23  O   UNK N   1      34.362  17.424   9.512  0.00  0.00    -0.648 OA
BRANCH  22  24
HETATM   24  O   UNK N   1      35.101  19.195   8.392  0.00  0.00    -0.775 OA
HETATM   25  H   UNK N   1      34.656  19.942   8.740  0.00  0.00     0.167 HD
ENDBRANCH  22  24
ENDBRANCH  21  22
ENDBRANCH  20  21
ENDBRANCH  18  20
ENDBRANCH  17  18
ENDBRANCH   5  17
TORSDOF 8
ENDMDL
MODEL 5
REMARK VINA RESULT:      -6.4      0.875      2.246
REMARK  8 active torsions:
REMARK  status: ('A' for Active; 'I' for Inactive)
REMARK    1  A    between atoms: C_10  and  C_8 
REMARK    2  A    between atoms: C_15  and  C_8 
REMARK    3  A    between atoms: C_14  and  C_9 
REMARK    4  A    between atoms: O_23  and  C_9 
REMARK    5  A    between atoms: N_19  and  C_13 
REMARK    6  A    between atoms: O_21  and  C_14 
REMARK    7  A    between atoms: O_23  and  C_15 
REMARK    8  A    between atoms: N_19  and  C_16 
ROOT
HETATM    1  C   UNK N   1      37.846  12.571   9.250  0.00  0.00     0.001 A 
HETATM    2  C   UNK N   1      37.986  11.695  10.327  0.00  0.00     0.002 A 
HETATM    3  C   UNK N   1      36.832  13.529   9.259  0.00  0.00     0.010 A 
HETATM    4  C   UNK N   1      37.126  11.792  11.426  0.00  0.00     0.030 A 
HETATM    5  C   UNK N   1      35.968  13.632  10.357  0.00  0.00    -0.022 A 
HETATM    6  C   UNK N   1      36.130  12.780  11.465  0.00  0.00     0.039 A 
ENDROOT
BRANCH   6   7
HETATM    7  N   UNK N   1      35.225  12.894  12.560  0.00  0.00    -0.353 N 
HETATM    8  H   UNK N   1      34.489  13.535  12.430  0.00  0.00     0.166 HD
BRANCH   7   9
HETATM    9  C   UNK N   1      35.226  12.219  13.819  0.00  0.00     0.076 A 
HETATM   10  C   UNK N   1      34.482  11.025  13.918  0.00  0.00     0.062 A 
HETATM   11  C   UNK N   1      34.417  10.324  15.124  0.00  0.00     0.026 A 
HETATM   12 Cl   UNK N   1      33.608  10.391  12.530  0.00  0.00    -0.082 Cl
HETATM   13  C   UNK N   1      35.080  10.801  16.249  0.00  0.00     0.003 A 
HETATM   14  C   UNK N   1      35.794  11.994  16.181  0.00  0.00     0.026 A 
HETATM   15  C   UNK N   1      35.876  12.716  14.986  0.00  0.00     0.062 A 
HETATM   16 Cl   UNK N   1      36.704  14.263  15.068  0.00  0.00    -0.082 Cl
ENDBRANCH   7   9
ENDBRANCH   6   7
BRANCH   5  17
HETATM   17  C   UNK N   1      34.856  14.633  10.337  0.00  0.00     0.151 C 
BRANCH  17  18
HETATM   18  C   UNK N   1      35.342  15.947  10.862  0.00  0.00     0.263 C 
HETATM   19  O   UNK N   1      36.077  15.980  11.839  0.00  0.00    -0.265 OA
BRANCH  18  20
HETATM   20  O   UNK N   1      34.970  17.089  10.235  0.00  0.00    -0.311 OA
BRANCH  20  21
HETATM   21  C   UNK N   1      34.197  17.076   9.097  0.00  0.00     0.288 C 
BRANCH  21  22
HETATM   22  C   UNK N   1      34.699  18.101   8.140  0.00  0.00     0.165 C 
HETATM   23  O   UNK N   1      34.560  17.932   6.941  0.00  0.00    -0.648 OA
BRANCH  22  24
HETATM   24  O   UNK N   1      35.313  19.209   8.596  0.00  0.00    -0.775 OA
HETATM   25  H   UNK N   1      36.120  19.533   8.248  0.00  0.00     0.167 HD
ENDBRANCH  22  24
ENDBRANCH  21  22
ENDBRANCH  20  21
ENDBRANCH  18  20
ENDBRANCH  17  18
ENDBRANCH   5  17
TORSDOF 8
ENDMDL
MODEL 6
REMARK VINA RESULT:      -6.3      1.165      2.082
REMARK  8 active torsions:
REMARK  status: ('A' for Active; 'I' for Inactive)
REMARK    1  A    between atoms: C_10  and  C_8 
REMARK    2  A    between atoms: C_15  and  C_8 
REMARK    3  A    between atoms: C_14  and  C_9 
REMARK    4  A    between atoms: O_23  and  C_9 
REMARK    5  A    between atoms: N_19  and  C_13 
REMARK    6  A    between atoms: O_21  and  C_14 
REMARK    7  A    between atoms: O_23  and  C_15 
REMARK    8  A    between atoms: N_19  and  C_16 
ROOT
HETATM    1  C   UNK N   1      38.229  13.478   9.902  0.00  0.00     0.001 A 
HETATM    2  C   UNK N   1      37.996  12.242  10.506  0.00  0.00     0.002 A 
HETATM    3  C   UNK N   1      37.430  14.574  10.229  0.00  0.00     0.010 A 
HETATM    4  C   UNK N   1      36.978  12.107  11.456  0.00  0.00     0.030 A 
HETATM    5  C   UNK N   1      36.410  14.445  11.180  0.00  0.00    -0.022 A 
HETATM    6  C   UNK N   1      36.196  13.212  11.824  0.00  0.00     0.039 A 
ENDROOT
BRANCH   6   7
HETATM    7  N   UNK N   1      35.140  13.105  12.773  0.00  0.00    -0.353 N 
HETATM    8  H   UNK N   1      34.340  13.643  12.573  0.00  0.00     0.166 HD
BRANCH   7   9
HETATM    9  C   UNK N   1      35.067  12.334  13.974  0.00  0.00     0.076 A 
HETATM   10  C   UNK N   1      35.760  12.819  15.103  0.00  0.00     0.062 A 
HETATM   11  C   UNK N   1      35.754  12.107  16.303  0.00  0.00     0.026 A 
HETATM   12 Cl   UNK N   1      36.657  14.329  15.027  0.00  0.00    -0.082 Cl
HETATM   13  C   UNK N   1      35.070  10.900  16.399  0.00  0.00     0.003 A 
HETATM   14  C   UNK N   1      34.407  10.387  15.288  0.00  0.00     0.026 A 
HETATM   15  C   UNK N   1      34.396  11.081  14.073  0.00  0.00     0.062 A 
HETATM   16 Cl   UNK N   1      33.627  10.265  12.720  0.00  0.00    -0.082 Cl
ENDBRANCH   7   9
ENDBRANCH   6   7
BRANCH   5  17
HETATM   17  C   UNK N   1      35.530  15.615  11.490  0.00  0.00     0.151 C 
BRANCH  17  18
HETATM   18  C   UNK N   1      35.256  16.393  10.241  0.00  0.00     0.263 C 
HETATM   19  O   UNK N   1      35.610  17.561  10.160  0.00  0.00    -0.265 OA
BRANCH  18  20
HETATM   20  O   UNK N   1      34.628  15.784   9.207  0.00  0.00    -0.311 OA
BRANCH  20  21
HETATM   21  C   UNK N   1      33.317  16.056   8.889  0.00  0.00     0.288 C 
BRANCH  21  22
HETATM   22  C   UNK N   1      32.435  14.997   9.452  0.00  0.00     0.165 C 
HETATM   23  O   UNK N   1      32.174  14.009   8.788  0.00  0.00    -0.648 OA
BRANCH  22  24
HETATM   24  O   UNK N   1      31.920  15.132  10.688  0.00  0.00    -0.775 OA
HETATM   25  H   UNK N   1      31.157  14.675  10.983  0.00  0.00     0.167 HD
ENDBRANCH  22  24
ENDBRANCH  21  22
ENDBRANCH  20  21
ENDBRANCH  18  20
ENDBRANCH  17  18
ENDBRANCH   5  17
TORSDOF 8
ENDMDL
MODEL 7
REMARK VINA RESULT:      -6.3     13.128     14.858
REMARK  8 active torsions:
REMARK  status: ('A' for Active; 'I' for Inactive)
REMARK    1  A    between atoms: C_10  and  C_8 
REMARK    2  A    between atoms: C_15  and  C_8 
REMARK    3  A    between atoms: C_14  and  C_9 
REMARK    4  A    between atoms: O_23  and  C_9 
REMARK    5  A    between atoms: N_19  and  C_13 
REMARK    6  A    between atoms: O_21  and  C_14 
REMARK    7  A    between atoms: O_23  and  C_15 
REMARK    8  A    between atoms: N_19  and  C_16 
ROOT
HETATM    1  C   UNK N   1      20.413  13.291   4.632  0.00  0.00     0.001 A 
HETATM    2  C   UNK N   1      20.410  12.387   5.695  0.00  0.00     0.002 A 
HETATM    3  C   UNK N   1      21.035  14.531   4.775  0.00  0.00     0.010 A 
HETATM    4  C   UNK N   1      21.051  12.713   6.895  0.00  0.00     0.030 A 
HETATM    5  C   UNK N   1      21.680  14.863   5.973  0.00  0.00    -0.022 A 
HETATM    6  C   UNK N   1      21.717  13.941   7.035  0.00  0.00     0.039 A 
ENDROOT
BRANCH   6   7
HETATM    7  N   UNK N   1      22.363  14.312   8.248  0.00  0.00    -0.353 N 
HETATM    8  H   UNK N   1      22.558  15.273   8.343  0.00  0.00     0.166 HD
BRANCH   7   9
HETATM    9  C   UNK N   1      22.772  13.500   9.350  0.00  0.00     0.076 A 
HETATM   10  C   UNK N   1      24.123  13.097   9.396  0.00  0.00     0.062 A 
HETATM   11  C   UNK N   1      24.589  12.282  10.430  0.00  0.00     0.026 A 
HETATM   12 Cl   UNK N   1      25.255  13.601   8.149  0.00  0.00    -0.082 Cl
HETATM   13  C   UNK N   1      23.722  11.849  11.427  0.00  0.00     0.003 A 
HETATM   14  C   UNK N   1      22.377  12.208  11.382  0.00  0.00     0.026 A 
HETATM   15  C   UNK N   1      21.884  13.024  10.358  0.00  0.00     0.062 A 
HETATM   16 Cl   UNK N   1      20.150  13.302  10.354  0.00  0.00    -0.082 Cl
ENDBRANCH   7   9
ENDBRANCH   6   7
BRANCH   5  17
HETATM   17  C   UNK N   1      22.305  16.214   6.131  0.00  0.00     0.151 C 
BRANCH  17  18
HETATM   18  C   UNK N   1      21.241  17.261   6.234  0.00  0.00     0.263 C 
HETATM   19  O   UNK N   1      20.648  17.628   5.230  0.00  0.00    -0.265 OA
BRANCH  18  20
HETATM   20  O   UNK N   1      20.940  17.781   7.448  0.00  0.00    -0.311 OA
BRANCH  20  21
HETATM   21  C   UNK N   1      20.070  17.157   8.312  0.00  0.00     0.288 C 
BRANCH  21  22
HETATM   22  C   UNK N   1      19.403  18.174   9.171  0.00  0.00     0.165 C 
HETATM   23  O   UNK N   1      20.067  19.040   9.714  0.00  0.00    -0.648 OA
BRANCH  22  24
HETATM   24  O   UNK N   1      18.070  18.134   9.355  0.00  0.00    -0.775 OA
HETATM   25  H   UNK N   1      17.522  18.893   9.330  0.00  0.00     0.167 HD
ENDBRANCH  22  24
ENDBRANCH  21  22
ENDBRANCH  20  21
ENDBRANCH  18  20
ENDBRANCH  17  18
ENDBRANCH   5  17
TORSDOF 8
ENDMDL
MODEL 8
REMARK VINA RESULT:      -6.1      8.566     11.749
REMARK  8 active torsions:
REMARK  status: ('A' for Active; 'I' for Inactive)
REMARK    1  A    between atoms: C_10  and  C_8 
REMARK    2  A    between atoms: C_15  and  C_8 
REMARK    3  A    between atoms: C_14  and  C_9 
REMARK    4  A    between atoms: O_23  and  C_9 
REMARK    5  A    between atoms: N_19  and  C_13 
REMARK    6  A    between atoms: O_21  and  C_14 
REMARK    7  A    between atoms: O_23  and  C_15 
REMARK    8  A    between atoms: N_19  and  C_16 
ROOT
HETATM    1  C   UNK N   1      26.795  15.455   2.485  0.00  0.00     0.001 A 
HETATM    2  C   UNK N   1      28.140  15.207   2.207  0.00  0.00     0.002 A 
HETATM    3  C   UNK N   1      26.445  16.434   3.415  0.00  0.00     0.010 A 
HETATM    4  C   UNK N   1      29.136  15.955   2.842  0.00  0.00     0.030 A 
HETATM    5  C   UNK N   1      27.439  17.187   4.054  0.00  0.00    -0.022 A 
HETATM    6  C   UNK N   1      28.795  16.971   3.748  0.00  0.00     0.039 A 
ENDROOT
BRANCH   6   7
HETATM    7  N   UNK N   1      29.785  17.738   4.427  0.00  0.00    -0.353 N 
HETATM    8  H   UNK N   1      29.741  18.710   4.273  0.00  0.00     0.166 HD
BRANCH   7   9
HETATM    9  C   UNK N   1      30.834  17.310   5.297  0.00  0.00     0.076 A 
HETATM   10  C   UNK N   1      32.099  17.067   4.723  0.00  0.00     0.062 A 
HETATM   11  C   UNK N   1      33.165  16.622   5.507  0.00  0.00     0.026 A 
HETATM   12 Cl   UNK N   1      32.367  17.308   3.002  0.00  0.00    -0.082 Cl
HETATM   13  C   UNK N   1      32.989  16.403   6.869  0.00  0.00     0.003 A 
HETATM   14  C   UNK N   1      31.740  16.606   7.450  0.00  0.00     0.026 A 
HETATM   15  C   UNK N   1      30.655  17.051   6.687  0.00  0.00     0.062 A 
HETATM   16 Cl   UNK N   1      29.111  17.149   7.517  0.00  0.00    -0.082 Cl
ENDBRANCH   7   9
ENDBRANCH   6   7
BRANCH   5  17
HETATM   17  C   UNK N   1      27.055  18.204   5.083  0.00  0.00     0.151 C 
BRANCH  17  18
HETATM   18  C   UNK N   1      26.712  19.500   4.418  0.00  0.00     0.263 C 
HETATM   19  O   UNK N   1      27.539  20.061   3.713  0.00  0.00    -0.265 OA
BRANCH  18  20
HETATM   20  O   UNK N   1      25.478  20.029   4.596  0.00  0.00    -0.311 OA
BRANCH  20  21
HETATM   21  C   UNK N   1      24.388  19.594   3.877  0.00  0.00     0.288 C 
BRANCH  21  22
HETATM   22  C   UNK N   1      24.042  20.600   2.835  0.00  0.00     0.165 C 
HETATM   23  O   UNK N   1      24.801  20.793   1.902  0.00  0.00    -0.648 OA
BRANCH  22  24
HETATM   24  O   UNK N   1      22.897  21.302   2.927  0.00  0.00    -0.775 OA
HETATM   25  H   UNK N   1      22.634  21.764   3.698  0.00  0.00     0.167 HD
ENDBRANCH  22  24
ENDBRANCH  21  22
ENDBRANCH  20  21
ENDBRANCH  18  20
ENDBRANCH  17  18
ENDBRANCH   5  17
TORSDOF 8
ENDMDL
MODEL 9
REMARK VINA RESULT:      -6.1     18.142     22.021
REMARK  8 active torsions:
REMARK  status: ('A' for Active; 'I' for Inactive)
REMARK    1  A    between atoms: C_10  and  C_8 
REMARK    2  A    between atoms: C_15  and  C_8 
REMARK    3  A    between atoms: C_14  and  C_9 
REMARK    4  A    between atoms: O_23  and  C_9 
REMARK    5  A    between atoms: N_19  and  C_13 
REMARK    6  A    between atoms: O_21  and  C_14 
REMARK    7  A    between atoms: O_23  and  C_15 
REMARK    8  A    between atoms: N_19  and  C_16 
ROOT
HETATM    1  C   UNK N   1      26.194  20.928  -8.142  0.00  0.00     0.001 A 
HETATM    2  C   UNK N   1      25.330  21.884  -7.606  0.00  0.00     0.002 A 
HETATM    3  C   UNK N   1      27.573  21.083  -8.004  0.00  0.00     0.010 A 
HETATM    4  C   UNK N   1      25.845  22.984  -6.911  0.00  0.00     0.030 A 
HETATM    5  C   UNK N   1      28.095  22.181  -7.309  0.00  0.00    -0.022 A 
HETATM    6  C   UNK N   1      27.229  23.127  -6.730  0.00  0.00     0.039 A 
ENDROOT
BRANCH   6   7
HETATM    7  N   UNK N   1      27.787  24.244  -6.044  0.00  0.00    -0.353 N 
HETATM    8  H   UNK N   1      28.771  24.267  -6.012  0.00  0.00     0.166 HD
BRANCH   7   9
HETATM    9  C   UNK N   1      27.133  25.336  -5.396  0.00  0.00     0.076 A 
HETATM   10  C   UNK N   1      26.857  26.482  -6.169  0.00  0.00     0.062 A 
HETATM   11  C   UNK N   1      26.242  27.598  -5.597  0.00  0.00     0.026 A 
HETATM   12 Cl   UNK N   1      27.286  26.543  -7.874  0.00  0.00    -0.082 Cl
HETATM   13  C   UNK N   1      25.902  27.596  -4.249  0.00  0.00     0.003 A 
HETATM   14  C   UNK N   1      26.196  26.487  -3.459  0.00  0.00     0.026 A 
HETATM   15  C   UNK N   1      26.810  25.356  -4.008  0.00  0.00     0.062 A 
HETATM   16 Cl   UNK N   1      27.234  24.079  -2.879  0.00  0.00    -0.082 Cl
ENDBRANCH   7   9
ENDBRANCH   6   7
BRANCH   5  17
HETATM   17  C   UNK N   1      29.577  22.360  -7.206  0.00  0.00     0.151 C 
BRANCH  17  18
HETATM   18  C   UNK N   1      30.109  21.566  -6.055  0.00  0.00     0.263 C 
HETATM   19  O   UNK N   1      30.223  20.352  -6.152  0.00  0.00    -0.265 OA
BRANCH  18  20
HETATM   20  O   UNK N   1      30.472  22.208  -4.919  0.00  0.00    -0.311 OA
BRANCH  20  21
HETATM   21  C   UNK N   1      30.119  21.741  -3.674  0.00  0.00     0.288 C 
BRANCH  21  22
HETATM   22  C   UNK N   1      30.989  22.368  -2.640  0.00  0.00     0.165 C 
HETATM   23  O   UNK N   1      32.059  21.858  -2.357  0.00  0.00    -0.648 OA
BRANCH  22  24
HETATM   24  O   UNK N   1      30.592  23.491  -2.012  0.00  0.00    -0.775 OA
HETATM   25  H   UNK N   1      29.843  23.990  -2.272  0.00  0.00     0.167 HD
ENDBRANCH  22  24
ENDBRANCH  21  22
ENDBRANCH  20  21
ENDBRANCH  18  20
ENDBRANCH  17  18
ENDBRANCH   5  17
TORSDOF 8
ENDMDL
