MODEL 1
REMARK VINA RESULT:      -5.9      0.000      0.000
REMARK  18 active torsions:
REMARK  status: ('A' for Active; 'I' for Inactive)
REMARK    1  A    between atoms: C_2  and  C_3 
REMARK    2  A    between atoms: C_3  and  C_4 
REMARK    3  A    between atoms: C_4  and  C_5 
REMARK    4  A    between atoms: C_5  and  C_6 
REMARK    5  A    between atoms: C_6  and  C_7 
REMARK    6  A    between atoms: C_7  and  C_8 
REMARK    7  A    between atoms: C_8  and  C_10 
REMARK    8  A    between atoms: C_10  and  C_11 
REMARK    9  A    between atoms: C_12  and  C_11 
REMARK   10  A    between atoms: C_13  and  O_14 
REMARK   11  A    between atoms: C_16  and  O_17 
REMARK   12  A    between atoms: C_18  and  C_19 
REMARK   13  A    between atoms: C_19  and  C_20 
REMARK   14  A    between atoms: C_21  and  C_22 
REMARK   15  A    between atoms: C_22  and  C_23 
REMARK   16  A    between atoms: C_23  and  C_24 
REMARK   17  A    between atoms: C_24  and  C_25 
REMARK   18  A    between atoms: C_25  and  O_27 
ROOT
HETATM    1  C   UNK N   1      30.268  17.668   7.376  0.00  0.00     0.022 C 
HETATM    2  C   UNK N   1      30.735  17.230   8.744  0.00  0.00     0.125 C 
HETATM    3  C   UNK N   1      29.771  17.914   9.708  0.00  0.00     0.064 C 
HETATM    4  C   UNK N   1      28.585  18.331   8.846  0.00  0.00     0.125 C 
HETATM    5  C   UNK N   1      28.769  17.563   7.556  0.00  0.00     0.024 C 
ENDROOT
BRANCH   1   6
HETATM    6  C   UNK N   1      30.834  16.785   6.278  0.00  0.00     0.015 C 
BRANCH   6   7
HETATM    7  C   UNK N   1      31.585  17.645   5.274  0.00  0.00     0.079 C 
BRANCH   7   8
HETATM    8  C   UNK N   1      33.008  17.213   5.185  0.00  0.00     0.127 C 
HETATM    9  O   UNK N   1      33.857  17.809   5.830  0.00  0.00    -0.298 OA
BRANCH   8  10
HETATM   10  C   UNK N   1      33.375  16.052   4.305  0.00  0.00     0.078 C 
BRANCH  10  11
HETATM   11  C   UNK N   1      32.452  15.874   3.109  0.00  0.00     0.007 C 
BRANCH  11  12
HETATM   12  C   UNK N   1      31.779  14.514   3.164  0.00  0.00     0.000 C 
BRANCH  12  13
HETATM   13  C   UNK N   1      30.279  14.662   2.970  0.00  0.00     0.000 C 
BRANCH  13  14
HETATM   14  C   UNK N   1      29.908  16.102   2.637  0.00  0.00    -0.000 C 
BRANCH  14  15
HETATM   15  C   UNK N   1      28.561  16.473   3.232  0.00  0.00    -0.005 C 
HETATM   16  C   UNK N   1      28.026  15.318   4.054  0.00  0.00     0.005 C 
ENDBRANCH  14  15
ENDBRANCH  13  14
ENDBRANCH  12  13
ENDBRANCH  11  12
ENDBRANCH  10  11
ENDBRANCH   8  10
ENDBRANCH   7   8
ENDBRANCH   6   7
ENDBRANCH   1   6
BRANCH   2  17
HETATM   17  O   UNK N   1      32.051  17.625   8.979  0.00  0.00    -0.395 OA
HETATM   18  H   UNK N   1      32.375  18.474   9.319  0.00  0.00     0.210 HD
ENDBRANCH   2  17
BRANCH   5  19
HETATM   19  C   UNK N   1      27.920  18.123   6.422  0.00  0.00     0.034 C 
BRANCH  19  20
HETATM   20  C   UNK N   1      27.824  19.615   6.546  0.00  0.00    -0.030 C 
HETATM   21  C   UNK N   1      27.643  20.426   5.496  0.00  0.00    -0.031 C 
BRANCH  21  22
HETATM   22  C   UNK N   1      27.572  19.925   4.089  0.00  0.00     0.027 C 
BRANCH  22  23
HETATM   23  C   UNK N   1      26.331  20.478   3.407  0.00  0.00     0.014 C 
BRANCH  23  24
HETATM   24  C   UNK N   1      25.301  19.378   3.240  0.00  0.00     0.110 C 
BRANCH  24  25
HETATM   25  C   UNK N   1      23.915  19.919   3.376  0.00  0.00     0.139 C 
HETATM   26  O   UNK N   1      23.026  19.228   3.846  0.00  0.00    -0.650 OA
BRANCH  25  27
HETATM   27  O   UNK N   1      23.644  21.169   2.957  0.00  0.00    -0.776 OA
HETATM   28  H   UNK N   1      22.971  21.701   3.335  0.00  0.00     0.167 HD
ENDBRANCH  25  27
ENDBRANCH  24  25
ENDBRANCH  23  24
ENDBRANCH  22  23
ENDBRANCH  21  22
ENDBRANCH  19  20
ENDBRANCH   5  19
BRANCH   4  29
HETATM   29  O   UNK N   1      27.378  17.999   9.460  0.00  0.00    -0.395 OA
HETATM   30  H   UNK N   1      26.488  18.365   9.332  0.00  0.00     0.210 HD
ENDBRANCH   4  29
TORSDOF 18
ENDMDL
MODEL 2
REMARK VINA RESULT:      -5.8     10.591     14.045
REMARK  18 active torsions:
REMARK  status: ('A' for Active; 'I' for Inactive)
REMARK    1  A    between atoms: C_2  and  C_3 
REMARK    2  A    between atoms: C_3  and  C_4 
REMARK    3  A    between atoms: C_4  and  C_5 
REMARK    4  A    between atoms: C_5  and  C_6 
REMARK    5  A    between atoms: C_6  and  C_7 
REMARK    6  A    between atoms: C_7  and  C_8 
REMARK    7  A    between atoms: C_8  and  C_10 
REMARK    8  A    between atoms: C_10  and  C_11 
REMARK    9  A    between atoms: C_12  and  C_11 
REMARK   10  A    between atoms: C_13  and  O_14 
REMARK   11  A    between atoms: C_16  and  O_17 
REMARK   12  A    between atoms: C_18  and  C_19 
REMARK   13  A    between atoms: C_19  and  C_20 
REMARK   14  A    between atoms: C_21  and  C_22 
REMARK   15  A    between atoms: C_22  and  C_23 
REMARK   16  A    between atoms: C_23  and  C_24 
REMARK   17  A    between atoms: C_24  and  C_25 
REMARK   18  A    between atoms: C_25  and  O_27 
ROOT
HETATM    1  C   UNK N   1      28.592  23.450  -4.325  0.00  0.00     0.022 C 
HETATM    2  C   UNK N   1      28.231  23.904  -2.930  0.00  0.00     0.125 C 
HETATM    3  C   UNK N   1      29.072  23.018  -2.016  0.00  0.00     0.064 C 
HETATM    4  C   UNK N   1      30.152  22.435  -2.921  0.00  0.00     0.125 C 
HETATM    5  C   UNK N   1      30.089  23.279  -4.174  0.00  0.00     0.024 C 
ENDROOT
BRANCH   1   6
HETATM    6  C   UNK N   1      28.177  24.468  -5.373  0.00  0.00     0.015 C 
BRANCH   6   7
HETATM    7  C   UNK N   1      27.233  23.811  -6.368  0.00  0.00     0.079 C 
BRANCH   7   8
HETATM    8  C   UNK N   1      25.959  24.579  -6.458  0.00  0.00     0.127 C 
HETATM    9  O   UNK N   1      25.295  24.519  -7.481  0.00  0.00    -0.298 OA
BRANCH   8  10
HETATM   10  C   UNK N   1      25.512  25.411  -5.291  0.00  0.00     0.078 C 
BRANCH  10  11
HETATM   11  C   UNK N   1      24.949  26.768  -5.687  0.00  0.00     0.007 C 
BRANCH  11  12
HETATM   12  C   UNK N   1      25.485  27.849  -4.765  0.00  0.00     0.000 C 
BRANCH  12  13
HETATM   13  C   UNK N   1      26.995  27.946  -4.892  0.00  0.00     0.000 C 
BRANCH  13  14
HETATM   14  C   UNK N   1      27.392  28.755  -6.120  0.00  0.00    -0.000 C 
BRANCH  14  15
HETATM   15  C   UNK N   1      28.455  28.035  -6.932  0.00  0.00    -0.005 C 
HETATM   16  C   UNK N   1      27.806  27.284  -8.077  0.00  0.00     0.005 C 
ENDBRANCH  14  15
ENDBRANCH  13  14
ENDBRANCH  12  13
ENDBRANCH  11  12
ENDBRANCH  10  11
ENDBRANCH   8  10
ENDBRANCH   7   8
ENDBRANCH   6   7
ENDBRANCH   1   6
BRANCH   2  17
HETATM   17  O   UNK N   1      26.870  23.738  -2.682  0.00  0.00    -0.395 OA
HETATM   18  H   UNK N   1      26.261  23.088  -3.065  0.00  0.00     0.210 HD
ENDBRANCH   2  17
BRANCH   5  19
HETATM   19  C   UNK N   1      30.807  22.628  -5.349  0.00  0.00     0.034 C 
BRANCH  19  20
HETATM   20  C   UNK N   1      30.548  21.151  -5.350  0.00  0.00    -0.030 C 
HETATM   21  C   UNK N   1      29.922  20.519  -6.350  0.00  0.00    -0.031 C 
BRANCH  21  22
HETATM   22  C   UNK N   1      29.372  21.234  -7.542  0.00  0.00     0.027 C 
BRANCH  22  23
HETATM   23  C   UNK N   1      28.129  20.519  -8.045  0.00  0.00     0.014 C 
BRANCH  23  24
HETATM   24  C   UNK N   1      27.367  21.419  -8.998  0.00  0.00     0.110 C 
BRANCH  24  25
HETATM   25  C   UNK N   1      25.903  21.124  -8.956  0.00  0.00     0.139 C 
HETATM   26  O   UNK N   1      25.327  21.006  -7.887  0.00  0.00    -0.650 OA
BRANCH  25  27
HETATM   27  O   UNK N   1      25.222  20.968 -10.107  0.00  0.00    -0.776 OA
HETATM   28  H   UNK N   1      24.479  21.491 -10.338  0.00  0.00     0.167 HD
ENDBRANCH  25  27
ENDBRANCH  24  25
ENDBRANCH  23  24
ENDBRANCH  22  23
ENDBRANCH  21  22
ENDBRANCH  19  20
ENDBRANCH   5  19
BRANCH   4  29
HETATM   29  O   UNK N   1      31.408  22.520  -2.322  0.00  0.00    -0.395 OA
HETATM   30  H   UNK N   1      32.165  21.914  -2.363  0.00  0.00     0.210 HD
ENDBRANCH   4  29
TORSDOF 18
ENDMDL
MODEL 3
REMARK VINA RESULT:      -5.7      1.528      2.330
REMARK  18 active torsions:
REMARK  status: ('A' for Active; 'I' for Inactive)
REMARK    1  A    between atoms: C_2  and  C_3 
REMARK    2  A    between atoms: C_3  and  C_4 
REMARK    3  A    between atoms: C_4  and  C_5 
REMARK    4  A    between atoms: C_5  and  C_6 
REMARK    5  A    between atoms: C_6  and  C_7 
REMARK    6  A    between atoms: C_7  and  C_8 
REMARK    7  A    between atoms: C_8  and  C_10 
REMARK    8  A    between atoms: C_10  and  C_11 
REMARK    9  A    between atoms: C_12  and  C_11 
REMARK   10  A    between atoms: C_13  and  O_14 
REMARK   11  A    between atoms: C_16  and  O_17 
REMARK   12  A    between atoms: C_18  and  C_19 
REMARK   13  A    between atoms: C_19  and  C_20 
REMARK   14  A    between atoms: C_21  and  C_22 
REMARK   15  A    between atoms: C_22  and  C_23 
REMARK   16  A    between atoms: C_23  and  C_24 
REMARK   17  A    between atoms: C_24  and  C_25 
REMARK   18  A    between atoms: C_25  and  O_27 
ROOT
HETATM    1  C   UNK N   1      30.145  17.697   8.213  0.00  0.00     0.022 C 
HETATM    2  C   UNK N   1      29.431  17.613   9.542  0.00  0.00     0.125 C 
HETATM    3  C   UNK N   1      27.955  17.753   9.186  0.00  0.00     0.064 C 
HETATM    4  C   UNK N   1      27.884  17.475   7.689  0.00  0.00     0.125 C 
HETATM    5  C   UNK N   1      29.223  16.854   7.358  0.00  0.00     0.024 C 
ENDROOT
BRANCH   1   6
HETATM    6  C   UNK N   1      31.569  17.178   8.305  0.00  0.00     0.015 C 
BRANCH   6   7
HETATM    7  C   UNK N   1      32.537  18.350   8.270  0.00  0.00     0.079 C 
BRANCH   7   8
HETATM    8  C   UNK N   1      33.732  18.010   7.449  0.00  0.00     0.127 C 
HETATM    9  O   UNK N   1      34.801  18.551   7.693  0.00  0.00    -0.298 OA
BRANCH   8  10
HETATM   10  C   UNK N   1      33.607  17.010   6.336  0.00  0.00     0.078 C 
BRANCH  10  11
HETATM   11  C   UNK N   1      33.227  17.627   4.999  0.00  0.00     0.007 C 
BRANCH  11  12
HETATM   12  C   UNK N   1      33.057  16.542   3.949  0.00  0.00     0.000 C 
BRANCH  12  13
HETATM   13  C   UNK N   1      32.010  16.957   2.930  0.00  0.00     0.000 C 
BRANCH  13  14
HETATM   14  C   UNK N   1      30.929  15.892   2.790  0.00  0.00    -0.000 C 
BRANCH  14  15
HETATM   15  C   UNK N   1      31.280  14.646   3.584  0.00  0.00    -0.005 C 
HETATM   16  C   UNK N   1      31.424  13.463   2.648  0.00  0.00     0.005 C 
ENDBRANCH  14  15
ENDBRANCH  13  14
ENDBRANCH  12  13
ENDBRANCH  11  12
ENDBRANCH  10  11
ENDBRANCH   8  10
ENDBRANCH   7   8
ENDBRANCH   6   7
ENDBRANCH   1   6
BRANCH   2  17
HETATM   17  O   UNK N   1      29.843  18.631  10.401  0.00  0.00    -0.395 OA
HETATM   18  H   UNK N   1      29.622  18.758  11.336  0.00  0.00     0.210 HD
ENDBRANCH   2  17
BRANCH   5  19
HETATM   19  C   UNK N   1      29.511  16.859   5.863  0.00  0.00     0.034 C 
BRANCH  19  20
HETATM   20  C   UNK N   1      29.445  18.261   5.335  0.00  0.00    -0.030 C 
HETATM   21  C   UNK N   1      28.494  18.682   4.492  0.00  0.00    -0.031 C 
BRANCH  21  22
HETATM   22  C   UNK N   1      27.432  17.778   3.953  0.00  0.00     0.027 C 
BRANCH  22  23
HETATM   23  C   UNK N   1      26.067  18.423   4.130  0.00  0.00     0.014 C 
BRANCH  23  24
HETATM   24  C   UNK N   1      26.165  19.914   3.871  0.00  0.00     0.110 C 
BRANCH  24  25
HETATM   25  C   UNK N   1      25.036  20.382   3.012  0.00  0.00     0.139 C 
HETATM   26  O   UNK N   1      25.247  20.789   1.881  0.00  0.00    -0.650 OA
BRANCH  25  27
HETATM   27  O   UNK N   1      23.781  20.374   3.500  0.00  0.00    -0.776 OA
HETATM   28  H   UNK N   1      23.050  20.027   3.027  0.00  0.00     0.167 HD
ENDBRANCH  25  27
ENDBRANCH  24  25
ENDBRANCH  23  24
ENDBRANCH  22  23
ENDBRANCH  21  22
ENDBRANCH  19  20
ENDBRANCH   5  19
BRANCH   4  29
HETATM   29  O   UNK N   1      26.839  16.603   7.389  0.00  0.00    -0.395 OA
HETATM   30  H   UNK N   1      25.940  16.554   7.752  0.00  0.00     0.210 HD
ENDBRANCH   4  29
TORSDOF 18
ENDMDL
MODEL 4
REMARK VINA RESULT:      -5.7      9.802     12.574
REMARK  18 active torsions:
REMARK  status: ('A' for Active; 'I' for Inactive)
REMARK    1  A    between atoms: C_2  and  C_3 
REMARK    2  A    between atoms: C_3  and  C_4 
REMARK    3  A    between atoms: C_4  and  C_5 
REMARK    4  A    between atoms: C_5  and  C_6 
REMARK    5  A    between atoms: C_6  and  C_7 
REMARK    6  A    between atoms: C_7  and  C_8 
REMARK    7  A    between atoms: C_8  and  C_10 
REMARK    8  A    between atoms: C_10  and  C_11 
REMARK    9  A    between atoms: C_12  and  C_11 
REMARK   10  A    between atoms: C_13  and  O_14 
REMARK   11  A    between atoms: C_16  and  O_17 
REMARK   12  A    between atoms: C_18  and  C_19 
REMARK   13  A    between atoms: C_19  and  C_20 
REMARK   14  A    between atoms: C_21  and  C_22 
REMARK   15  A    between atoms: C_22  and  C_23 
REMARK   16  A    between atoms: C_23  and  C_24 
REMARK   17  A    between atoms: C_24  and  C_25 
REMARK   18  A    between atoms: C_25  and  O_27 
ROOT
HETATM    1  C   UNK N   1      32.064  21.398  -4.224  0.00  0.00     0.022 C 
HETATM    2  C   UNK N   1      33.200  21.241  -3.241  0.00  0.00     0.125 C 
HETATM    3  C   UNK N   1      34.029  20.090  -3.802  0.00  0.00     0.064 C 
HETATM    4  C   UNK N   1      33.577  19.954  -5.252  0.00  0.00     0.125 C 
HETATM    5  C   UNK N   1      32.811  21.227  -5.529  0.00  0.00     0.024 C 
ENDROOT
BRANCH   1   6
HETATM    6  C   UNK N   1      31.364  22.736  -4.068  0.00  0.00     0.015 C 
BRANCH   6   7
HETATM    7  C   UNK N   1      29.898  22.505  -3.739  0.00  0.00     0.079 C 
BRANCH   7   8
HETATM    8  C   UNK N   1      29.584  23.022  -2.378  0.00  0.00     0.127 C 
HETATM    9  O   UNK N   1      30.446  22.995  -1.512  0.00  0.00    -0.298 OA
BRANCH   8  10
HETATM   10  C   UNK N   1      28.216  23.569  -2.091  0.00  0.00     0.078 C 
BRANCH  10  11
HETATM   11  C   UNK N   1      27.362  23.766  -3.335  0.00  0.00     0.007 C 
BRANCH  11  12
HETATM   12  C   UNK N   1      27.002  25.232  -3.498  0.00  0.00     0.000 C 
BRANCH  12  13
HETATM   13  C   UNK N   1      27.445  25.733  -4.862  0.00  0.00     0.000 C 
BRANCH  13  14
HETATM   14  C   UNK N   1      28.965  25.779  -4.963  0.00  0.00    -0.000 C 
BRANCH  14  15
HETATM   15  C   UNK N   1      29.549  26.787  -3.989  0.00  0.00    -0.005 C 
HETATM   16  C   UNK N   1      30.928  26.337  -3.548  0.00  0.00     0.005 C 
ENDBRANCH  14  15
ENDBRANCH  13  14
ENDBRANCH  12  13
ENDBRANCH  11  12
ENDBRANCH  10  11
ENDBRANCH   8  10
ENDBRANCH   7   8
ENDBRANCH   6   7
ENDBRANCH   1   6
BRANCH   2  17
HETATM   17  O   UNK N   1      32.726  20.948  -1.963  0.00  0.00    -0.395 OA
HETATM   18  H   UNK N   1      33.210  20.958  -1.123  0.00  0.00     0.210 HD
ENDBRANCH   2  17
BRANCH   5  19
HETATM   19  C   UNK N   1      31.950  21.125  -6.781  0.00  0.00     0.034 C 
BRANCH  19  20
HETATM   20  C   UNK N   1      30.800  20.193  -6.535  0.00  0.00    -0.030 C 
HETATM   21  C   UNK N   1      29.539  20.482  -6.876  0.00  0.00    -0.031 C 
BRANCH  21  22
HETATM   22  C   UNK N   1      29.144  21.788  -7.489  0.00  0.00     0.027 C 
BRANCH  22  23
HETATM   23  C   UNK N   1      27.894  22.320  -6.807  0.00  0.00     0.014 C 
BRANCH  23  24
HETATM   24  C   UNK N   1      27.133  23.222  -7.759  0.00  0.00     0.110 C 
BRANCH  24  25
HETATM   25  C   UNK N   1      25.669  23.197  -7.464  0.00  0.00     0.139 C 
HETATM   26  O   UNK N   1      24.856  23.177  -8.373  0.00  0.00    -0.650 OA
BRANCH  25  27
HETATM   27  O   UNK N   1      25.247  23.218  -6.185  0.00  0.00    -0.776 OA
HETATM   28  H   UNK N   1      25.464  22.551  -5.563  0.00  0.00     0.167 HD
ENDBRANCH  25  27
ENDBRANCH  24  25
ENDBRANCH  23  24
ENDBRANCH  22  23
ENDBRANCH  21  22
ENDBRANCH  19  20
ENDBRANCH   5  19
BRANCH   4  29
HETATM   29  O   UNK N   1      34.671  19.830  -6.108  0.00  0.00    -0.395 OA
HETATM   30  H   UNK N   1      34.705  19.742  -7.074  0.00  0.00     0.210 HD
ENDBRANCH   4  29
TORSDOF 18
ENDMDL
MODEL 5
REMARK VINA RESULT:      -5.6     10.853     14.909
REMARK  18 active torsions:
REMARK  status: ('A' for Active; 'I' for Inactive)
REMARK    1  A    between atoms: C_2  and  C_3 
REMARK    2  A    between atoms: C_3  and  C_4 
REMARK    3  A    between atoms: C_4  and  C_5 
REMARK    4  A    between atoms: C_5  and  C_6 
REMARK    5  A    between atoms: C_6  and  C_7 
REMARK    6  A    between atoms: C_7  and  C_8 
REMARK    7  A    between atoms: C_8  and  C_10 
REMARK    8  A    between atoms: C_10  and  C_11 
REMARK    9  A    between atoms: C_12  and  C_11 
REMARK   10  A    between atoms: C_13  and  O_14 
REMARK   11  A    between atoms: C_16  and  O_17 
REMARK   12  A    between atoms: C_18  and  C_19 
REMARK   13  A    between atoms: C_19  and  C_20 
REMARK   14  A    between atoms: C_21  and  C_22 
REMARK   15  A    between atoms: C_22  and  C_23 
REMARK   16  A    between atoms: C_23  and  C_24 
REMARK   17  A    between atoms: C_24  and  C_25 
REMARK   18  A    between atoms: C_25  and  O_27 
ROOT
HETATM    1  C   UNK N   1      27.013  25.886  -5.765  0.00  0.00     0.022 C 
HETATM    2  C   UNK N   1      25.865  24.927  -5.549  0.00  0.00     0.125 C 
HETATM    3  C   UNK N   1      26.506  23.717  -4.876  0.00  0.00     0.064 C 
HETATM    4  C   UNK N   1      27.852  24.220  -4.367  0.00  0.00     0.125 C 
HETATM    5  C   UNK N   1      27.749  25.726  -4.452  0.00  0.00     0.024 C 
ENDROOT
BRANCH   1   6
HETATM    6  C   UNK N   1      26.524  27.296  -6.046  0.00  0.00     0.015 C 
BRANCH   6   7
HETATM    7  C   UNK N   1      25.308  27.590  -5.183  0.00  0.00     0.079 C 
BRANCH   7   8
HETATM    8  C   UNK N   1      25.715  28.303  -3.940  0.00  0.00     0.127 C 
HETATM    9  O   UNK N   1      25.417  27.831  -2.853  0.00  0.00    -0.298 OA
BRANCH   8  10
HETATM   10  C   UNK N   1      26.487  29.587  -4.042  0.00  0.00     0.078 C 
BRANCH  10  11
HETATM   11  C   UNK N   1      27.674  29.664  -3.094  0.00  0.00     0.007 C 
BRANCH  11  12
HETATM   12  C   UNK N   1      28.935  30.024  -3.859  0.00  0.00     0.000 C 
BRANCH  12  13
HETATM   13  C   UNK N   1      28.608  30.273  -5.322  0.00  0.00     0.000 C 
BRANCH  13  14
HETATM   14  C   UNK N   1      29.707  29.734  -6.229  0.00  0.00    -0.000 C 
BRANCH  14  15
HETATM   15  C   UNK N   1      29.339  29.898  -7.694  0.00  0.00    -0.005 C 
HETATM   16  C   UNK N   1      29.074  28.540  -8.312  0.00  0.00     0.005 C 
ENDBRANCH  14  15
ENDBRANCH  13  14
ENDBRANCH  12  13
ENDBRANCH  11  12
ENDBRANCH  10  11
ENDBRANCH   8  10
ENDBRANCH   7   8
ENDBRANCH   6   7
ENDBRANCH   1   6
BRANCH   2  17
HETATM   17  O   UNK N   1      25.267  24.576  -6.758  0.00  0.00    -0.395 OA
HETATM   18  H   UNK N   1      24.328  24.420  -6.943  0.00  0.00     0.210 HD
ENDBRANCH   2  17
BRANCH   5  19
HETATM   19  C   UNK N   1      29.108  26.407  -4.362  0.00  0.00     0.034 C 
BRANCH  19  20
HETATM   20  C   UNK N   1      29.897  26.137  -5.609  0.00  0.00    -0.030 C 
HETATM   21  C   UNK N   1      31.044  25.448  -5.613  0.00  0.00    -0.031 C 
BRANCH  21  22
HETATM   22  C   UNK N   1      31.679  24.924  -4.364  0.00  0.00     0.027 C 
BRANCH  22  23
HETATM   23  C   UNK N   1      32.155  23.497  -4.588  0.00  0.00     0.014 C 
BRANCH  23  24
HETATM   24  C   UNK N   1      31.134  22.521  -4.038  0.00  0.00     0.110 C 
BRANCH  24  25
HETATM   25  C   UNK N   1      31.339  22.302  -2.574  0.00  0.00     0.139 C 
HETATM   26  O   UNK N   1      30.657  22.901  -1.759  0.00  0.00    -0.650 OA
BRANCH  25  27
HETATM   27  O   UNK N   1      32.296  21.453  -2.156  0.00  0.00    -0.776 OA
HETATM   28  H   UNK N   1      32.771  20.890  -2.735  0.00  0.00     0.167 HD
ENDBRANCH  25  27
ENDBRANCH  24  25
ENDBRANCH  23  24
ENDBRANCH  22  23
ENDBRANCH  21  22
ENDBRANCH  19  20
ENDBRANCH   5  19
BRANCH   4  29
HETATM   29  O   UNK N   1      28.078  23.805  -3.054  0.00  0.00    -0.395 OA
HETATM   30  H   UNK N   1      28.275  22.924  -2.701  0.00  0.00     0.210 HD
ENDBRANCH   4  29
TORSDOF 18
ENDMDL
MODEL 6
REMARK VINA RESULT:      -5.6      7.004      8.935
REMARK  18 active torsions:
REMARK  status: ('A' for Active; 'I' for Inactive)
REMARK    1  A    between atoms: C_2  and  C_3 
REMARK    2  A    between atoms: C_3  and  C_4 
REMARK    3  A    between atoms: C_4  and  C_5 
REMARK    4  A    between atoms: C_5  and  C_6 
REMARK    5  A    between atoms: C_6  and  C_7 
REMARK    6  A    between atoms: C_7  and  C_8 
REMARK    7  A    between atoms: C_8  and  C_10 
REMARK    8  A    between atoms: C_10  and  C_11 
REMARK    9  A    between atoms: C_12  and  C_11 
REMARK   10  A    between atoms: C_13  and  O_14 
REMARK   11  A    between atoms: C_16  and  O_17 
REMARK   12  A    between atoms: C_18  and  C_19 
REMARK   13  A    between atoms: C_19  and  C_20 
REMARK   14  A    between atoms: C_21  and  C_22 
REMARK   15  A    between atoms: C_22  and  C_23 
REMARK   16  A    between atoms: C_23  and  C_24 
REMARK   17  A    between atoms: C_24  and  C_25 
REMARK   18  A    between atoms: C_25  and  O_27 
ROOT
HETATM    1  C   UNK N   1      23.632  12.682  10.081  0.00  0.00     0.022 C 
HETATM    2  C   UNK N   1      24.247  11.963  11.259  0.00  0.00     0.125 C 
HETATM    3  C   UNK N   1      23.166  12.008  12.334  0.00  0.00     0.064 C 
HETATM    4  C   UNK N   1      21.882  12.349  11.585  0.00  0.00     0.125 C 
HETATM    5  C   UNK N   1      22.225  12.125  10.129  0.00  0.00     0.024 C 
ENDROOT
BRANCH   1   6
HETATM    6  C   UNK N   1      24.380  12.392   8.791  0.00  0.00     0.015 C 
BRANCH   6   7
HETATM    7  C   UNK N   1      24.609  13.692   8.038  0.00  0.00     0.079 C 
BRANCH   7   8
HETATM    8  C   UNK N   1      23.884  13.671   6.737  0.00  0.00     0.127 C 
HETATM    9  O   UNK N   1      23.554  12.600   6.251  0.00  0.00    -0.298 OA
BRANCH   8  10
HETATM   10  C   UNK N   1      23.569  14.966   6.044  0.00  0.00     0.078 C 
BRANCH  10  11
HETATM   11  C   UNK N   1      22.880  14.789   4.699  0.00  0.00     0.007 C 
BRANCH  11  12
HETATM   12  C   UNK N   1      22.075  16.029   4.354  0.00  0.00     0.000 C 
BRANCH  12  13
HETATM   13  C   UNK N   1      22.585  17.223   5.143  0.00  0.00     0.000 C 
BRANCH  13  14
HETATM   14  C   UNK N   1      22.384  18.519   4.369  0.00  0.00    -0.000 C 
BRANCH  14  15
HETATM   15  C   UNK N   1      20.918  18.739   4.038  0.00  0.00    -0.005 C 
HETATM   16  C   UNK N   1      20.734  20.102   3.402  0.00  0.00     0.005 C 
ENDBRANCH  14  15
ENDBRANCH  13  14
ENDBRANCH  12  13
ENDBRANCH  11  12
ENDBRANCH  10  11
ENDBRANCH   8  10
ENDBRANCH   7   8
ENDBRANCH   6   7
ENDBRANCH   1   6
BRANCH   2  17
HETATM   17  O   UNK N   1      25.412  12.598  11.686  0.00  0.00    -0.395 OA
HETATM   18  H   UNK N   1      26.220  12.778  11.182  0.00  0.00     0.210 HD
ENDBRANCH   2  17
BRANCH   5  19
HETATM   19  C   UNK N   1      21.218  12.774   9.190  0.00  0.00     0.034 C 
BRANCH  19  20
HETATM   20  C   UNK N   1      20.514  13.897   9.893  0.00  0.00    -0.030 C 
HETATM   21  C   UNK N   1      20.106  15.009   9.270  0.00  0.00    -0.031 C 
BRANCH  21  22
HETATM   22  C   UNK N   1      20.361  15.264   7.819  0.00  0.00     0.027 C 
BRANCH  22  23
HETATM   23  C   UNK N   1      19.645  16.532   7.385  0.00  0.00     0.014 C 
BRANCH  23  24
HETATM   24  C   UNK N   1      19.178  17.303   8.604  0.00  0.00     0.110 C 
BRANCH  24  25
HETATM   25  C   UNK N   1      19.975  18.553   8.783  0.00  0.00     0.139 C 
HETATM   26  O   UNK N   1      19.946  19.158   9.843  0.00  0.00    -0.650 OA
BRANCH  25  27
HETATM   27  O   UNK N   1      20.713  19.025   7.761  0.00  0.00    -0.776 OA
HETATM   28  H   UNK N   1      20.551  18.800   6.865  0.00  0.00     0.167 HD
ENDBRANCH  25  27
ENDBRANCH  24  25
ENDBRANCH  23  24
ENDBRANCH  22  23
ENDBRANCH  21  22
ENDBRANCH  19  20
ENDBRANCH   5  19
BRANCH   4  29
HETATM   29  O   UNK N   1      20.833  11.523  11.987  0.00  0.00    -0.395 OA
HETATM   30  H   UNK N   1      20.652  10.593  11.778  0.00  0.00     0.210 HD
ENDBRANCH   4  29
TORSDOF 18
ENDMDL
MODEL 7
REMARK VINA RESULT:      -5.6      1.258      1.740
REMARK  18 active torsions:
REMARK  status: ('A' for Active; 'I' for Inactive)
REMARK    1  A    between atoms: C_2  and  C_3 
REMARK    2  A    between atoms: C_3  and  C_4 
REMARK    3  A    between atoms: C_4  and  C_5 
REMARK    4  A    between atoms: C_5  and  C_6 
REMARK    5  A    between atoms: C_6  and  C_7 
REMARK    6  A    between atoms: C_7  and  C_8 
REMARK    7  A    between atoms: C_8  and  C_10 
REMARK    8  A    between atoms: C_10  and  C_11 
REMARK    9  A    between atoms: C_12  and  C_11 
REMARK   10  A    between atoms: C_13  and  O_14 
REMARK   11  A    between atoms: C_16  and  O_17 
REMARK   12  A    between atoms: C_18  and  C_19 
REMARK   13  A    between atoms: C_19  and  C_20 
REMARK   14  A    between atoms: C_21  and  C_22 
REMARK   15  A    between atoms: C_22  and  C_23 
REMARK   16  A    between atoms: C_23  and  C_24 
REMARK   17  A    between atoms: C_24  and  C_25 
REMARK   18  A    between atoms: C_25  and  O_27 
ROOT
HETATM    1  C   UNK N   1      30.270  17.534   7.372  0.00  0.00     0.022 C 
HETATM    2  C   UNK N   1      30.780  17.600   8.793  0.00  0.00     0.125 C 
HETATM    3  C   UNK N   1      29.755  18.462   9.522  0.00  0.00     0.064 C 
HETATM    4  C   UNK N   1      28.532  18.471   8.611  0.00  0.00     0.125 C 
HETATM    5  C   UNK N   1      28.789  17.354   7.625  0.00  0.00     0.024 C 
ENDROOT
BRANCH   1   6
HETATM    6  C   UNK N   1      30.919  16.403   6.593  0.00  0.00     0.015 C 
BRANCH   6   7
HETATM    7  C   UNK N   1      31.945  16.978   5.630  0.00  0.00     0.079 C 
BRANCH   7   8
HETATM    8  C   UNK N   1      32.229  16.008   4.535  0.00  0.00     0.127 C 
HETATM    9  O   UNK N   1      32.827  14.974   4.791  0.00  0.00    -0.298 OA
BRANCH   8  10
HETATM   10  C   UNK N   1      31.774  16.315   3.137  0.00  0.00     0.078 C 
BRANCH  10  11
HETATM   11  C   UNK N   1      30.264  16.273   2.962  0.00  0.00     0.007 C 
BRANCH  11  12
HETATM   12  C   UNK N   1      29.724  14.917   3.382  0.00  0.00     0.000 C 
BRANCH  12  13
HETATM   13  C   UNK N   1      28.244  15.020   3.711  0.00  0.00     0.000 C 
BRANCH  13  14
HETATM   14  C   UNK N   1      27.511  15.869   2.681  0.00  0.00    -0.000 C 
BRANCH  14  15
HETATM   15  C   UNK N   1      26.006  15.694   2.797  0.00  0.00    -0.005 C 
HETATM   16  C   UNK N   1      25.423  16.808   3.645  0.00  0.00     0.005 C 
ENDBRANCH  14  15
ENDBRANCH  13  14
ENDBRANCH  12  13
ENDBRANCH  11  12
ENDBRANCH  10  11
ENDBRANCH   8  10
ENDBRANCH   7   8
ENDBRANCH   6   7
ENDBRANCH   1   6
BRANCH   2  17
HETATM   17  O   UNK N   1      32.051  18.170   8.847  0.00  0.00    -0.395 OA
HETATM   18  H   UNK N   1      32.851  17.821   9.270  0.00  0.00     0.210 HD
ENDBRANCH   2  17
BRANCH   5  19
HETATM   19  C   UNK N   1      27.888  17.442   6.401  0.00  0.00     0.034 C 
BRANCH  19  20
HETATM   20  C   UNK N   1      28.503  18.353   5.380  0.00  0.00    -0.030 C 
HETATM   21  C   UNK N   1      28.081  19.605   5.169  0.00  0.00    -0.031 C 
BRANCH  21  22
HETATM   22  C   UNK N   1      26.919  20.202   5.897  0.00  0.00     0.027 C 
BRANCH  22  23
HETATM   23  C   UNK N   1      25.687  20.180   5.007  0.00  0.00     0.014 C 
BRANCH  23  24
HETATM   24  C   UNK N   1      26.073  20.527   3.583  0.00  0.00     0.110 C 
BRANCH  24  25
HETATM   25  C   UNK N   1      24.865  20.627   2.710  0.00  0.00     0.139 C 
HETATM   26  O   UNK N   1      24.965  20.502   1.500  0.00  0.00    -0.650 OA
BRANCH  25  27
HETATM   27  O   UNK N   1      23.664  20.879   3.263  0.00  0.00    -0.776 OA
HETATM   28  H   UNK N   1      22.881  20.428   3.013  0.00  0.00     0.167 HD
ENDBRANCH  25  27
ENDBRANCH  24  25
ENDBRANCH  23  24
ENDBRANCH  22  23
ENDBRANCH  21  22
ENDBRANCH  19  20
ENDBRANCH   5  19
BRANCH   4  29
HETATM   29  O   UNK N   1      27.364  18.241   9.337  0.00  0.00    -0.395 OA
HETATM   30  H   UNK N   1      27.157  17.554   9.990  0.00  0.00     0.210 HD
ENDBRANCH   4  29
TORSDOF 18
ENDMDL
MODEL 8
REMARK VINA RESULT:      -5.5      6.185      7.794
REMARK  18 active torsions:
REMARK  status: ('A' for Active; 'I' for Inactive)
REMARK    1  A    between atoms: C_2  and  C_3 
REMARK    2  A    between atoms: C_3  and  C_4 
REMARK    3  A    between atoms: C_4  and  C_5 
REMARK    4  A    between atoms: C_5  and  C_6 
REMARK    5  A    between atoms: C_6  and  C_7 
REMARK    6  A    between atoms: C_7  and  C_8 
REMARK    7  A    between atoms: C_8  and  C_10 
REMARK    8  A    between atoms: C_10  and  C_11 
REMARK    9  A    between atoms: C_12  and  C_11 
REMARK   10  A    between atoms: C_13  and  O_14 
REMARK   11  A    between atoms: C_16  and  O_17 
REMARK   12  A    between atoms: C_18  and  C_19 
REMARK   13  A    between atoms: C_19  and  C_20 
REMARK   14  A    between atoms: C_21  and  C_22 
REMARK   15  A    between atoms: C_22  and  C_23 
REMARK   16  A    between atoms: C_23  and  C_24 
REMARK   17  A    between atoms: C_24  and  C_25 
REMARK   18  A    between atoms: C_25  and  O_27 
ROOT
HETATM    1  C   UNK N   1      23.628  12.679  10.034  0.00  0.00     0.022 C 
HETATM    2  C   UNK N   1      24.203  11.928  11.212  0.00  0.00     0.125 C 
HETATM    3  C   UNK N   1      23.114  12.006  12.277  0.00  0.00     0.064 C 
HETATM    4  C   UNK N   1      21.851  12.400  11.517  0.00  0.00     0.125 C 
HETATM    5  C   UNK N   1      22.201  12.174  10.064  0.00  0.00     0.024 C 
ENDROOT
BRANCH   1   6
HETATM    6  C   UNK N   1      24.379  12.371   8.750  0.00  0.00     0.015 C 
BRANCH   6   7
HETATM    7  C   UNK N   1      24.982  13.653   8.198  0.00  0.00     0.079 C 
BRANCH   7   8
HETATM    8  C   UNK N   1      24.464  13.921   6.828  0.00  0.00     0.127 C 
HETATM    9  O   UNK N   1      23.769  13.082   6.274  0.00  0.00    -0.298 OA
BRANCH   8  10
HETATM   10  C   UNK N   1      24.801  15.218   6.149  0.00  0.00     0.078 C 
BRANCH  10  11
HETATM   11  C   UNK N   1      26.145  15.796   6.568  0.00  0.00     0.007 C 
BRANCH  11  12
HETATM   12  C   UNK N   1      26.771  16.558   5.413  0.00  0.00     0.000 C 
BRANCH  12  13
HETATM   13  C   UNK N   1      27.919  17.418   5.914  0.00  0.00     0.000 C 
BRANCH  13  14
HETATM   14  C   UNK N   1      27.516  18.886   5.979  0.00  0.00    -0.000 C 
BRANCH  14  15
HETATM   15  C   UNK N   1      28.046  19.654   4.780  0.00  0.00    -0.005 C 
HETATM   16  C   UNK N   1      26.907  19.979   3.834  0.00  0.00     0.005 C 
ENDBRANCH  14  15
ENDBRANCH  13  14
ENDBRANCH  12  13
ENDBRANCH  11  12
ENDBRANCH  10  11
ENDBRANCH   8  10
ENDBRANCH   7   8
ENDBRANCH   6   7
ENDBRANCH   1   6
BRANCH   2  17
HETATM   17  O   UNK N   1      25.386  12.516  11.656  0.00  0.00    -0.395 OA
HETATM   18  H   UNK N   1      25.522  13.410  12.008  0.00  0.00     0.210 HD
ENDBRANCH   2  17
BRANCH   5  19
HETATM   19  C   UNK N   1      21.229  12.868   9.119  0.00  0.00     0.034 C 
BRANCH  19  20
HETATM   20  C   UNK N   1      20.792  14.177   9.708  0.00  0.00    -0.030 C 
HETATM   21  C   UNK N   1      20.784  15.323   9.018  0.00  0.00    -0.031 C 
BRANCH  21  22
HETATM   22  C   UNK N   1      21.262  15.421   7.604  0.00  0.00     0.027 C 
BRANCH  22  23
HETATM   23  C   UNK N   1      20.191  16.069   6.741  0.00  0.00     0.014 C 
BRANCH  23  24
HETATM   24  C   UNK N   1      20.840  16.889   5.644  0.00  0.00     0.110 C 
BRANCH  24  25
HETATM   25  C   UNK N   1      21.569  18.062   6.213  0.00  0.00     0.139 C 
HETATM   26  O   UNK N   1      21.015  18.811   7.001  0.00  0.00    -0.650 OA
BRANCH  25  27
HETATM   27  O   UNK N   1      22.839  18.304   5.835  0.00  0.00    -0.776 OA
HETATM   28  H   UNK N   1      23.064  18.893   5.142  0.00  0.00     0.167 HD
ENDBRANCH  25  27
ENDBRANCH  24  25
ENDBRANCH  23  24
ENDBRANCH  22  23
ENDBRANCH  21  22
ENDBRANCH  19  20
ENDBRANCH   5  19
BRANCH   4  29
HETATM   29  O   UNK N   1      20.768  11.611  11.901  0.00  0.00    -0.395 OA
HETATM   30  H   UNK N   1      20.660  10.647  11.892  0.00  0.00     0.210 HD
ENDBRANCH   4  29
TORSDOF 18
ENDMDL
MODEL 9
REMARK VINA RESULT:      -5.5      7.185      9.923
REMARK  18 active torsions:
REMARK  status: ('A' for Active; 'I' for Inactive)
REMARK    1  A    between atoms: C_2  and  C_3 
REMARK    2  A    between atoms: C_3  and  C_4 
REMARK    3  A    between atoms: C_4  and  C_5 
REMARK    4  A    between atoms: C_5  and  C_6 
REMARK    5  A    between atoms: C_6  and  C_7 
REMARK    6  A    between atoms: C_7  and  C_8 
REMARK    7  A    between atoms: C_8  and  C_10 
REMARK    8  A    between atoms: C_10  and  C_11 
REMARK    9  A    between atoms: C_12  and  C_11 
REMARK   10  A    between atoms: C_13  and  O_14 
REMARK   11  A    between atoms: C_16  and  O_17 
REMARK   12  A    between atoms: C_18  and  C_19 
REMARK   13  A    between atoms: C_19  and  C_20 
REMARK   14  A    between atoms: C_21  and  C_22 
REMARK   15  A    between atoms: C_22  and  C_23 
REMARK   16  A    between atoms: C_23  and  C_24 
REMARK   17  A    between atoms: C_24  and  C_25 
REMARK   18  A    between atoms: C_25  and  O_27 
ROOT
HETATM    1  C   UNK N   1      22.184  12.192   9.988  0.00  0.00     0.022 C 
HETATM    2  C   UNK N   1      21.873  12.434  11.447  0.00  0.00     0.125 C 
HETATM    3  C   UNK N   1      23.124  11.965  12.183  0.00  0.00     0.064 C 
HETATM    4  C   UNK N   1      24.206  11.897  11.110  0.00  0.00     0.125 C 
HETATM    5  C   UNK N   1      23.624  12.656   9.939  0.00  0.00     0.024 C 
ENDROOT
BRANCH   1   6
HETATM    6  C   UNK N   1      21.243  12.959   9.076  0.00  0.00     0.015 C 
BRANCH   6   7
HETATM    7  C   UNK N   1      21.326  14.442   9.398  0.00  0.00     0.079 C 
BRANCH   7   8
HETATM    8  C   UNK N   1      19.981  15.073   9.282  0.00  0.00     0.127 C 
HETATM    9  O   UNK N   1      19.005  14.492   9.731  0.00  0.00    -0.298 OA
BRANCH   8  10
HETATM   10  C   UNK N   1      19.847  16.414   8.619  0.00  0.00     0.078 C 
BRANCH  10  11
HETATM   11  C   UNK N   1      20.703  16.566   7.370  0.00  0.00     0.007 C 
BRANCH  11  12
HETATM   12  C   UNK N   1      20.064  15.835   6.203  0.00  0.00     0.000 C 
BRANCH  12  13
HETATM   13  C   UNK N   1      20.448  16.501   4.892  0.00  0.00     0.000 C 
BRANCH  13  14
HETATM   14  C   UNK N   1      21.838  17.117   4.977  0.00  0.00    -0.000 C 
BRANCH  14  15
HETATM   15  C   UNK N   1      22.652  16.809   3.731  0.00  0.00    -0.005 C 
HETATM   16  C   UNK N   1      21.906  15.814   2.864  0.00  0.00     0.005 C 
ENDBRANCH  14  15
ENDBRANCH  13  14
ENDBRANCH  12  13
ENDBRANCH  11  12
ENDBRANCH  10  11
ENDBRANCH   8  10
ENDBRANCH   7   8
ENDBRANCH   6   7
ENDBRANCH   1   6
BRANCH   2  17
HETATM   17  O   UNK N   1      20.749  11.714  11.850  0.00  0.00    -0.395 OA
HETATM   18  H   UNK N   1      19.957  11.493  11.336  0.00  0.00     0.210 HD
ENDBRANCH   2  17
BRANCH   5  19
HETATM   19  C   UNK N   1      24.369  12.379   8.641  0.00  0.00     0.034 C 
BRANCH  19  20
HETATM   20  C   UNK N   1      25.107  13.611   8.204  0.00  0.00    -0.030 C 
HETATM   21  C   UNK N   1      24.662  14.427   7.242  0.00  0.00    -0.031 C 
BRANCH  21  22
HETATM   22  C   UNK N   1      23.409  14.162   6.471  0.00  0.00     0.027 C 
BRANCH  22  23
HETATM   23  C   UNK N   1      23.747  13.481   5.154  0.00  0.00     0.014 C 
BRANCH  23  24
HETATM   24  C   UNK N   1      22.584  12.617   4.708  0.00  0.00     0.110 C 
BRANCH  24  25
HETATM   25  C   UNK N   1      22.489  11.379   5.537  0.00  0.00     0.139 C 
HETATM   26  O   UNK N   1      23.458  10.651   5.674  0.00  0.00    -0.650 OA
BRANCH  25  27
HETATM   27  O   UNK N   1      21.318  11.056   6.118  0.00  0.00    -0.776 OA
HETATM   28  H   UNK N   1      20.605  10.665   5.652  0.00  0.00     0.167 HD
ENDBRANCH  25  27
ENDBRANCH  24  25
ENDBRANCH  23  24
ENDBRANCH  22  23
ENDBRANCH  21  22
ENDBRANCH  19  20
ENDBRANCH   5  19
BRANCH   4  29
HETATM   29  O   UNK N   1      25.389  12.488  11.554  0.00  0.00    -0.395 OA
HETATM   30  H   UNK N   1      25.743  13.377  11.394  0.00  0.00     0.210 HD
ENDBRANCH   4  29
TORSDOF 18
ENDMDL
