REMARK  7 active torsions:
REMARK  status: ('A' for Active; 'I' for Inactive)
REMARK    1  A    between atoms: C_19  and  C_9 
REMARK    2  A    between atoms: C_20  and  C_10 
REMARK    3  A    between atoms: C_12  and  C_11 
REMARK    4  A    between atoms: C_19  and  C_18 
REMARK    5  A    between atoms: C_25  and  C_20 
REMARK    6  A    between atoms: C_24  and  O_29 
REMARK    7  A    between atoms: C_27  and  O_30 
ROOT
HETATM    1  C   UNK N   1       2.252   0.400   2.270  0.00  0.00     0.016 C 
HETATM    2  C   UNK N   1       4.509   0.173   0.305  0.00  0.00     0.005 C 
HETATM    3  C   UNK N   1       4.353   1.518  -0.436  0.00  0.00     0.034 C 
HETATM    4  C   UNK N   1       3.076   3.520   0.391  0.00  0.00     0.004 C 
HETATM    5  C   UNK N   1      -0.333   0.680   0.672  0.00  0.00     0.007 C 
HETATM    6  C   UNK N   1       0.525   1.936   0.464  0.00  0.00     0.010 C 
HETATM    7  C   UNK N   1       3.226  -0.696   0.250  0.00  0.00     0.010 C 
HETATM    8  C   UNK N   1       3.104   2.223   0.032  0.00  0.00    -0.075 C 
HETATM    9  C   UNK N   1       0.610  -0.545   0.619  0.00  0.00     0.002 C 
HETATM   10  C   UNK N   1       1.859   1.385  -0.006  0.00  0.00     0.023 C 
HETATM   11  C   UNK N   1       2.016   0.092   0.780  0.00  0.00    -0.032 C 
ENDROOT
BRANCH   4  12
HETATM   12  C   UNK N   1       4.251   4.419   0.257  0.00  0.00     0.008 C 
HETATM   13  C   UNK N   1       4.146   5.750   0.467  0.00  0.00    -0.048 C 
HETATM   14  C   UNK N   1       2.856   6.377   0.930  0.00  0.00     0.071 C 
HETATM   15  C   UNK N   1       5.248   6.707   0.178  0.00  0.00    -0.033 C 
HETATM   16  C   UNK N   1       2.410   7.489  -0.029  0.00  0.00     0.125 C 
HETATM   17  C   UNK N   1       3.575   8.369  -0.546  0.00  0.00     0.068 C 
HETATM   18  C   UNK N   1       4.885   8.177   0.234  0.00  0.00     0.153 C 
HETATM   19  C   UNK N   1       6.430   6.303  -0.306  0.00  0.00     0.022 C 
BRANCH  16  20
HETATM   20  O   UNK N   1       1.478   8.293   0.626  0.00  0.00    -0.395 OA
HETATM   21  H   UNK N   1       1.639   9.134   1.082  0.00  0.00     0.210 HD
ENDBRANCH  16  20
BRANCH  18  22
HETATM   22  O   UNK N   1       5.882   8.985  -0.318  0.00  0.00    -0.391 OA
HETATM   23  H   UNK N   1       6.714   8.666  -0.701  0.00  0.00     0.210 HD
ENDBRANCH  18  22
ENDBRANCH   4  12
BRANCH   9  24
HETATM   24  C   UNK N   1       0.351  -1.426  -0.657  0.00  0.00     0.008 C 
HETATM   25  C   UNK N   1       0.782  -0.796  -1.974  0.00  0.00     0.014 C 
BRANCH  24  26
HETATM   26  C   UNK N   1      -1.115  -1.774  -0.805  0.00  0.00    -0.026 C 
HETATM   27  C   UNK N   1      -1.787  -2.486   0.111  0.00  0.00    -0.026 C 
BRANCH  27  28
HETATM   28  C   UNK N   1      -3.261  -2.799  -0.066  0.00  0.00     0.007 C 
HETATM   29  C   UNK N   1      -3.694  -3.803   0.991  0.00  0.00     0.014 C 
BRANCH  28  30
HETATM   30  C   UNK N   1      -4.178  -1.558   0.032  0.00  0.00    -0.015 C 
HETATM   31  C   UNK N   1      -4.036  -0.823   1.357  0.00  0.00     0.010 C 
HETATM   32  C   UNK N   1      -4.016  -0.575  -1.115  0.00  0.00     0.010 C 
ENDBRANCH  28  30
ENDBRANCH  27  28
ENDBRANCH  24  26
ENDBRANCH   9  24
TORSDOF 7
