REMARK  1 active torsions:
REMARK  status: ('A' for Active; 'I' for Inactive)
REMARK    1  A    between atoms: C_20  and  C_21 
ROOT
HETATM    1  C   UNK N   1       3.316  -4.953  -0.187  0.00  0.00     0.309 C 
HETATM    2  N   UNK N   1       3.377  -3.944   0.860  0.00  0.00     0.084 N 
HETATM    3  C   UNK N   1       4.659  -3.220   0.807  0.00  0.00     0.276 C 
HETATM    4  C   UNK N   1       4.760  -2.262  -0.387  0.00  0.00     0.065 C 
HETATM    5  C   UNK N   1       3.567  -1.354  -0.363  0.00  0.00    -0.062 C 
HETATM    6  C   UNK N   1       3.621   0.031  -0.237  0.00  0.00     0.021 C 
HETATM    7  C   UNK N   1       4.985   0.750  -0.094  0.00  0.00    -0.016 A 
HETATM    8  C   UNK N   1       6.130  -0.009   0.230  0.00  0.00     0.013 A 
HETATM    9  C   UNK N   1       7.393   0.559   0.385  0.00  0.00     0.001 A 
HETATM   10  C   UNK N   1       7.560   1.925   0.219  0.00  0.00     0.001 A 
HETATM   11  C   UNK N   1       6.465   2.715  -0.105  0.00  0.00     0.008 A 
HETATM   12  C   UNK N   1       5.189   2.157  -0.264  0.00  0.00    -0.045 A 
HETATM   13  C   UNK N   1       4.115   3.105  -0.616  0.00  0.00     0.060 C 
HETATM   14  C   UNK N   1       3.114   3.068   0.490  0.00  0.00     0.135 C 
HETATM   15  N   UNK N   1       2.113   2.095   0.124  0.00  0.00    -0.329 N 
HETATM   16  C   UNK N   1       2.292   0.795  -0.203  0.00  0.00     0.119 A 
HETATM   17  N   UNK N   1       1.100   0.212  -0.480  0.00  0.00    -0.349 N 
ATOM     18  HN  UNK N   1       0.947  -0.759  -0.751  1.00  0.00     0.167 HD
HETATM   19  C   UNK N   1       0.158   1.162  -0.327  0.00  0.00     0.122 A 
HETATM   20  C   UNK N   1       0.787   2.321   0.045  0.00  0.00     0.089 A 
HETATM   21  C   UNK N   1       2.285  -2.124  -0.444  0.00  0.00     0.065 C 
HETATM   22  C   UNK N   1       2.213  -3.050   0.770  0.00  0.00     0.276 C 
ENDROOT
BRANCH  20  23
HETATM   23  C   UNK N   1       0.092   3.592   0.314  0.00  0.00     0.289 C 
HETATM   24  O   UNK N   1       0.705   4.596   0.636  0.00  0.00    -0.300 OA
ENDBRANCH  20  23
TORSDOF 1
