MODEL 1
REMARK VINA RESULT:      -3.5      0.000      0.000
REMARK  9 active torsions:
REMARK  status: ('A' for Active; 'I' for Inactive)
REMARK    1  A    between atoms: C_3  and  C_1 
REMARK    2  A    between atoms: N_7  and  C_1 
REMARK    3  A    between atoms: C_4  and  C_2 
REMARK    4  A    between atoms: N_8  and  C_2 
REMARK    5  A    between atoms: N_9  and  C_3 
REMARK    6  A    between atoms: N_10  and  C_4 
REMARK    7  A    between atoms: C_6  and  C_5 
REMARK    8  A    between atoms: N_9  and  C_5 
REMARK    9  A    between atoms: N_10  and  C_6 
ROOT
HETATM    1  C   UNK N   1      28.519  18.209   8.423  0.00  0.00     0.133 C 
ENDROOT
BRANCH   1   2
HETATM    2  C   UNK N   1      29.328  18.518   9.659  0.00  0.00     0.133 C 
BRANCH   2   3
HETATM    3  N   UNK N   1      30.709  18.144   9.434  0.00  0.00    -0.418 N 
HETATM    4  H   UNK N   1      31.509  18.365  10.027  0.00  0.00     0.153 HD
BRANCH   3   5
HETATM    5  C   UNK N   1      30.723  17.394   8.196  0.00  0.00     0.133 C 
BRANCH   5   6
HETATM    6  C   UNK N   1      32.140  16.999   7.856  0.00  0.00     0.130 C 
BRANCH   6   7
HETATM    7  N   UNK N   1      32.973  17.162   9.032  0.00  0.00    -0.429 N 
HETATM    8  H   UNK N   1      32.717  16.702   9.906  0.00  0.00     0.149 HD
HETATM    9  H   UNK N   1      33.815  17.738   8.985  0.00  0.00     0.149 HD
ENDBRANCH   6   7
ENDBRANCH   5   6
ENDBRANCH   3   5
ENDBRANCH   2   3
ENDBRANCH   1   2
BRANCH   1  10
HETATM   10  N   UNK N   1      27.459  19.184   8.288  0.00  0.00    -0.418 N 
HETATM   11  H   UNK N   1      26.699  19.361   8.947  0.00  0.00     0.153 HD
BRANCH  10  12
HETATM   12  C   UNK N   1      27.696  19.859   7.029  0.00  0.00     0.133 C 
BRANCH  12  13
HETATM   13  C   UNK N   1      26.688  20.969   6.848  0.00  0.00     0.130 C 
BRANCH  13  14
HETATM   14  N   UNK N   1      25.898  21.093   8.057  0.00  0.00    -0.429 N 
HETATM   15  H   UNK N   1      25.207  20.380   8.291  0.00  0.00     0.149 HD
HETATM   16  H   UNK N   1      26.033  21.893   8.675  0.00  0.00     0.149 HD
ENDBRANCH  13  14
ENDBRANCH  12  13
ENDBRANCH  10  12
ENDBRANCH   1  10
TORSDOF 9
ENDMDL
MODEL 2
REMARK VINA RESULT:      -3.5      0.925      5.514
REMARK  9 active torsions:
REMARK  status: ('A' for Active; 'I' for Inactive)
REMARK    1  A    between atoms: C_3  and  C_1 
REMARK    2  A    between atoms: N_7  and  C_1 
REMARK    3  A    between atoms: C_4  and  C_2 
REMARK    4  A    between atoms: N_8  and  C_2 
REMARK    5  A    between atoms: N_9  and  C_3 
REMARK    6  A    between atoms: N_10  and  C_4 
REMARK    7  A    between atoms: C_6  and  C_5 
REMARK    8  A    between atoms: N_9  and  C_5 
REMARK    9  A    between atoms: N_10  and  C_6 
ROOT
HETATM    1  C   UNK N   1      29.830  17.779   8.410  0.00  0.00     0.133 C 
ENDROOT
BRANCH   1   2
HETATM    2  C   UNK N   1      28.689  17.947   9.383  0.00  0.00     0.133 C 
BRANCH   2   3
HETATM    3  N   UNK N   1      27.697  18.833   8.809  0.00  0.00    -0.418 N 
HETATM    4  H   UNK N   1      26.848  19.176   9.258  0.00  0.00     0.153 HD
BRANCH   3   5
HETATM    5  C   UNK N   1      28.156  19.132   7.469  0.00  0.00     0.133 C 
BRANCH   5   6
HETATM    6  C   UNK N   1      27.252  20.164   6.840  0.00  0.00     0.130 C 
BRANCH   6   7
HETATM    7  N   UNK N   1      26.320  20.651   7.839  0.00  0.00    -0.429 N 
HETATM    8  H   UNK N   1      26.152  20.108   8.687  0.00  0.00     0.149 HD
HETATM    9  H   UNK N   1      25.834  21.536   7.695  0.00  0.00     0.149 HD
ENDBRANCH   6   7
ENDBRANCH   5   6
ENDBRANCH   3   5
ENDBRANCH   2   3
ENDBRANCH   1   2
BRANCH   1  10
HETATM   10  N   UNK N   1      31.085  17.878   9.124  0.00  0.00    -0.418 N 
HETATM   11  H   UNK N   1      31.279  18.444   9.951  0.00  0.00     0.153 HD
BRANCH  10  12
HETATM   12  C   UNK N   1      32.010  17.011   8.424  0.00  0.00     0.133 C 
BRANCH  12  13
HETATM   13  C   UNK N   1      33.404  17.592   8.492  0.00  0.00     0.130 C 
BRANCH  13  14
HETATM   14  N   UNK N   1      34.056  17.118   9.696  0.00  0.00    -0.429 N 
HETATM   15  H   UNK N   1      33.749  17.456  10.609  0.00  0.00     0.149 HD
HETATM   16  H   UNK N   1      34.822  16.448   9.632  0.00  0.00     0.149 HD
ENDBRANCH  13  14
ENDBRANCH  12  13
ENDBRANCH  10  12
ENDBRANCH   1  10
TORSDOF 9
ENDMDL
MODEL 3
REMARK VINA RESULT:      -3.5      1.959      3.730
REMARK  9 active torsions:
REMARK  status: ('A' for Active; 'I' for Inactive)
REMARK    1  A    between atoms: C_3  and  C_1 
REMARK    2  A    between atoms: N_7  and  C_1 
REMARK    3  A    between atoms: C_4  and  C_2 
REMARK    4  A    between atoms: N_8  and  C_2 
REMARK    5  A    between atoms: N_9  and  C_3 
REMARK    6  A    between atoms: N_10  and  C_4 
REMARK    7  A    between atoms: C_6  and  C_5 
REMARK    8  A    between atoms: N_9  and  C_5 
REMARK    9  A    between atoms: N_10  and  C_6 
ROOT
HETATM    1  C   UNK N   1      32.095  17.390   8.110  0.00  0.00     0.133 C 
ENDROOT
BRANCH   1   2
HETATM    2  C   UNK N   1      33.498  17.859   8.403  0.00  0.00     0.133 C 
BRANCH   2   3
HETATM    3  N   UNK N   1      33.987  17.195   9.594  0.00  0.00    -0.418 N 
HETATM    4  H   UNK N   1      33.833  17.478  10.561  0.00  0.00     0.153 HD
BRANCH   3   5
HETATM    5  C   UNK N   1      34.738  16.048   9.131  0.00  0.00     0.133 C 
BRANCH   5   6
HETATM    6  C   UNK N   1      34.430  14.853  10.002  0.00  0.00     0.130 C 
BRANCH   6   7
HETATM    7  N   UNK N   1      33.192  15.094  10.717  0.00  0.00    -0.429 N 
HETATM    8  H   UNK N   1      32.421  14.431  10.640  0.00  0.00     0.149 HD
HETATM    9  H   UNK N   1      33.092  15.928  11.297  0.00  0.00     0.149 HD
ENDBRANCH   6   7
ENDBRANCH   5   6
ENDBRANCH   3   5
ENDBRANCH   2   3
ENDBRANCH   1   2
BRANCH   1  10
HETATM   10  N   UNK N   1      31.190  17.938   9.098  0.00  0.00    -0.418 N 
HETATM   11  H   UNK N   1      31.431  18.544   9.883  0.00  0.00     0.153 HD
BRANCH  10  12
HETATM   12  C   UNK N   1      29.873  17.452   8.745  0.00  0.00     0.133 C 
BRANCH  12  13
HETATM   13  C   UNK N   1      28.973  18.619   8.409  0.00  0.00     0.130 C 
BRANCH  13  14
HETATM   14  N   UNK N   1      27.702  18.446   9.086  0.00  0.00    -0.429 N 
HETATM   15  H   UNK N   1      27.401  19.125   9.785  0.00  0.00     0.149 HD
HETATM   16  H   UNK N   1      27.110  17.647   8.863  0.00  0.00     0.149 HD
ENDBRANCH  13  14
ENDBRANCH  12  13
ENDBRANCH  10  12
ENDBRANCH   1  10
TORSDOF 9
ENDMDL
MODEL 4
REMARK VINA RESULT:      -3.4      1.884      6.216
REMARK  9 active torsions:
REMARK  status: ('A' for Active; 'I' for Inactive)
REMARK    1  A    between atoms: C_3  and  C_1 
REMARK    2  A    between atoms: N_7  and  C_1 
REMARK    3  A    between atoms: C_4  and  C_2 
REMARK    4  A    between atoms: N_8  and  C_2 
REMARK    5  A    between atoms: N_9  and  C_3 
REMARK    6  A    between atoms: N_10  and  C_4 
REMARK    7  A    between atoms: C_6  and  C_5 
REMARK    8  A    between atoms: N_9  and  C_5 
REMARK    9  A    between atoms: N_10  and  C_6 
ROOT
HETATM    1  C   UNK N   1      32.683  16.879   7.941  0.00  0.00     0.133 C 
ENDROOT
BRANCH   1   2
HETATM    2  C   UNK N   1      31.276  17.424   7.947  0.00  0.00     0.133 C 
BRANCH   2   3
HETATM    3  N   UNK N   1      30.801  17.511   9.312  0.00  0.00    -0.418 N 
HETATM    4  H   UNK N   1      30.980  16.849  10.067  0.00  0.00     0.153 HD
BRANCH   3   5
HETATM    5  C   UNK N   1      30.020  18.728   9.386  0.00  0.00     0.133 C 
BRANCH   5   6
HETATM    6  C   UNK N   1      28.884  18.664   8.393  0.00  0.00     0.130 C 
BRANCH   6   7
HETATM    7  N   UNK N   1      27.646  18.413   9.105  0.00  0.00    -0.429 N 
HETATM    8  H   UNK N   1      27.666  17.963  10.020  0.00  0.00     0.149 HD
HETATM    9  H   UNK N   1      26.754  18.686   8.690  0.00  0.00     0.149 HD
ENDBRANCH   6   7
ENDBRANCH   5   6
ENDBRANCH   3   5
ENDBRANCH   2   3
ENDBRANCH   1   2
BRANCH   1  10
HETATM   10  N   UNK N   1      33.314  17.168   9.211  0.00  0.00    -0.418 N 
HETATM   11  H   UNK N   1      32.969  17.793   9.940  0.00  0.00     0.153 HD
BRANCH  10  12
HETATM   12  C   UNK N   1      34.534  16.390   9.235  0.00  0.00     0.133 C 
BRANCH  12  13
HETATM   13  C   UNK N   1      34.680  15.713  10.578  0.00  0.00     0.130 C 
BRANCH  13  14
HETATM   14  N   UNK N   1      33.480  14.948  10.855  0.00  0.00    -0.429 N 
HETATM   15  H   UNK N   1      33.143  14.857  11.814  0.00  0.00     0.149 HD
HETATM   16  H   UNK N   1      32.973  14.499  10.093  0.00  0.00     0.149 HD
ENDBRANCH  13  14
ENDBRANCH  12  13
ENDBRANCH  10  12
ENDBRANCH   1  10
TORSDOF 9
ENDMDL
MODEL 5
REMARK VINA RESULT:      -3.4     18.176     20.434
REMARK  9 active torsions:
REMARK  status: ('A' for Active; 'I' for Inactive)
REMARK    1  A    between atoms: C_3  and  C_1 
REMARK    2  A    between atoms: N_7  and  C_1 
REMARK    3  A    between atoms: C_4  and  C_2 
REMARK    4  A    between atoms: N_8  and  C_2 
REMARK    5  A    between atoms: N_9  and  C_3 
REMARK    6  A    between atoms: N_10  and  C_4 
REMARK    7  A    between atoms: C_6  and  C_5 
REMARK    8  A    between atoms: N_9  and  C_5 
REMARK    9  A    between atoms: N_10  and  C_6 
ROOT
HETATM    1  C   UNK N   1      46.190  25.607   2.038  0.00  0.00     0.133 C 
ENDROOT
BRANCH   1   2
HETATM    2  C   UNK N   1      46.963  25.296   0.780  0.00  0.00     0.133 C 
BRANCH   2   3
HETATM    3  N   UNK N   1      48.348  25.676   0.961  0.00  0.00    -0.418 N 
HETATM    4  H   UNK N   1      48.872  25.689   1.836  0.00  0.00     0.153 HD
BRANCH   3   5
HETATM    5  C   UNK N   1      48.839  26.032  -0.353  0.00  0.00     0.133 C 
BRANCH   5   6
HETATM    6  C   UNK N   1      50.349  26.049  -0.345  0.00  0.00     0.130 C 
BRANCH   6   7
HETATM    7  N   UNK N   1      50.816  25.959   1.025  0.00  0.00    -0.429 N 
HETATM    8  H   UNK N   1      51.061  25.052   1.423  0.00  0.00     0.149 HD
HETATM    9  H   UNK N   1      50.901  26.804   1.592  0.00  0.00     0.149 HD
ENDBRANCH   6   7
ENDBRANCH   5   6
ENDBRANCH   3   5
ENDBRANCH   2   3
ENDBRANCH   1   2
BRANCH   1  10
HETATM   10  N   UNK N   1      46.052  24.401   2.826  0.00  0.00    -0.418 N 
HETATM   11  H   UNK N   1      46.666  24.084   3.577  0.00  0.00     0.153 HD
BRANCH  10  12
HETATM   12  C   UNK N   1      44.865  23.736   2.331  0.00  0.00     0.133 C 
BRANCH  12  13
HETATM   13  C   UNK N   1      44.529  22.563   3.223  0.00  0.00     0.130 C 
BRANCH  13  14
HETATM   14  N   UNK N   1      45.649  22.302   4.105  0.00  0.00    -0.429 N 
HETATM   15  H   UNK N   1      46.583  22.626   3.852  0.00  0.00     0.149 HD
HETATM   16  H   UNK N   1      45.505  21.796   4.978  0.00  0.00     0.149 HD
ENDBRANCH  13  14
ENDBRANCH  12  13
ENDBRANCH  10  12
ENDBRANCH   1  10
TORSDOF 9
ENDMDL
MODEL 6
REMARK VINA RESULT:      -3.3      3.034      7.186
REMARK  9 active torsions:
REMARK  status: ('A' for Active; 'I' for Inactive)
REMARK    1  A    between atoms: C_3  and  C_1 
REMARK    2  A    between atoms: N_7  and  C_1 
REMARK    3  A    between atoms: C_4  and  C_2 
REMARK    4  A    between atoms: N_8  and  C_2 
REMARK    5  A    between atoms: N_9  and  C_3 
REMARK    6  A    between atoms: N_10  and  C_4 
REMARK    7  A    between atoms: C_6  and  C_5 
REMARK    8  A    between atoms: N_9  and  C_5 
REMARK    9  A    between atoms: N_10  and  C_6 
ROOT
HETATM    1  C   UNK N   1      33.918  15.742   9.496  0.00  0.00     0.133 C 
ENDROOT
BRANCH   1   2
HETATM    2  C   UNK N   1      32.570  15.989   8.865  0.00  0.00     0.133 C 
BRANCH   2   3
HETATM    3  N   UNK N   1      32.278  17.407   8.897  0.00  0.00    -0.418 N 
HETATM    4  H   UNK N   1      32.876  18.149   9.260  0.00  0.00     0.153 HD
BRANCH   3   5
HETATM    5  C   UNK N   1      30.964  17.557   8.308  0.00  0.00     0.133 C 
BRANCH   5   6
HETATM    6  C   UNK N   1      30.222  18.677   8.998  0.00  0.00     0.130 C 
BRANCH   6   7
HETATM    7  N   UNK N   1      29.754  18.211  10.289  0.00  0.00    -0.429 N 
HETATM    8  H   UNK N   1      29.682  18.862  11.071  0.00  0.00     0.149 HD
HETATM    9  H   UNK N   1      29.497  17.231  10.415  0.00  0.00     0.149 HD
ENDBRANCH   6   7
ENDBRANCH   5   6
ENDBRANCH   3   5
ENDBRANCH   2   3
ENDBRANCH   1   2
BRANCH   1  10
HETATM   10  N   UNK N   1      34.407  16.973  10.079  0.00  0.00    -0.418 N 
HETATM   11  H   UNK N   1      34.005  17.906   9.972  0.00  0.00     0.153 HD
BRANCH  10  12
HETATM   12  C   UNK N   1      35.581  16.612  10.844  0.00  0.00     0.133 C 
BRANCH  12  13
HETATM   13  C   UNK N   1      35.369  15.267  11.499  0.00  0.00     0.130 C 
BRANCH  13  14
HETATM   14  N   UNK N   1      36.330  15.105  12.571  0.00  0.00    -0.429 N 
HETATM   15  H   UNK N   1      37.300  15.388  12.433  0.00  0.00     0.149 HD
HETATM   16  H   UNK N   1      36.037  14.708  13.463  0.00  0.00     0.149 HD
ENDBRANCH  13  14
ENDBRANCH  12  13
ENDBRANCH  10  12
ENDBRANCH   1  10
TORSDOF 9
ENDMDL
MODEL 7
REMARK VINA RESULT:      -3.3     11.169     12.475
REMARK  9 active torsions:
REMARK  status: ('A' for Active; 'I' for Inactive)
REMARK    1  A    between atoms: C_3  and  C_1 
REMARK    2  A    between atoms: N_7  and  C_1 
REMARK    3  A    between atoms: C_4  and  C_2 
REMARK    4  A    between atoms: N_8  and  C_2 
REMARK    5  A    between atoms: N_9  and  C_3 
REMARK    6  A    between atoms: N_10  and  C_4 
REMARK    7  A    between atoms: C_6  and  C_5 
REMARK    8  A    between atoms: N_9  and  C_5 
REMARK    9  A    between atoms: N_10  and  C_6 
ROOT
HETATM    1  C   UNK N   1      20.108  17.298   1.786  0.00  0.00     0.133 C 
ENDROOT
BRANCH   1   2
HETATM    2  C   UNK N   1      19.721  18.094   3.007  0.00  0.00     0.133 C 
BRANCH   2   3
HETATM    3  N   UNK N   1      19.307  19.422   2.603  0.00  0.00    -0.418 N 
HETATM    4  H   UNK N   1      18.478  19.668   2.063  0.00  0.00     0.153 HD
BRANCH   3   5
HETATM    5  C   UNK N   1      20.309  20.328   3.122  0.00  0.00     0.133 C 
BRANCH   5   6
HETATM    6  C   UNK N   1      21.173  20.833   1.991  0.00  0.00     0.130 C 
BRANCH   6   7
HETATM    7  N   UNK N   1      20.361  20.965   0.797  0.00  0.00    -0.429 N 
HETATM    8  H   UNK N   1      19.920  20.142   0.386  0.00  0.00     0.149 HD
HETATM    9  H   UNK N   1      20.230  21.881   0.368  0.00  0.00     0.149 HD
ENDBRANCH   6   7
ENDBRANCH   5   6
ENDBRANCH   3   5
ENDBRANCH   2   3
ENDBRANCH   1   2
BRANCH   1  10
HETATM   10  N   UNK N   1      18.992  17.259   0.866  0.00  0.00    -0.418 N 
HETATM   11  H   UNK N   1      18.170  17.864   0.871  0.00  0.00     0.153 HD
BRANCH  10  12
HETATM   12  C   UNK N   1      19.281  16.188  -0.065  0.00  0.00     0.133 C 
BRANCH  12  13
HETATM   13  C   UNK N   1      19.153  14.856   0.636  0.00  0.00     0.130 C 
BRANCH  13  14
HETATM   14  N   UNK N   1      18.035  14.128   0.070  0.00  0.00    -0.429 N 
HETATM   15  H   UNK N   1      18.187  13.482  -0.705  0.00  0.00     0.149 HD
HETATM   16  H   UNK N   1      17.096  14.261   0.445  0.00  0.00     0.149 HD
ENDBRANCH  13  14
ENDBRANCH  12  13
ENDBRANCH  10  12
ENDBRANCH   1  10
TORSDOF 9
ENDMDL
MODEL 8
REMARK VINA RESULT:      -3.2      4.498      8.530
REMARK  9 active torsions:
REMARK  status: ('A' for Active; 'I' for Inactive)
REMARK    1  A    between atoms: C_3  and  C_1 
REMARK    2  A    between atoms: N_7  and  C_1 
REMARK    3  A    between atoms: C_4  and  C_2 
REMARK    4  A    between atoms: N_8  and  C_2 
REMARK    5  A    between atoms: N_9  and  C_3 
REMARK    6  A    between atoms: N_10  and  C_4 
REMARK    7  A    between atoms: C_6  and  C_5 
REMARK    8  A    between atoms: N_9  and  C_5 
REMARK    9  A    between atoms: N_10  and  C_6 
ROOT
HETATM    1  C   UNK N   1      35.690  16.487  11.037  0.00  0.00     0.133 C 
ENDROOT
BRANCH   1   2
HETATM    2  C   UNK N   1      35.001  16.338   9.703  0.00  0.00     0.133 C 
BRANCH   2   3
HETATM    3  N   UNK N   1      33.897  17.271   9.627  0.00  0.00    -0.418 N 
HETATM    4  H   UNK N   1      33.288  17.565  10.390  0.00  0.00     0.153 HD
BRANCH   3   5
HETATM    5  C   UNK N   1      33.834  17.703   8.246  0.00  0.00     0.133 C 
BRANCH   5   6
HETATM    6  C   UNK N   1      32.421  17.563   7.734  0.00  0.00     0.130 C 
BRANCH   6   7
HETATM    7  N   UNK N   1      31.495  17.795   8.826  0.00  0.00    -0.429 N 
HETATM    8  H   UNK N   1      31.138  18.734   9.001  0.00  0.00     0.149 HD
HETATM    9  H   UNK N   1      31.202  17.018   9.420  0.00  0.00     0.149 HD
ENDBRANCH   6   7
ENDBRANCH   5   6
ENDBRANCH   3   5
ENDBRANCH   2   3
ENDBRANCH   1   2
BRANCH   1  10
HETATM   10  N   UNK N   1      36.456  15.291  11.317  0.00  0.00    -0.418 N 
HETATM   11  H   UNK N   1      37.414  15.092  11.024  0.00  0.00     0.153 HD
BRANCH  10  12
HETATM   12  C   UNK N   1      35.587  14.434  12.096  0.00  0.00     0.133 C 
BRANCH  12  13
HETATM   13  C   UNK N   1      36.385  13.752  13.183  0.00  0.00     0.130 C 
BRANCH  13  14
HETATM   14  N   UNK N   1      36.826  14.747  14.141  0.00  0.00    -0.429 N 
HETATM   15  H   UNK N   1      37.171  15.650  13.816  0.00  0.00     0.149 HD
HETATM   16  H   UNK N   1      36.792  14.544  15.140  0.00  0.00     0.149 HD
ENDBRANCH  13  14
ENDBRANCH  12  13
ENDBRANCH  10  12
ENDBRANCH   1  10
TORSDOF 9
ENDMDL
MODEL 9
REMARK VINA RESULT:      -3.2      8.575      9.100
REMARK  9 active torsions:
REMARK  status: ('A' for Active; 'I' for Inactive)
REMARK    1  A    between atoms: C_3  and  C_1 
REMARK    2  A    between atoms: N_7  and  C_1 
REMARK    3  A    between atoms: C_4  and  C_2 
REMARK    4  A    between atoms: N_8  and  C_2 
REMARK    5  A    between atoms: N_9  and  C_3 
REMARK    6  A    between atoms: N_10  and  C_4 
REMARK    7  A    between atoms: C_6  and  C_5 
REMARK    8  A    between atoms: N_9  and  C_5 
REMARK    9  A    between atoms: N_10  and  C_6 
ROOT
HETATM    1  C   UNK N   1      21.103  14.386   8.912  0.00  0.00     0.133 C 
ENDROOT
BRANCH   1   2
HETATM    2  C   UNK N   1      21.461  13.379   9.976  0.00  0.00     0.133 C 
BRANCH   2   3
HETATM    3  N   UNK N   1      22.817  12.918   9.765  0.00  0.00    -0.418 N 
HETATM    4  H   UNK N   1      23.519  13.335   9.154  0.00  0.00     0.153 HD
BRANCH   3   5
HETATM    5  C   UNK N   1      22.974  11.744  10.598  0.00  0.00     0.133 C 
BRANCH   5   6
HETATM    6  C   UNK N   1      24.120  11.952  11.559  0.00  0.00     0.130 C 
BRANCH   6   7
HETATM    7  N   UNK N   1      25.130  12.775  10.922  0.00  0.00    -0.429 N 
HETATM    8  H   UNK N   1      25.527  13.572  11.419  0.00  0.00     0.149 HD
HETATM    9  H   UNK N   1      25.443  12.557   9.975  0.00  0.00     0.149 HD
ENDBRANCH   6   7
ENDBRANCH   5   6
ENDBRANCH   3   5
ENDBRANCH   2   3
ENDBRANCH   1   2
BRANCH   1  10
HETATM   10  N   UNK N   1      19.901  15.091   9.303  0.00  0.00    -0.418 N 
HETATM   11  H   UNK N   1      19.143  14.735   9.888  0.00  0.00     0.153 HD
BRANCH  10  12
HETATM   12  C   UNK N   1      19.993  16.402   8.696  0.00  0.00     0.133 C 
BRANCH  12  13
HETATM   13  C   UNK N   1      18.631  17.057   8.691  0.00  0.00     0.130 C 
BRANCH  13  14
HETATM   14  N   UNK N   1      18.687  18.272   9.478  0.00  0.00    -0.429 N 
HETATM   15  H   UNK N   1      18.018  19.023   9.306  0.00  0.00     0.149 HD
HETATM   16  H   UNK N   1      19.396  18.379  10.204  0.00  0.00     0.149 HD
ENDBRANCH  13  14
ENDBRANCH  12  13
ENDBRANCH  10  12
ENDBRANCH   1  10
TORSDOF 9
ENDMDL
