REMARK  7 active torsions:
REMARK  status: ('A' for Active; 'I' for Inactive)
REMARK    1  A    between atoms: C_8  and  N_1 
REMARK    2  A    between atoms: N_1  and  C_9 
REMARK    3  A    between atoms: N_1  and  C_11 
REMARK    4  A    between atoms: C_3  and  O_18 
REMARK    5  A    between atoms: C_6  and  C_8 
REMARK    6  A    between atoms: C_9  and  C_10 
REMARK    7  A    between atoms: C_10  and  N_15 
ROOT
HETATM    1  N   UNK N   1      -0.115   0.297  -0.543  0.00  0.00    -0.361 N 
ENDROOT
BRANCH   1   2
HETATM    2  C   UNK N   1      -0.254  -1.118  -0.868  0.00  0.00     0.162 C 
BRANCH   2   3
HETATM    3  C   UNK N   1       0.845  -2.038  -0.389  0.00  0.00    -0.040 A 
HETATM    4  C   UNK N   1       1.975  -1.576   0.298  0.00  0.00     0.011 A 
HETATM    5  C   UNK N   1       3.018  -2.444   0.623  0.00  0.00     0.037 A 
HETATM    6  C   UNK N   1       2.941  -3.801   0.272  0.00  0.00     0.068 A 
HETATM    7  C   UNK N   1       1.797  -4.274  -0.379  0.00  0.00     0.037 A 
HETATM    8  C   UNK N   1       0.759  -3.397  -0.713  0.00  0.00     0.011 A 
BRANCH   6   9
HETATM    9  O   UNK N   1       3.956  -4.659   0.532  0.00  0.00    -0.356 OA
HETATM   10  C   UNK N   1       5.160  -4.259   1.067  0.00  0.00     0.210 C 
ENDBRANCH   6   9
ENDBRANCH   2   3
ENDBRANCH   1   2
BRANCH   1  11
HETATM   11  C   UNK N   1       1.138   0.981  -0.800  0.00  0.00     0.155 C 
BRANCH  11  12
HETATM   12  C   UNK N   1       1.752   1.463   0.524  0.00  0.00     0.291 C 
BRANCH  12  13
HETATM   13  N   UNK N   1       3.148   1.900   0.410  0.00  0.00     0.081 N 
HETATM   14  C   UNK N   1       3.225   3.108  -0.393  0.00  0.00     0.309 C 
HETATM   15  C   UNK N   1       3.973   0.874  -0.213  0.00  0.00     0.309 C 
ENDBRANCH  12  13
ENDBRANCH  11  12
ENDBRANCH   1  11
BRANCH   1  16
HETATM   16  C   UNK N   1      -1.297   1.050  -0.253  0.00  0.00     0.103 A 
HETATM   17  C   UNK N   1      -1.246   2.452  -0.148  0.00  0.00     0.048 A 
HETATM   18  C   UNK N   1      -2.419   3.170   0.086  0.00  0.00     0.005 A 
HETATM   19  C   UNK N   1      -3.631   2.494   0.214  0.00  0.00     0.017 A 
HETATM   20  C   UNK N   1      -3.651   1.103   0.108  0.00  0.00     0.089 A 
HETATM   21  N   UNK N   1      -2.498   0.418  -0.124  0.00  0.00    -0.352 N 
ATOM     22  HN  UNK N   1      -2.534  -0.598  -0.205  1.00  0.00     0.166 HD
ENDBRANCH   1  16
TORSDOF 7
