MODEL 1
REMARK VINA RESULT:      -6.9      0.000      0.000
REMARK  7 active torsions:
REMARK  status: ('A' for Active; 'I' for Inactive)
REMARK    1  A    between atoms: C_4  and  C_1 
REMARK       I    between atoms: N_5  and  C_1 
REMARK    2  A    between atoms: N_2  and  C_4 
REMARK    3  A    between atoms: C_7  and  N_2 
REMARK    4  A    between atoms: O_6  and  C_8 
REMARK    5  A    between atoms: C_12  and  O_6 
REMARK    6  A    between atoms: C_9  and  C_7 
REMARK    7  A    between atoms: C_13  and  C_12 
ROOT
HETATM    1  C   UNK N   1      31.029  17.278   6.243  0.00  0.00     0.069 A 
HETATM    2  C   UNK N   1      33.404  17.539   7.700  0.00  0.00    -0.041 A 
HETATM    3  C   UNK N   1      32.273  17.269   5.584  0.00  0.00     0.037 A 
HETATM    4  C   UNK N   1      30.985  17.456   7.627  0.00  0.00     0.037 A 
HETATM    5  C   UNK N   1      33.456  17.399   6.312  0.00  0.00     0.011 A 
HETATM    6  C   UNK N   1      32.169  17.577   8.354  0.00  0.00     0.011 A 
ENDROOT
BRANCH   2   7
HETATM    7  C   UNK N   1      34.661  17.535   8.489  0.00  0.00     0.153 C 
BRANCH   7   8
HETATM    8  N   UNK N   1      34.334  17.193   9.867  0.00  0.00    -0.406 N 
HETATM    9  H   UNK N   1      33.727  17.729  10.487  0.00  0.00     0.154 HD
BRANCH   8  10
HETATM   10  C   UNK N   1      35.018  15.957  10.207  0.00  0.00     0.165 C 
HETATM   11  C   UNK N   1      35.560  15.336   8.928  0.00  0.00     0.042 C 
BRANCH  10  12
HETATM   12  C   UNK N   1      34.086  15.023  10.943  0.00  0.00     0.237 C 
HETATM   13  O   UNK N   1      34.512  14.360  11.881  0.00  0.00    -0.271 OA
HETATM   14  N   UNK N   1      32.799  14.887  10.574  0.00  0.00    -0.368 N 
HETATM   15  H   UNK N   1      32.056  14.399  10.998  0.00  0.00     0.159 HD
HETATM   16  H   UNK N   1      32.560  15.355   9.742  0.00  0.00     0.159 HD
ENDBRANCH  10  12
ENDBRANCH   8  10
ENDBRANCH   7   8
ENDBRANCH   2   7
BRANCH   1  17
HETATM   17  O   UNK N   1      29.871  17.103   5.565  0.00  0.00    -0.347 OA
BRANCH  17  18
HETATM   18  C   UNK N   1      28.640  17.220   6.169  0.00  0.00     0.214 C 
BRANCH  18  19
HETATM   19  C   UNK N   1      28.061  18.558   5.890  0.00  0.00    -0.031 A 
HETATM   20  C   UNK N   1      27.763  18.917   4.573  0.00  0.00     0.051 A 
HETATM   21  C   UNK N   1      27.222  20.174   4.297  0.00  0.00     0.117 A 
HETATM   22  F   UNK N   1      26.937  20.522   3.020  0.00  0.00    -0.206 F 
HETATM   23  C   UNK N   1      26.974  21.072   5.340  0.00  0.00     0.042 A 
HETATM   24  C   UNK N   1      27.272  20.713   6.659  0.00  0.00     0.004 A 
HETATM   25  C   UNK N   1      27.818  19.457   6.934  0.00  0.00     0.009 A 
ENDBRANCH  18  19
ENDBRANCH  17  18
ENDBRANCH   1  17
TORSDOF 7
ENDMDL
MODEL 2
REMARK VINA RESULT:      -6.7      6.053     10.982
REMARK  7 active torsions:
REMARK  status: ('A' for Active; 'I' for Inactive)
REMARK    1  A    between atoms: C_4  and  C_1 
REMARK       I    between atoms: N_5  and  C_1 
REMARK    2  A    between atoms: N_2  and  C_4 
REMARK    3  A    between atoms: C_7  and  N_2 
REMARK    4  A    between atoms: O_6  and  C_8 
REMARK    5  A    between atoms: C_12  and  O_6 
REMARK    6  A    between atoms: C_9  and  C_7 
REMARK    7  A    between atoms: C_13  and  C_12 
ROOT
HETATM    1  C   UNK N   1      35.873  13.826  13.162  0.00  0.00     0.069 A 
HETATM    2  C   UNK N   1      34.943  14.909  10.755  0.00  0.00    -0.041 A 
HETATM    3  C   UNK N   1      36.161  15.162  12.824  0.00  0.00     0.037 A 
HETATM    4  C   UNK N   1      35.150  13.032  12.270  0.00  0.00     0.037 A 
HETATM    5  C   UNK N   1      35.696  15.701  11.624  0.00  0.00     0.011 A 
HETATM    6  C   UNK N   1      34.679  13.575  11.075  0.00  0.00     0.011 A 
ENDROOT
BRANCH   2   7
HETATM    7  C   UNK N   1      34.328  15.517   9.549  0.00  0.00     0.153 C 
BRANCH   7   8
HETATM    8  N   UNK N   1      34.112  16.934   9.811  0.00  0.00    -0.406 N 
HETATM    9  H   UNK N   1      34.503  17.464  10.589  0.00  0.00     0.154 HD
BRANCH   8  10
HETATM   10  C   UNK N   1      33.245  17.465   8.772  0.00  0.00     0.165 C 
HETATM   11  C   UNK N   1      32.302  16.360   8.317  0.00  0.00     0.042 C 
BRANCH  10  12
HETATM   12  C   UNK N   1      34.066  18.017   7.630  0.00  0.00     0.237 C 
HETATM   13  O   UNK N   1      34.958  18.824   7.863  0.00  0.00    -0.271 OA
HETATM   14  N   UNK N   1      33.825  17.656   6.357  0.00  0.00    -0.368 N 
HETATM   15  H   UNK N   1      34.318  17.852   5.527  0.00  0.00     0.159 HD
HETATM   16  H   UNK N   1      33.020  17.102   6.234  0.00  0.00     0.159 HD
ENDBRANCH  10  12
ENDBRANCH   8  10
ENDBRANCH   7   8
ENDBRANCH   2   7
BRANCH   1  17
HETATM   17  O   UNK N   1      36.270  13.297  14.342  0.00  0.00    -0.347 OA
BRANCH  17  18
HETATM   18  C   UNK N   1      35.763  12.111  14.824  0.00  0.00     0.214 C 
BRANCH  18  19
HETATM   19  C   UNK N   1      35.590  12.192  16.296  0.00  0.00    -0.031 A 
HETATM   20  C   UNK N   1      35.324  13.429  16.889  0.00  0.00     0.051 A 
HETATM   21  C   UNK N   1      35.163  13.520  18.274  0.00  0.00     0.117 A 
HETATM   22  F   UNK N   1      34.910  14.719  18.848  0.00  0.00    -0.206 F 
HETATM   23  C   UNK N   1      35.264  12.371  19.064  0.00  0.00     0.042 A 
HETATM   24  C   UNK N   1      35.529  11.132  18.470  0.00  0.00     0.004 A 
HETATM   25  C   UNK N   1      35.695  11.043  17.086  0.00  0.00     0.009 A 
ENDBRANCH  18  19
ENDBRANCH  17  18
ENDBRANCH   1  17
TORSDOF 7
ENDMDL
MODEL 3
REMARK VINA RESULT:      -6.7      6.178     11.110
REMARK  7 active torsions:
REMARK  status: ('A' for Active; 'I' for Inactive)
REMARK    1  A    between atoms: C_4  and  C_1 
REMARK       I    between atoms: N_5  and  C_1 
REMARK    2  A    between atoms: N_2  and  C_4 
REMARK    3  A    between atoms: C_7  and  N_2 
REMARK    4  A    between atoms: O_6  and  C_8 
REMARK    5  A    between atoms: C_12  and  O_6 
REMARK    6  A    between atoms: C_9  and  C_7 
REMARK    7  A    between atoms: C_13  and  C_12 
ROOT
HETATM    1  C   UNK N   1      36.600  13.152  13.247  0.00  0.00     0.069 A 
HETATM    2  C   UNK N   1      36.239  14.595  10.877  0.00  0.00    -0.041 A 
HETATM    3  C   UNK N   1      35.954  14.402  13.267  0.00  0.00     0.037 A 
HETATM    4  C   UNK N   1      37.094  12.651  12.041  0.00  0.00     0.037 A 
HETATM    5  C   UNK N   1      35.775  15.121  12.084  0.00  0.00     0.011 A 
HETATM    6  C   UNK N   1      36.906  13.366  10.859  0.00  0.00     0.011 A 
ENDROOT
BRANCH   2   7
HETATM    7  C   UNK N   1      35.926  15.287   9.602  0.00  0.00     0.153 C 
BRANCH   7   8
HETATM    8  N   UNK N   1      35.100  16.449   9.903  0.00  0.00    -0.406 N 
HETATM    9  H   UNK N   1      35.161  17.022  10.744  0.00  0.00     0.154 HD
BRANCH   8  10
HETATM   10  C   UNK N   1      34.175  16.652   8.801  0.00  0.00     0.165 C 
HETATM   11  C   UNK N   1      34.187  15.409   7.924  0.00  0.00     0.042 C 
BRANCH  10  12
HETATM   12  C   UNK N   1      34.541  17.897   8.028  0.00  0.00     0.237 C 
HETATM   13  O   UNK N   1      34.431  17.905   6.808  0.00  0.00    -0.271 OA
HETATM   14  N   UNK N   1      35.006  18.995   8.651  0.00  0.00    -0.368 N 
HETATM   15  H   UNK N   1      35.200  19.898   8.308  0.00  0.00     0.159 HD
HETATM   16  H   UNK N   1      35.184  18.876   9.612  0.00  0.00     0.159 HD
ENDBRANCH  10  12
ENDBRANCH   8  10
ENDBRANCH   7   8
ENDBRANCH   2   7
BRANCH   1  17
HETATM   17  O   UNK N   1      36.741  12.415  14.373  0.00  0.00    -0.347 OA
BRANCH  17  18
HETATM   18  C   UNK N   1      35.698  11.702  14.921  0.00  0.00     0.214 C 
BRANCH  18  19
HETATM   19  C   UNK N   1      35.553  12.036  16.359  0.00  0.00    -0.031 A 
HETATM   20  C   UNK N   1      35.321  13.361  16.737  0.00  0.00     0.051 A 
HETATM   21  C   UNK N   1      35.187  13.690  18.087  0.00  0.00     0.117 A 
HETATM   22  F   UNK N   1      34.967  14.975  18.452  0.00  0.00    -0.206 F 
HETATM   23  C   UNK N   1      35.279  12.691  19.061  0.00  0.00     0.042 A 
HETATM   24  C   UNK N   1      35.510  11.364  18.683  0.00  0.00     0.004 A 
HETATM   25  C   UNK N   1      35.650  11.037  17.332  0.00  0.00     0.009 A 
ENDBRANCH  18  19
ENDBRANCH  17  18
ENDBRANCH   1  17
TORSDOF 7
ENDMDL
MODEL 4
REMARK VINA RESULT:      -6.7      1.377      1.842
REMARK  7 active torsions:
REMARK  status: ('A' for Active; 'I' for Inactive)
REMARK    1  A    between atoms: C_4  and  C_1 
REMARK       I    between atoms: N_5  and  C_1 
REMARK    2  A    between atoms: N_2  and  C_4 
REMARK    3  A    between atoms: C_7  and  N_2 
REMARK    4  A    between atoms: O_6  and  C_8 
REMARK    5  A    between atoms: C_12  and  O_6 
REMARK    6  A    between atoms: C_9  and  C_7 
REMARK    7  A    between atoms: C_13  and  C_12 
ROOT
HETATM    1  C   UNK N   1      30.682  17.100   6.652  0.00  0.00     0.069 A 
HETATM    2  C   UNK N   1      33.152  17.671   7.836  0.00  0.00    -0.041 A 
HETATM    3  C   UNK N   1      31.863  17.071   5.886  0.00  0.00     0.037 A 
HETATM    4  C   UNK N   1      30.746  17.453   8.001  0.00  0.00     0.037 A 
HETATM    5  C   UNK N   1      33.093  17.356   6.478  0.00  0.00     0.011 A 
HETATM    6  C   UNK N   1      31.979  17.728   8.593  0.00  0.00     0.011 A 
ENDROOT
BRANCH   2   7
HETATM    7  C   UNK N   1      34.470  17.835   8.499  0.00  0.00     0.153 C 
BRANCH   7   8
HETATM    8  N   UNK N   1      34.421  17.159   9.788  0.00  0.00    -0.406 N 
HETATM    9  H   UNK N   1      34.082  17.561  10.661  0.00  0.00     0.154 HD
BRANCH   8  10
HETATM   10  C   UNK N   1      34.936  15.810   9.618  0.00  0.00     0.165 C 
HETATM   11  C   UNK N   1      33.814  14.824   9.906  0.00  0.00     0.042 C 
BRANCH  10  12
HETATM   12  C   UNK N   1      36.133  15.586  10.511  0.00  0.00     0.237 C 
HETATM   13  O   UNK N   1      37.188  15.201  10.022  0.00  0.00    -0.271 OA
HETATM   14  N   UNK N   1      36.060  15.780  11.840  0.00  0.00    -0.368 N 
HETATM   15  H   UNK N   1      36.760  15.765  12.534  0.00  0.00     0.159 HD
HETATM   16  H   UNK N   1      35.154  15.969  12.177  0.00  0.00     0.159 HD
ENDBRANCH  10  12
ENDBRANCH   8  10
ENDBRANCH   7   8
ENDBRANCH   2   7
BRANCH   1  17
HETATM   17  O   UNK N   1      29.484  16.778   6.112  0.00  0.00    -0.347 OA
BRANCH  17  18
HETATM   18  C   UNK N   1      28.295  17.232   6.638  0.00  0.00     0.214 C 
BRANCH  18  19
HETATM   19  C   UNK N   1      27.821  18.414   5.877  0.00  0.00    -0.031 A 
HETATM   20  C   UNK N   1      27.768  19.660   6.507  0.00  0.00     0.051 A 
HETATM   21  C   UNK N   1      27.320  20.781   5.803  0.00  0.00     0.117 A 
HETATM   22  F   UNK N   1      27.265  21.987   6.416  0.00  0.00    -0.206 F 
HETATM   23  C   UNK N   1      26.928  20.655   4.467  0.00  0.00     0.042 A 
HETATM   24  C   UNK N   1      26.982  19.407   3.835  0.00  0.00     0.004 A 
HETATM   25  C   UNK N   1      27.426  18.286   4.541  0.00  0.00     0.009 A 
ENDBRANCH  18  19
ENDBRANCH  17  18
ENDBRANCH   1  17
TORSDOF 7
ENDMDL
MODEL 5
REMARK VINA RESULT:      -6.6      6.390     10.660
REMARK  7 active torsions:
REMARK  status: ('A' for Active; 'I' for Inactive)
REMARK    1  A    between atoms: C_4  and  C_1 
REMARK       I    between atoms: N_5  and  C_1 
REMARK    2  A    between atoms: N_2  and  C_4 
REMARK    3  A    between atoms: C_7  and  N_2 
REMARK    4  A    between atoms: O_6  and  C_8 
REMARK    5  A    between atoms: C_12  and  O_6 
REMARK    6  A    between atoms: C_9  and  C_7 
REMARK    7  A    between atoms: C_13  and  C_12 
ROOT
HETATM    1  C   UNK N   1      26.674  18.854   4.585  0.00  0.00     0.069 A 
HETATM    2  C   UNK N   1      24.513  20.187   3.409  0.00  0.00    -0.041 A 
HETATM    3  C   UNK N   1      25.353  18.497   4.915  0.00  0.00     0.037 A 
HETATM    4  C   UNK N   1      26.901  19.905   3.694  0.00  0.00     0.037 A 
HETATM    5  C   UNK N   1      24.277  19.163   4.327  0.00  0.00     0.011 A 
HETATM    6  C   UNK N   1      25.824  20.562   3.101  0.00  0.00     0.011 A 
ENDROOT
BRANCH   2   7
HETATM    7  C   UNK N   1      23.376  20.799   2.677  0.00  0.00     0.153 C 
BRANCH   7   8
HETATM    8  N   UNK N   1      22.325  19.798   2.546  0.00  0.00    -0.406 N 
HETATM    9  H   UNK N   1      22.464  18.789   2.505  0.00  0.00     0.154 HD
BRANCH   8  10
HETATM   10  C   UNK N   1      21.045  20.484   2.485  0.00  0.00     0.165 C 
HETATM   11  C   UNK N   1      19.969  19.547   3.013  0.00  0.00     0.042 C 
BRANCH  10  12
HETATM   12  C   UNK N   1      20.758  20.942   1.074  0.00  0.00     0.237 C 
HETATM   13  O   UNK N   1      20.971  20.181   0.138  0.00  0.00    -0.271 OA
HETATM   14  N   UNK N   1      20.294  22.178   0.822  0.00  0.00    -0.368 N 
HETATM   15  H   UNK N   1      19.978  22.590  -0.016  0.00  0.00     0.159 HD
HETATM   16  H   UNK N   1      20.263  22.772   1.606  0.00  0.00     0.159 HD
ENDBRANCH  10  12
ENDBRANCH   8  10
ENDBRANCH   7   8
ENDBRANCH   2   7
BRANCH   1  17
HETATM   17  O   UNK N   1      27.733  18.190   5.104  0.00  0.00    -0.347 OA
BRANCH  17  18
HETATM   18  C   UNK N   1      27.638  17.437   6.252  0.00  0.00     0.214 C 
BRANCH  18  19
HETATM   19  C   UNK N   1      28.854  17.619   7.082  0.00  0.00    -0.031 A 
HETATM   20  C   UNK N   1      28.755  18.274   8.313  0.00  0.00     0.051 A 
HETATM   21  C   UNK N   1      29.893  18.456   9.102  0.00  0.00     0.117 A 
HETATM   22  F   UNK N   1      29.795  19.095  10.292  0.00  0.00    -0.206 F 
HETATM   23  C   UNK N   1      31.131  17.978   8.662  0.00  0.00     0.042 A 
HETATM   24  C   UNK N   1      31.231  17.321   7.430  0.00  0.00     0.004 A 
HETATM   25  C   UNK N   1      30.093  17.144   6.639  0.00  0.00     0.009 A 
ENDBRANCH  18  19
ENDBRANCH  17  18
ENDBRANCH   1  17
TORSDOF 7
ENDMDL
MODEL 6
REMARK VINA RESULT:      -6.6      5.961     10.825
REMARK  7 active torsions:
REMARK  status: ('A' for Active; 'I' for Inactive)
REMARK    1  A    between atoms: C_4  and  C_1 
REMARK       I    between atoms: N_5  and  C_1 
REMARK    2  A    between atoms: N_2  and  C_4 
REMARK    3  A    between atoms: C_7  and  N_2 
REMARK    4  A    between atoms: O_6  and  C_8 
REMARK    5  A    between atoms: C_12  and  O_6 
REMARK    6  A    between atoms: C_9  and  C_7 
REMARK    7  A    between atoms: C_13  and  C_12 
ROOT
HETATM    1  C   UNK N   1      35.796  13.326  13.170  0.00  0.00     0.069 A 
HETATM    2  C   UNK N   1      35.328  14.808  10.843  0.00  0.00    -0.041 A 
HETATM    3  C   UNK N   1      35.159  12.732  12.063  0.00  0.00     0.037 A 
HETATM    4  C   UNK N   1      36.161  14.672  13.112  0.00  0.00     0.037 A 
HETATM    5  C   UNK N   1      34.926  13.473  10.904  0.00  0.00     0.011 A 
HETATM    6  C   UNK N   1      35.936  15.408  11.949  0.00  0.00     0.011 A 
ENDROOT
BRANCH   2   7
HETATM    7  C   UNK N   1      35.212  15.556   9.566  0.00  0.00     0.153 C 
BRANCH   7   8
HETATM    8  N   UNK N   1      34.178  16.570   9.723  0.00  0.00    -0.406 N 
HETATM    9  H   UNK N   1      34.171  17.313  10.422  0.00  0.00     0.154 HD
BRANCH   8  10
HETATM   10  C   UNK N   1      33.158  16.346   8.712  0.00  0.00     0.165 C 
HETATM   11  C   UNK N   1      32.404  17.648   8.489  0.00  0.00     0.042 C 
BRANCH  10  12
HETATM   12  C   UNK N   1      32.240  15.221   9.130  0.00  0.00     0.237 C 
HETATM   13  O   UNK N   1      32.017  14.303   8.350  0.00  0.00    -0.271 OA
HETATM   14  N   UNK N   1      31.644  15.217  10.336  0.00  0.00    -0.368 N 
HETATM   15  H   UNK N   1      31.101  14.528  10.784  0.00  0.00     0.159 HD
HETATM   16  H   UNK N   1      31.771  16.041  10.858  0.00  0.00     0.159 HD
ENDBRANCH  10  12
ENDBRANCH   8  10
ENDBRANCH   7   8
ENDBRANCH   2   7
BRANCH   1  17
HETATM   17  O   UNK N   1      36.077  12.614  14.285  0.00  0.00    -0.347 OA
BRANCH  17  18
HETATM   18  C   UNK N   1      35.122  11.876  14.947  0.00  0.00     0.214 C 
BRANCH  18  19
HETATM   19  C   UNK N   1      35.167  12.171  16.401  0.00  0.00    -0.031 A 
HETATM   20  C   UNK N   1      35.089  13.497  16.835  0.00  0.00     0.051 A 
HETATM   21  C   UNK N   1      35.135  13.789  18.200  0.00  0.00     0.117 A 
HETATM   22  F   UNK N   1      35.064  15.074  18.619  0.00  0.00    -0.206 F 
HETATM   23  C   UNK N   1      35.253  12.752  19.132  0.00  0.00     0.042 A 
HETATM   24  C   UNK N   1      35.329  11.425  18.697  0.00  0.00     0.004 A 
HETATM   25  C   UNK N   1      35.289  11.134  17.331  0.00  0.00     0.009 A 
ENDBRANCH  18  19
ENDBRANCH  17  18
ENDBRANCH   1  17
TORSDOF 7
ENDMDL
MODEL 7
REMARK VINA RESULT:      -6.3      6.282     10.362
REMARK  7 active torsions:
REMARK  status: ('A' for Active; 'I' for Inactive)
REMARK    1  A    between atoms: C_4  and  C_1 
REMARK       I    between atoms: N_5  and  C_1 
REMARK    2  A    between atoms: N_2  and  C_4 
REMARK    3  A    between atoms: C_7  and  N_2 
REMARK    4  A    between atoms: O_6  and  C_8 
REMARK    5  A    between atoms: C_12  and  O_6 
REMARK    6  A    between atoms: C_9  and  C_7 
REMARK    7  A    between atoms: C_13  and  C_12 
ROOT
HETATM    1  C   UNK N   1      26.845  19.360   4.431  0.00  0.00     0.069 A 
HETATM    2  C   UNK N   1      24.364  20.027   3.322  0.00  0.00    -0.041 A 
HETATM    3  C   UNK N   1      26.764  20.285   3.373  0.00  0.00     0.037 A 
HETATM    4  C   UNK N   1      25.681  18.748   4.901  0.00  0.00     0.037 A 
HETATM    5  C   UNK N   1      25.526  20.616   2.821  0.00  0.00     0.011 A 
HETATM    6  C   UNK N   1      24.444  19.088   4.354  0.00  0.00     0.011 A 
ENDROOT
BRANCH   2   7
HETATM    7  C   UNK N   1      23.037  20.482   2.836  0.00  0.00     0.153 C 
BRANCH   7   8
HETATM    8  N   UNK N   1      22.039  19.504   3.249  0.00  0.00    -0.406 N 
HETATM    9  H   UNK N   1      21.989  19.051   4.160  0.00  0.00     0.154 HD
BRANCH   8  10
HETATM   10  C   UNK N   1      21.125  19.287   2.140  0.00  0.00     0.165 C 
HETATM   11  C   UNK N   1      20.646  20.639   1.635  0.00  0.00     0.042 C 
BRANCH  10  12
HETATM   12  C   UNK N   1      19.978  18.400   2.568  0.00  0.00     0.237 C 
HETATM   13  O   UNK N   1      20.214  17.295   3.040  0.00  0.00    -0.271 OA
HETATM   14  N   UNK N   1      18.700  18.792   2.421  0.00  0.00    -0.368 N 
HETATM   15  H   UNK N   1      17.860  18.378   2.727  0.00  0.00     0.159 HD
HETATM   16  H   UNK N   1      18.584  19.635   1.925  0.00  0.00     0.159 HD
ENDBRANCH  10  12
ENDBRANCH   8  10
ENDBRANCH   7   8
ENDBRANCH   2   7
BRANCH   1  17
HETATM   17  O   UNK N   1      28.028  19.061   5.015  0.00  0.00    -0.347 OA
BRANCH  17  18
HETATM   18  C   UNK N   1      28.348  17.783   5.417  0.00  0.00     0.214 C 
BRANCH  18  19
HETATM   19  C   UNK N   1      28.820  17.794   6.823  0.00  0.00    -0.031 A 
HETATM   20  C   UNK N   1      30.020  17.157   7.150  0.00  0.00     0.051 A 
HETATM   21  C   UNK N   1      30.475  17.157   8.471  0.00  0.00     0.117 A 
HETATM   22  F   UNK N   1      31.635  16.535   8.786  0.00  0.00    -0.206 F 
HETATM   23  C   UNK N   1      29.730  17.800   9.464  0.00  0.00     0.042 A 
HETATM   24  C   UNK N   1      28.529  18.439   9.137  0.00  0.00     0.004 A 
HETATM   25  C   UNK N   1      28.073  18.434   7.817  0.00  0.00     0.009 A 
ENDBRANCH  18  19
ENDBRANCH  17  18
ENDBRANCH   1  17
TORSDOF 7
ENDMDL
MODEL 8
REMARK VINA RESULT:      -6.3     10.200     14.942
REMARK  7 active torsions:
REMARK  status: ('A' for Active; 'I' for Inactive)
REMARK    1  A    between atoms: C_4  and  C_1 
REMARK       I    between atoms: N_5  and  C_1 
REMARK    2  A    between atoms: N_2  and  C_4 
REMARK    3  A    between atoms: C_7  and  N_2 
REMARK    4  A    between atoms: O_6  and  C_8 
REMARK    5  A    between atoms: C_12  and  O_6 
REMARK    6  A    between atoms: C_9  and  C_7 
REMARK    7  A    between atoms: C_13  and  C_12 
ROOT
HETATM    1  C   UNK N   1      34.899  10.957  19.891  0.00  0.00     0.069 A 
HETATM    2  C   UNK N   1      35.239  12.322  17.471  0.00  0.00    -0.041 A 
HETATM    3  C   UNK N   1      35.042  12.358  19.877  0.00  0.00     0.037 A 
HETATM    4  C   UNK N   1      34.965  10.248  18.690  0.00  0.00     0.037 A 
HETATM    5  C   UNK N   1      35.211  13.037  18.670  0.00  0.00     0.011 A 
HETATM    6  C   UNK N   1      35.126  10.929  17.484  0.00  0.00     0.011 A 
ENDROOT
BRANCH   2   7
HETATM    7  C   UNK N   1      35.276  13.050  16.179  0.00  0.00     0.153 C 
BRANCH   7   8
HETATM    8  N   UNK N   1      34.932  12.114  15.116  0.00  0.00    -0.406 N 
HETATM    9  H   UNK N   1      34.142  11.470  15.121  0.00  0.00     0.154 HD
BRANCH   8  10
HETATM   10  C   UNK N   1      35.907  12.257  14.047  0.00  0.00     0.165 C 
HETATM   11  C   UNK N   1      37.301  12.130  14.643  0.00  0.00     0.042 C 
BRANCH  10  12
HETATM   12  C   UNK N   1      35.712  13.571  13.328  0.00  0.00     0.237 C 
HETATM   13  O   UNK N   1      34.638  13.813  12.792  0.00  0.00    -0.271 OA
HETATM   14  N   UNK N   1      36.705  14.476  13.245  0.00  0.00    -0.368 N 
HETATM   15  H   UNK N   1      36.709  15.398  12.897  0.00  0.00     0.159 HD
HETATM   16  H   UNK N   1      37.572  14.165  13.590  0.00  0.00     0.159 HD
ENDBRANCH  10  12
ENDBRANCH   8  10
ENDBRANCH   7   8
ENDBRANCH   2   7
BRANCH   1  17
HETATM   17  O   UNK N   1      34.683  10.283  21.043  0.00  0.00    -0.347 OA
BRANCH  17  18
HETATM   18  C   UNK N   1      33.508  10.395  21.752  0.00  0.00     0.214 C 
BRANCH  18  19
HETATM   19  C   UNK N   1      32.720   9.144  21.631  0.00  0.00    -0.031 A 
HETATM   20  C   UNK N   1      31.779   9.021  20.605  0.00  0.00     0.051 A 
HETATM   21  C   UNK N   1      31.026   7.851  20.482  0.00  0.00     0.117 A 
HETATM   22  F   UNK N   1      30.112   7.736  19.491  0.00  0.00    -0.206 F 
HETATM   23  C   UNK N   1      31.220   6.800  21.384  0.00  0.00     0.042 A 
HETATM   24  C   UNK N   1      32.163   6.921  22.410  0.00  0.00     0.004 A 
HETATM   25  C   UNK N   1      32.911   8.095  22.535  0.00  0.00     0.009 A 
ENDBRANCH  18  19
ENDBRANCH  17  18
ENDBRANCH   1  17
TORSDOF 7
ENDMDL
MODEL 9
REMARK VINA RESULT:      -6.3      3.229      4.919
REMARK  7 active torsions:
REMARK  status: ('A' for Active; 'I' for Inactive)
REMARK    1  A    between atoms: C_4  and  C_1 
REMARK       I    between atoms: N_5  and  C_1 
REMARK    2  A    between atoms: N_2  and  C_4 
REMARK    3  A    between atoms: C_7  and  N_2 
REMARK    4  A    between atoms: O_6  and  C_8 
REMARK    5  A    between atoms: C_12  and  O_6 
REMARK    6  A    between atoms: C_9  and  C_7 
REMARK    7  A    between atoms: C_13  and  C_12 
ROOT
HETATM    1  C   UNK N   1      34.687  16.587   9.086  0.00  0.00     0.069 A 
HETATM    2  C   UNK N   1      36.287  14.612  10.257  0.00  0.00    -0.041 A 
HETATM    3  C   UNK N   1      35.277  16.803  10.346  0.00  0.00     0.037 A 
HETATM    4  C   UNK N   1      34.876  15.364   8.439  0.00  0.00     0.037 A 
HETATM    5  C   UNK N   1      36.074  15.818  10.929  0.00  0.00     0.011 A 
HETATM    6  C   UNK N   1      35.680  14.384   9.019  0.00  0.00     0.011 A 
ENDROOT
BRANCH   2   7
HETATM    7  C   UNK N   1      37.246  13.621  10.807  0.00  0.00     0.153 C 
BRANCH   7   8
HETATM    8  N   UNK N   1      37.180  13.680  12.261  0.00  0.00    -0.406 N 
HETATM    9  H   UNK N   1      37.453  14.474  12.839  0.00  0.00     0.154 HD
BRANCH   8  10
HETATM   10  C   UNK N   1      36.659  12.413  12.747  0.00  0.00     0.165 C 
HETATM   11  C   UNK N   1      37.066  11.317  11.774  0.00  0.00     0.042 C 
BRANCH  10  12
HETATM   12  C   UNK N   1      35.160  12.492  12.921  0.00  0.00     0.237 C 
HETATM   13  O   UNK N   1      34.679  13.378  13.616  0.00  0.00    -0.271 OA
HETATM   14  N   UNK N   1      34.342  11.593  12.344  0.00  0.00    -0.368 N 
HETATM   15  H   UNK N   1      33.359  11.560  12.288  0.00  0.00     0.159 HD
HETATM   16  H   UNK N   1      34.802  10.842  11.905  0.00  0.00     0.159 HD
ENDBRANCH  10  12
ENDBRANCH   8  10
ENDBRANCH   7   8
ENDBRANCH   2   7
BRANCH   1  17
HETATM   17  O   UNK N   1      33.952  17.547   8.479  0.00  0.00    -0.347 OA
BRANCH  17  18
HETATM   18  C   UNK N   1      33.207  17.297   7.347  0.00  0.00     0.214 C 
BRANCH  18  19
HETATM   19  C   UNK N   1      31.764  17.488   7.636  0.00  0.00    -0.031 A 
HETATM   20  C   UNK N   1      31.379  18.160   8.798  0.00  0.00     0.051 A 
HETATM   21  C   UNK N   1      30.024  18.342   9.084  0.00  0.00     0.117 A 
HETATM   22  F   UNK N   1      29.652  18.990  10.213  0.00  0.00    -0.206 F 
HETATM   23  C   UNK N   1      29.054  17.856   8.202  0.00  0.00     0.042 A 
HETATM   24  C   UNK N   1      29.439  17.183   7.037  0.00  0.00     0.004 A 
HETATM   25  C   UNK N   1      30.795  16.997   6.755  0.00  0.00     0.009 A 
ENDBRANCH  18  19
ENDBRANCH  17  18
ENDBRANCH   1  17
TORSDOF 7
ENDMDL
