MODEL 1
REMARK VINA RESULT:      -1.3      0.000      0.000
REMARK  1 active torsions:
REMARK  status: ('A' for Active; 'I' for Inactive)
REMARK    1  A    between atoms: Mn_1  and  Mn_1 
ROOT
HETATM    1 Mn   UNK N   1      38.596  29.706  19.362  0.00  0.00     0.000 Mn
ENDROOT
TORSDOF 1
ENDMDL
MODEL 2
REMARK VINA RESULT:      -1.2     10.767     10.767
REMARK  1 active torsions:
REMARK  status: ('A' for Active; 'I' for Inactive)
REMARK    1  A    between atoms: Mn_1  and  Mn_1 
ROOT
HETATM    1 Mn   UNK N   1      39.964  21.073  13.075  0.00  0.00     0.000 Mn
ENDROOT
TORSDOF 1
ENDMDL
MODEL 3
REMARK VINA RESULT:      -1.2     11.042     11.042
REMARK  1 active torsions:
REMARK  status: ('A' for Active; 'I' for Inactive)
REMARK    1  A    between atoms: Mn_1  and  Mn_1 
ROOT
HETATM    1 Mn   UNK N   1      35.636  21.382  12.738  0.00  0.00     0.000 Mn
ENDROOT
TORSDOF 1
ENDMDL
MODEL 4
REMARK VINA RESULT:      -1.2     31.889     31.889
REMARK  1 active torsions:
REMARK  status: ('A' for Active; 'I' for Inactive)
REMARK    1  A    between atoms: Mn_1  and  Mn_1 
ROOT
HETATM    1 Mn   UNK N   1      21.453  21.778  -6.332  0.00  0.00     0.000 Mn
ENDROOT
TORSDOF 1
ENDMDL
MODEL 5
REMARK VINA RESULT:      -1.1     15.613     15.613
REMARK  1 active torsions:
REMARK  status: ('A' for Active; 'I' for Inactive)
REMARK    1  A    between atoms: Mn_1  and  Mn_1 
ROOT
HETATM    1 Mn   UNK N   1      43.320  25.304   5.147  0.00  0.00     0.000 Mn
ENDROOT
TORSDOF 1
ENDMDL
MODEL 6
REMARK VINA RESULT:      -1.1      4.424      4.424
REMARK  1 active torsions:
REMARK  status: ('A' for Active; 'I' for Inactive)
REMARK    1  A    between atoms: Mn_1  and  Mn_1 
ROOT
HETATM    1 Mn   UNK N   1      36.350  28.123  15.895  0.00  0.00     0.000 Mn
ENDROOT
TORSDOF 1
ENDMDL
MODEL 7
REMARK VINA RESULT:      -1.0      9.040      9.040
REMARK  1 active torsions:
REMARK  status: ('A' for Active; 'I' for Inactive)
REMARK    1  A    between atoms: Mn_1  and  Mn_1 
ROOT
HETATM    1 Mn   UNK N   1      41.691  21.639  22.017  0.00  0.00     0.000 Mn
ENDROOT
TORSDOF 1
ENDMDL
MODEL 8
REMARK VINA RESULT:      -0.9     24.698     24.698
REMARK  1 active torsions:
REMARK  status: ('A' for Active; 'I' for Inactive)
REMARK    1  A    between atoms: Mn_1  and  Mn_1 
ROOT
HETATM    1 Mn   UNK N   1      17.464  20.391  10.606  0.00  0.00     0.000 Mn
ENDROOT
TORSDOF 1
ENDMDL
MODEL 9
REMARK VINA RESULT:      -0.9     10.336     10.336
REMARK  1 active torsions:
REMARK  status: ('A' for Active; 'I' for Inactive)
REMARK    1  A    between atoms: Mn_1  and  Mn_1 
ROOT
HETATM    1 Mn   UNK N   1      46.910  23.948  17.228  0.00  0.00     0.000 Mn
ENDROOT
TORSDOF 1
ENDMDL
