REMARK WARNING: 32 MAX_TORS EXCEEDED!!!
REMARK  34 active torsions:
REMARK  status: ('A' for Active; 'I' for Inactive)
REMARK    1  A    between atoms: O_5  and  C_58 
REMARK    2  A    between atoms: O_7  and  C_62 
REMARK    3  A    between atoms: C_71  and  O_9 
REMARK       I    between atoms: N_15  and  C_45 
REMARK       I    between atoms: N_16  and  C_53 
REMARK       I    between atoms: N_17  and  C_46 
REMARK    4  A    between atoms: C_51  and  N_17 
REMARK    5  A    between atoms: C_56  and  N_18 
REMARK       I    between atoms: N_18  and  C_64 
REMARK       I    between atoms: N_19  and  C_73 
REMARK       I    between atoms: N_20  and  C_76 
REMARK    6  A    between atoms: N_21  and  C_63 
REMARK    7  A    between atoms: C_67  and  N_23 
REMARK       I    between atoms: N_23  and  C_80 
REMARK       I    between atoms: N_24  and  C_77 
REMARK    8  A    between atoms: N_24  and  C_82 
REMARK    9  A    between atoms: N_25  and  C_78 
REMARK       I    between atoms: N_25  and  C_86 
REMARK       I    between atoms: N_26  and  C_79 
REMARK       I    between atoms: N_27  and  C_79 
REMARK   10  A    between atoms: N_28  and  C_87 
REMARK   11  A    between atoms: C_88  and  N_30 
REMARK   12  A    between atoms: N_31  and  C_93 
REMARK       I    between atoms: N_33  and  C_94 
REMARK       I    between atoms: N_34  and  C_94 
REMARK       I    between atoms: N_35  and  C_95 
REMARK       I    between atoms: N_36  and  C_95 
REMARK   13  A    between atoms: C_40  and  C_46 
REMARK   14  A    between atoms: C_45  and  C_47 
REMARK   15  A    between atoms: C_51  and  C_54 
REMARK   16  A    between atoms: C_51  and  C_58 
REMARK   17  A    between atoms: C_53  and  C_56 
REMARK   18  A    between atoms: C_54  and  C_59 
REMARK   19  A    between atoms: C_56  and  C_62 
REMARK   20  A    between atoms: C_59  and  C_63 
REMARK   21  A    between atoms: C_64  and  C_67 
REMARK   22  A    between atoms: C_65  and  C_73 
REMARK   23  A    between atoms: C_66  and  C_77 
REMARK   24  A    between atoms: C_67  and  C_75 
REMARK   25  A    between atoms: C_75  and  C_83 
REMARK   26  A    between atoms: C_76  and  C_78 
REMARK   27  A    between atoms: C_78  and  C_81 
REMARK   28  A    between atoms: C_80  and  C_82 
REMARK   29  A    between atoms: C_81  and  C_84 
REMARK   30  A    between atoms: C_84  and  C_87 
REMARK   31  A    between atoms: C_86  and  C_88 
REMARK   32  A    between atoms: C_88  and  C_91 
REMARK   33  A    between atoms: C_91  and  C_92 
REMARK   34  A    between atoms: C_92  and  C_93 
ROOT
HETATM    1  C   UNK N   1       6.181  -1.225  -1.266  0.00  0.00     0.181 C 
ENDROOT
BRANCH   1   2
HETATM    2  N   UNK N   1       6.037   0.194  -1.056  0.00  0.00    -0.346 N 
HETATM    3  C   UNK N   1       6.968   1.057  -1.513  0.00  0.00     0.236 C 
HETATM    4  O   UNK N   1       7.765   0.716  -2.378  0.00  0.00    -0.272 OA
HETATM    5  H   UNK N   1       5.250   0.537  -0.573  0.00  0.00     0.163 HD
BRANCH   3   6
HETATM    6  C   UNK N   1       7.163   2.342  -0.804  0.00  0.00     0.225 C 
BRANCH   6   7
HETATM    7  N   UNK N   1       8.563   2.415  -0.476  0.00  0.00    -0.351 N 
HETATM    8  C   UNK N   1       9.083   2.413   0.770  0.00  0.00     0.241 C 
HETATM    9  O   UNK N   1       8.355   2.320   1.746  0.00  0.00    -0.271 OA
HETATM   10  H   UNK N   1       9.198   2.473  -1.226  0.00  0.00     0.163 HD
BRANCH   8  11
HETATM   11  C   UNK N   1      10.568   2.609   0.968  0.00  0.00     0.181 C 
HETATM   12  N   UNK N   1      11.142   3.837   0.518  0.00  0.00    -0.334 N 
HETATM   13  C   UNK N   1      12.487   3.907   0.989  0.00  0.00     0.158 C 
HETATM   14  C   UNK N   1      10.861   4.418  -0.690  0.00  0.00     0.243 C 
HETATM   15  C   UNK N   1      12.932   2.425   0.873  0.00  0.00     0.138 C 
HETATM   16  C   UNK N   1      11.638   1.586   0.728  0.00  0.00     0.068 C 
HETATM   17  O   UNK N   1      10.289   3.790  -1.565  0.00  0.00    -0.271 OA
BRANCH  15  18
HETATM   18  O   UNK N   1      13.700   2.250  -0.282  0.00  0.00    -0.394 OA
HETATM   19  H   UNK N   1      13.861   1.727  -1.083  0.00  0.00     0.210 HD
ENDBRANCH  15  18
BRANCH  14  20
HETATM   20  C   UNK N   1      11.102   5.868  -0.955  0.00  0.00     0.179 A 
HETATM   21  N   UNK N   1      10.140   6.684  -0.244  0.00  0.00    -0.337 N 
HETATM   22  C   UNK N   1      10.726   7.673   0.604  0.00  0.00     0.127 A 
HETATM   23  C   UNK N   1       8.777   6.549  -0.420  0.00  0.00     0.243 C 
HETATM   24  C   UNK N   1      12.229   7.547   0.409  0.00  0.00     0.022 A 
HETATM   25  C   UNK N   1      12.471   6.387  -0.558  0.00  0.00     0.037 A 
HETATM   26  O   UNK N   1       8.333   5.640  -1.098  0.00  0.00    -0.271 OA
BRANCH  23  27
HETATM   27  C   UNK N   1       7.801   7.562   0.159  0.00  0.00     0.176 C 
BRANCH  27  28
HETATM   28  N   UNK N   1       6.428   7.139  -0.061  0.00  0.00    -0.346 N 
HETATM   29  C   UNK N   1       5.362   7.855   0.387  0.00  0.00     0.240 C 
HETATM   30  O   UNK N   1       5.523   8.846   1.086  0.00  0.00    -0.271 OA
HETATM   31  H   UNK N   1       6.264   6.303  -0.554  0.00  0.00     0.163 HD
BRANCH  29  32
HETATM   32  C   UNK N   1       3.982   7.445  -0.022  0.00  0.00     0.167 C 
BRANCH  32  33
HETATM   33  N   UNK N   1       3.304   8.559  -0.669  0.00  0.00    -0.418 N 
HETATM   34  H   UNK N   1       3.743   9.360  -1.123  0.00  0.00     0.150 HD
HETATM   35  H   UNK N   1       2.285   8.536  -0.669  0.00  0.00     0.150 HD
ENDBRANCH  32  33
BRANCH  32  36
HETATM   36  C   UNK N   1       3.170   6.958   1.166  0.00  0.00     0.036 C 
BRANCH  36  37
HETATM   37  C   UNK N   1       1.913   6.232   0.705  0.00  0.00     0.023 C 
BRANCH  37  38
HETATM   38  C   UNK N   1       2.272   4.901   0.066  0.00  0.00     0.138 C 
BRANCH  38  39
HETATM   39  N   UNK N   1       1.122   4.033   0.085  0.00  0.00    -0.227 N 
HETATM   40  C   UNK N   1       1.170   2.817  -0.337  0.00  0.00     0.665 C 
HETATM   41  N   UNK N   1       0.013   2.011  -0.271  0.00  0.00    -0.235 N 
HETATM   42  N   UNK N   1       2.371   2.271  -0.852  0.00  0.00    -0.235 N 
HETATM   43  H   UNK N   1      -0.877   2.429  -0.225  0.00  0.00     0.174 HD
HETATM   44  H   UNK N   1       0.097   1.030  -0.271  0.00  0.00     0.174 HD
HETATM   45  H   UNK N   1       2.460   1.358  -1.210  0.00  0.00     0.174 HD
HETATM   46  H   UNK N   1       3.172   2.843  -0.852  0.00  0.00     0.174 HD
ATOM     47  HN  UNK N   1       0.239   4.394   0.446  1.00  0.00     0.177 HD
ENDBRANCH  38  39
ENDBRANCH  37  38
ENDBRANCH  36  37
ENDBRANCH  32  36
ENDBRANCH  29  32
ENDBRANCH  27  28
BRANCH  27  48
HETATM   48  C   UNK N   1       7.977   8.836  -0.648  0.00  0.00     0.036 C 
BRANCH  48  49
HETATM   49  C   UNK N   1       8.859   9.846   0.036  0.00  0.00     0.023 C 
BRANCH  49  50
HETATM   50  C   UNK N   1       8.864  11.111  -0.790  0.00  0.00     0.138 C 
BRANCH  50  51
HETATM   51  N   UNK N   1       7.568  11.738  -0.706  0.00  0.00    -0.227 N 
HETATM   52  C   UNK N   1       7.365  12.767   0.037  0.00  0.00     0.665 C 
HETATM   53  N   UNK N   1       6.076  13.337   0.100  0.00  0.00    -0.235 N 
HETATM   54  N   UNK N   1       8.413  13.319   0.813  0.00  0.00    -0.235 N 
HETATM   55  H   UNK N   1       5.971  14.315   0.145  0.00  0.00     0.174 HD
HETATM   56  H   UNK N   1       5.281  12.756   0.100  0.00  0.00     0.174 HD
HETATM   57  H   UNK N   1       9.109  12.880   1.353  0.00  0.00     0.174 HD
HETATM   58  H   UNK N   1       8.451  14.303   0.813  0.00  0.00     0.174 HD
ATOM     59  HN  UNK N   1       6.794  11.355  -1.249  1.00  0.00     0.177 HD
ENDBRANCH  50  51
ENDBRANCH  49  50
ENDBRANCH  48  49
ENDBRANCH  27  48
ENDBRANCH  23  27
ENDBRANCH  14  20
ENDBRANCH   8  11
ENDBRANCH   6   7
ENDBRANCH   3   6
ENDBRANCH   1   2
BRANCH   1  60
HETATM   60  C   UNK N   1       7.272  -1.651  -0.326  0.00  0.00     0.241 C 
HETATM   61  O   UNK N   1       7.101  -1.584   0.883  0.00  0.00    -0.271 OA
HETATM   62  N   UNK N   1       8.517  -1.710  -0.847  0.00  0.00    -0.344 N 
HETATM   63  H   UNK N   1       8.611  -2.005  -1.781  0.00  0.00     0.163 HD
BRANCH  62  64
HETATM   64  C   UNK N   1       9.720  -1.370  -0.125  0.00  0.00     0.200 C 
BRANCH  64  65
HETATM   65  C   UNK N   1      10.235  -2.300   0.940  0.00  0.00     0.245 C 
HETATM   66  O   UNK N   1      10.342  -1.856   2.075  0.00  0.00    -0.271 OA
HETATM   67  N   UNK N   1      10.801  -3.501   0.625  0.00  0.00    -0.332 N 
HETATM   68  C   UNK N   1      10.620  -4.112  -0.694  0.00  0.00     0.184 C 
HETATM   69  C   UNK N   1      11.847  -3.992   1.494  0.00  0.00     0.165 C 
HETATM   70  C   UNK N   1      11.890  -4.743  -1.297  0.00  0.00     0.074 C 
HETATM   71  C   UNK N   1      13.144  -4.249  -0.637  0.00  0.00    -0.048 A 
HETATM   72  C   UNK N   1      13.132  -3.893   0.725  0.00  0.00    -0.034 A 
HETATM   73  C   UNK N   1      14.321  -4.125  -1.380  0.00  0.00     0.008 A 
HETATM   74  C   UNK N   1      14.292  -3.398   1.327  0.00  0.00     0.009 A 
HETATM   75  C   UNK N   1      15.469  -3.279   0.579  0.00  0.00     0.001 A 
HETATM   76  C   UNK N   1      15.483  -3.644  -0.772  0.00  0.00     0.001 A 
BRANCH  68  77
HETATM   77  C   UNK N   1       9.365  -4.973  -0.732  0.00  0.00     0.244 C 
HETATM   78  O   UNK N   1       8.349  -4.456  -1.169  0.00  0.00    -0.271 OA
HETATM   79  N   UNK N   1       9.317  -6.269  -0.263  0.00  0.00    -0.332 N 
HETATM   80  C   UNK N   1      10.486  -7.094   0.016  0.00  0.00     0.092 C 
HETATM   81  C   UNK N   1       8.095  -7.054  -0.161  0.00  0.00     0.180 C 
HETATM   82  C   UNK N   1       9.893  -8.477   0.307  0.00  0.00     0.011 C 
HETATM   83  C   UNK N   1      11.311  -6.667   1.217  0.00  0.00     0.026 C 
HETATM   84  C   UNK N   1       8.528  -8.132   0.818  0.00  0.00     0.041 C 
HETATM   85  C   UNK N   1      10.687  -9.326   1.306  0.00  0.00     0.007 C 
HETATM   86  C   UNK N   1      12.179  -9.084   1.111  0.00  0.00     0.001 C 
HETATM   87  C   UNK N   1      12.521  -7.609   1.385  0.00  0.00     0.002 C 
BRANCH  81  88
HETATM   88  C   UNK N   1       6.809  -6.429   0.350  0.00  0.00     0.241 C 
HETATM   89  O   UNK N   1       6.811  -5.301   0.817  0.00  0.00    -0.271 OA
HETATM   90  N   UNK N   1       5.627  -7.114   0.278  0.00  0.00    -0.345 N 
HETATM   91  H   UNK N   1       4.826  -6.683   0.655  0.00  0.00     0.163 HD
BRANCH  90  92
HETATM   92  C   UNK N   1       5.465  -8.441  -0.317  0.00  0.00     0.182 C 
BRANCH  92  93
HETATM   93  C   UNK N   1       6.163  -9.522   0.499  0.00  0.00     0.038 C 
BRANCH  93  94
HETATM   94  C   UNK N   1       6.832 -10.541  -0.415  0.00  0.00     0.023 C 
BRANCH  94  95
HETATM   95  C   UNK N   1       7.962 -11.218   0.343  0.00  0.00     0.138 C 
BRANCH  95  96
HETATM   96  N   UNK N   1       8.674 -12.129  -0.520  0.00  0.00    -0.227 N 
HETATM   97  C   UNK N   1       9.784 -12.682  -0.167  0.00  0.00     0.665 C 
HETATM   98  N   UNK N   1      10.426 -13.581  -1.045  0.00  0.00    -0.235 N 
HETATM   99  N   UNK N   1      10.373 -12.400   1.090  0.00  0.00    -0.235 N 
HETATM  100  H   UNK N   1      10.107 -14.282  -1.658  0.00  0.00     0.174 HD
HETATM  101  H   UNK N   1      11.406 -13.486  -1.045  0.00  0.00     0.174 HD
HETATM  102  H   UNK N   1      10.747 -12.656   1.964  0.00  0.00     0.174 HD
HETATM  103  H   UNK N   1      10.448 -11.418   1.090  0.00  0.00     0.174 HD
ATOM    104  HN  UNK N   1       8.288 -12.342  -1.440  1.00  0.00     0.177 HD
ENDBRANCH  95  96
ENDBRANCH  94  95
ENDBRANCH  93  94
ENDBRANCH  92  93
BRANCH  92 105
HETATM  105  C   UNK N   1       4.014  -8.827  -0.403  0.00  0.00     0.163 C 
HETATM  106  O   UNK N   1       3.144  -8.093   0.038  0.00  0.00    -0.648 OA
BRANCH 105 107
HETATM  107  O   UNK N   1       3.672 -10.012  -0.946  0.00  0.00    -0.775 OA
HETATM  108  H   UNK N   1       2.839 -10.218  -1.323  0.00  0.00     0.167 HD
ENDBRANCH 105 107
ENDBRANCH  92 105
ENDBRANCH  90  92
ENDBRANCH  81  88
ENDBRANCH  68  77
ENDBRANCH  64  65
BRANCH  64 109
HETATM  109  C   UNK N   1      10.817  -1.071  -1.148  0.00  0.00     0.199 C 
BRANCH 109 110
HETATM  110  O   UNK N   1      12.063  -0.905  -0.536  0.00  0.00    -0.398 OA
HETATM  111  H   UNK N   1      12.595  -1.596  -0.112  0.00  0.00     0.209 HD
ENDBRANCH 109 110
ENDBRANCH  64 109
ENDBRANCH  62  64
ENDBRANCH   1  60
BRANCH   1 112
HETATM  112  C   UNK N   1       4.852  -1.982  -1.176  0.00  0.00     0.081 C 
BRANCH 112 113
HETATM  113  C   UNK N   1       3.854  -1.473  -0.175  0.00  0.00    -0.015 A 
HETATM  114  S   UNK N   1       2.289  -1.985  -0.077  0.00  0.00    -0.106 SA
HETATM  115  C   UNK N   1       1.741  -1.013   1.151  0.00  0.00     0.050 A 
HETATM  116  C   UNK N   1       2.832  -0.220   1.531  0.00  0.00     0.008 A 
HETATM  117  C   UNK N   1       4.018  -0.474   0.787  0.00  0.00     0.015 A 
ENDBRANCH 112 113
ENDBRANCH   1 112
TORSDOF 34
