REMARK  13 active torsions:
REMARK  status: ('A' for Active; 'I' for Inactive)
REMARK    1  A    between atoms: C_2  and  O_3 
REMARK    2  A    between atoms: C_2  and  C_4 
REMARK    3  A    between atoms: C_4  and  N_5 
REMARK    4  A    between atoms: C_4  and  C_35 
REMARK       I    between atoms: N_5  and  C_6 
REMARK    5  A    between atoms: C_6  and  C_8 
REMARK    6  A    between atoms: C_11  and  C_14 
REMARK    7  A    between atoms: C_14  and  C_15 
REMARK    8  A    between atoms: C_14  and  C_18 
REMARK    9  A    between atoms: C_18  and  C_19 
REMARK       I    between atoms: C_29  and  N_34 
REMARK   10  A    between atoms: C_32  and  N_33 
REMARK   11  A    between atoms: C_35  and  C_36 
REMARK   12  A    between atoms: C_36  and  C_37 
REMARK   13  A    between atoms: C_37  and  O_39 
ROOT
HETATM    1  C   UNK N   1      -4.669  -9.919  -1.288  0.00  0.00     0.102 C 
HETATM    2  C   UNK N   1      -4.701 -11.066  -0.381  0.00  0.00    -0.117 C 
HETATM    3  C   UNK N   1      -4.751 -12.008   0.368  0.00  0.00     0.012 C 
ENDROOT
BRANCH   1   4
HETATM    4  C   UNK N   1      -5.308  -8.748  -0.557  0.00  0.00     0.035 C 
BRANCH   4   5
HETATM    5  C   UNK N   1      -4.363  -7.791   0.096  0.00  0.00    -0.053 A 
HETATM    6  C   UNK N   1      -3.124  -8.258   0.534  0.00  0.00     0.008 A 
HETATM    7  C   UNK N   1      -2.145  -7.358   0.906  0.00  0.00     0.017 A 
HETATM    8  C   UNK N   1      -2.401  -5.981   0.884  0.00  0.00     0.032 A 
HETATM    9  C   UNK N   1      -3.680  -5.512   0.572  0.00  0.00     0.017 A 
HETATM   10  C   UNK N   1      -4.661  -6.419   0.176  0.00  0.00     0.008 A 
BRANCH   8  11
HETATM   11  C   UNK N   1      -1.261  -5.083   0.708  0.00  0.00     0.252 C 
HETATM   12  N   UNK N   1      -0.110  -5.674   0.320  0.00  0.00    -0.343 N 
HETATM   13  H   UNK N   1       0.089  -6.571   0.674  0.00  0.00     0.163 HD
HETATM   14  O   UNK N   1      -1.429  -3.880   0.568  0.00  0.00    -0.268 OA
BRANCH  12  15
HETATM   15  C   UNK N   1       0.847  -5.079  -0.577  0.00  0.00     0.183 C 
BRANCH  15  16
HETATM   16  C   UNK N   1       1.688  -4.005   0.025  0.00  0.00     0.163 C 
HETATM   17  O   UNK N   1       2.446  -3.371  -0.690  0.00  0.00    -0.648 OA
BRANCH  16  18
HETATM   18  O   UNK N   1       1.589  -3.702   1.332  0.00  0.00    -0.775 OA
HETATM   19  H   UNK N   1       1.738  -3.536   2.242  0.00  0.00     0.167 HD
ENDBRANCH  16  18
ENDBRANCH  15  16
BRANCH  15  20
HETATM   20  C   UNK N   1       1.650  -6.191  -1.262  0.00  0.00     0.046 C 
BRANCH  20  21
HETATM   21  C   UNK N   1       2.021  -7.330  -0.310  0.00  0.00     0.112 C 
BRANCH  21  22
HETATM   22  C   UNK N   1       3.403  -7.174   0.221  0.00  0.00     0.139 C 
HETATM   23  O   UNK N   1       3.712  -6.178   0.854  0.00  0.00    -0.650 OA
BRANCH  22  24
HETATM   24  O   UNK N   1       4.305  -8.151   0.024  0.00  0.00    -0.776 OA
HETATM   25  H   UNK N   1       4.030  -9.036  -0.113  0.00  0.00     0.167 HD
ENDBRANCH  22  24
ENDBRANCH  21  22
ENDBRANCH  20  21
ENDBRANCH  15  20
ENDBRANCH  12  15
ENDBRANCH   8  11
ENDBRANCH   4   5
BRANCH   4  26
HETATM   26  C   UNK N   1      -6.387  -8.094  -1.404  0.00  0.00     0.068 C 
BRANCH  26  27
HETATM   27  C   UNK N   1      -7.722  -8.475  -0.869  0.00  0.00     0.026 A 
HETATM   28  N   UNK N   1      -8.800  -7.688  -1.118  0.00  0.00    -0.352 N 
HETATM   29  C   UNK N   1     -10.011  -7.997  -0.583  0.00  0.00     0.122 A 
ATOM     30  HN  UNK N   1      -8.701  -6.862  -1.709  1.00  0.00     0.166 HD
HETATM   31  C   UNK N   1     -10.144  -9.135   0.231  0.00  0.00     0.151 A 
HETATM   32  C   UNK N   1     -11.138  -7.209  -0.814  0.00  0.00     0.145 A 
HETATM   33  N   UNK N   1      -9.069  -9.921   0.471  0.00  0.00    -0.348 N 
HETATM   34  N   UNK N   1     -11.343  -9.444   0.775  0.00  0.00    -0.174 N 
HETATM   35  C   UNK N   1      -7.867  -9.615  -0.061  0.00  0.00     0.114 A 
ATOM     36  HN  UNK N   1      -9.168 -10.750   1.057  1.00  0.00     0.167 HD
HETATM   37  C   UNK N   1     -12.428  -8.664   0.541  0.00  0.00     0.679 A 
ATOM     38  HN  UNK N   1     -11.432 -10.271   1.366  1.00  0.00     0.186 HD
HETATM   39  N   UNK N   1     -12.323  -7.559  -0.247  0.00  0.00    -0.175 N 
HETATM   40  N   UNK N   1     -13.666  -9.004   1.117  0.00  0.00    -0.234 N 
ATOM     41  HN  UNK N   1     -13.148  -6.983  -0.415  1.00  0.00     0.186 HD
HETATM   42  H   UNK N   1     -14.305  -8.372   1.520  0.00  0.00     0.174 HD
HETATM   43  H   UNK N   1     -13.916  -9.956   1.117  0.00  0.00     0.174 HD
BRANCH  32  44
HETATM   44  N   UNK N   1     -11.057  -6.058  -1.624  0.00  0.00    -0.383 N 
HETATM   45  H   UNK N   1     -10.334  -5.704  -2.190  0.00  0.00     0.157 HD
HETATM   46  H   UNK N   1     -11.874  -5.508  -1.624  0.00  0.00     0.157 HD
ENDBRANCH  32  44
ENDBRANCH  26  27
ENDBRANCH   4  26
ENDBRANCH   1   4
TORSDOF 13
