MODEL 1
REMARK VINA RESULT:      -5.9      0.000      0.000
REMARK  10 active torsions:
REMARK  status: ('A' for Active; 'I' for Inactive)
REMARK    1  A    between atoms: C_8  and  C_4 
REMARK    2  A    between atoms: C_8  and  C_5 
REMARK    3  A    between atoms: O_22  and  C_7 
REMARK    4  A    between atoms: C_12  and  C_8 
REMARK    5  A    between atoms: C_9  and  C_14 
REMARK    6  A    between atoms: C_10  and  N_21 
REMARK    7  A    between atoms: C_11  and  C_12 
REMARK    8  A    between atoms: C_12  and  N_19 
REMARK    9  A    between atoms: C_13  and  O_23 
REMARK   10  A    between atoms: O_25  and  C_14 
REMARK       I    between atoms: N_18  and  C_15 
REMARK       I    between atoms: N_21  and  C_15 
ROOT
HETATM    1  C   UNK N   1      30.024  16.791   6.717  0.00  0.00     0.044 C 
HETATM    2  C   UNK N   1      29.714  17.899   7.697  0.00  0.00     0.114 C 
HETATM    3  C   UNK N   1      29.456  17.311   5.386  0.00  0.00     0.108 C 
HETATM    4  C   UNK N   1      28.347  18.350   5.792  0.00  0.00     0.061 C 
HETATM    5  C   UNK N   1      28.273  18.251   7.323  0.00  0.00     0.140 C 
ENDROOT
BRANCH   4   6
HETATM    6  C   UNK N   1      27.005  18.514   4.961  0.00  0.00     0.095 C 
BRANCH   6   7
HETATM    7  C   UNK N   1      26.504  19.978   4.829  0.00  0.00     0.008 C 
BRANCH   7   8
HETATM    8  C   UNK N   1      26.434  20.389   3.351  0.00  0.00     0.002 C 
HETATM    9  C   UNK N   1      25.008  20.473   2.839  0.00  0.00     0.005 C 
ENDBRANCH   7   8
BRANCH   7  10
HETATM   10  C   UNK N   1      27.355  20.979   5.600  0.00  0.00     0.002 C 
HETATM   11  C   UNK N   1      26.550  21.575   6.743  0.00  0.00     0.005 C 
ENDBRANCH   7  10
ENDBRANCH   6   7
BRANCH   6  12
HETATM   12  N   UNK N   1      25.915  17.740   5.538  0.00  0.00    -0.369 N 
HETATM   13  C   UNK N   1      25.456  16.647   5.017  0.00  0.00     0.107 C 
HETATM   14  C   UNK N   1      24.352  15.916   5.694  0.00  0.00     0.097 C 
ATOM     15  HN  UNK N   1      25.489  18.078   6.401  1.00  0.00     0.161 HD
BRANCH  13  16
HETATM   16  O   UNK N   1      25.948  16.161   3.856  0.00  0.00    -0.350 OA
HETATM   17  H   UNK N   1      25.890  15.721   3.031  0.00  0.00     0.219 HD
ENDBRANCH  13  16
ENDBRANCH   6  12
ENDBRANCH   4   6
BRANCH   3  18
HETATM   18  N   UNK N   1      29.002  16.198   4.576  0.00  0.00    -0.222 N 
HETATM   19  C   UNK N   1      29.333  16.055   3.198  0.00  0.00     0.665 C 
HETATM   20  N   UNK N   1      30.140  16.871   2.628  0.00  0.00    -0.235 N 
HETATM   21  N   UNK N   1      28.688  15.063   2.427  0.00  0.00    -0.235 N 
HETATM   22  H   UNK N   1      30.047  17.183   1.699  0.00  0.00     0.174 HD
ATOM     23  HN  UNK N   1      30.930  17.220   3.171  1.00  0.00     0.174 HD
HETATM   24  H   UNK N   1      28.109  14.338   2.756  0.00  0.00     0.174 HD
HETATM   25  H   UNK N   1      28.835  15.100   1.454  0.00  0.00     0.174 HD
HETATM   26  H   UNK N   1      28.439  15.510   4.998  0.00  0.00     0.178 HD
ENDBRANCH   3  18
BRANCH   5  27
HETATM   27  O   UNK N   1      27.399  17.224   7.700  0.00  0.00    -0.394 OA
HETATM   28  H   UNK N   1      26.862  16.550   8.145  0.00  0.00     0.210 HD
ENDBRANCH   5  27
BRANCH   2  29
HETATM   29  C   UNK N   1      29.934  17.532   9.143  0.00  0.00     0.146 C 
HETATM   30  O   UNK N   1      29.311  18.092  10.031  0.00  0.00    -0.650 OA
BRANCH  29  31
HETATM   31  O   UNK N   1      30.861  16.609   9.464  0.00  0.00    -0.776 OA
HETATM   32  H   UNK N   1      31.772  16.806   9.370  0.00  0.00     0.167 HD
ENDBRANCH  29  31
ENDBRANCH   2  29
TORSDOF 10
ENDMDL
MODEL 2
REMARK VINA RESULT:      -5.7      3.672      7.027
REMARK  10 active torsions:
REMARK  status: ('A' for Active; 'I' for Inactive)
REMARK    1  A    between atoms: C_8  and  C_4 
REMARK    2  A    between atoms: C_8  and  C_5 
REMARK    3  A    between atoms: O_22  and  C_7 
REMARK    4  A    between atoms: C_12  and  C_8 
REMARK    5  A    between atoms: C_9  and  C_14 
REMARK    6  A    between atoms: C_10  and  N_21 
REMARK    7  A    between atoms: C_11  and  C_12 
REMARK    8  A    between atoms: C_12  and  N_19 
REMARK    9  A    between atoms: C_13  and  O_23 
REMARK   10  A    between atoms: O_25  and  C_14 
REMARK       I    between atoms: N_18  and  C_15 
REMARK       I    between atoms: N_21  and  C_15 
ROOT
HETATM    1  C   UNK N   1      29.633  17.537   7.091  0.00  0.00     0.044 C 
HETATM    2  C   UNK N   1      29.664  17.182   8.559  0.00  0.00     0.114 C 
HETATM    3  C   UNK N   1      30.709  16.631   6.472  0.00  0.00     0.108 C 
HETATM    4  C   UNK N   1      31.686  16.288   7.657  0.00  0.00     0.061 C 
HETATM    5  C   UNK N   1      31.169  17.129   8.834  0.00  0.00     0.140 C 
ENDROOT
BRANCH   4   6
HETATM    6  C   UNK N   1      33.251  16.140   7.439  0.00  0.00     0.095 C 
BRANCH   6   7
HETATM    7  C   UNK N   1      33.665  14.960   6.520  0.00  0.00     0.008 C 
BRANCH   7   8
HETATM    8  C   UNK N   1      34.345  13.855   7.342  0.00  0.00     0.002 C 
HETATM    9  C   UNK N   1      33.562  12.555   7.326  0.00  0.00     0.005 C 
ENDBRANCH   7   8
BRANCH   7  10
HETATM   10  C   UNK N   1      34.575  15.379   5.372  0.00  0.00     0.002 C 
HETATM   11  C   UNK N   1      34.150  14.681   4.090  0.00  0.00     0.005 C 
ENDBRANCH   7  10
ENDBRANCH   6   7
BRANCH   6  12
HETATM   12  N   UNK N   1      33.956  15.966   8.702  0.00  0.00    -0.369 N 
HETATM   13  C   UNK N   1      34.624  16.908   9.287  0.00  0.00     0.107 C 
HETATM   14  C   UNK N   1      35.294  16.638  10.588  0.00  0.00     0.097 C 
ATOM     15  HN  UNK N   1      33.923  15.050   9.150  1.00  0.00     0.161 HD
BRANCH  13  16
HETATM   16  O   UNK N   1      34.741  18.135   8.733  0.00  0.00    -0.350 OA
HETATM   17  H   UNK N   1      34.633  18.770   8.053  0.00  0.00     0.219 HD
ENDBRANCH  13  16
ENDBRANCH   6  12
ENDBRANCH   4   6
BRANCH   3  18
HETATM   18  N   UNK N   1      31.317  17.293   5.335  0.00  0.00    -0.222 N 
HETATM   19  C   UNK N   1      31.144  16.846   3.993  0.00  0.00     0.665 C 
HETATM   20  N   UNK N   1      30.353  15.875   3.721  0.00  0.00    -0.235 N 
HETATM   21  N   UNK N   1      31.929  17.413   2.965  0.00  0.00    -0.235 N 
HETATM   22  H   UNK N   1      30.526  15.200   3.026  0.00  0.00     0.174 HD
ATOM     23  HN  UNK N   1      29.490  15.797   4.258  1.00  0.00     0.174 HD
HETATM   24  H   UNK N   1      32.514  18.202   3.031  0.00  0.00     0.174 HD
HETATM   25  H   UNK N   1      31.885  16.972   2.086  0.00  0.00     0.174 HD
HETATM   26  H   UNK N   1      31.873  18.089   5.498  0.00  0.00     0.178 HD
ENDBRANCH   3  18
BRANCH   5  27
HETATM   27  O   UNK N   1      31.725  18.413   8.794  0.00  0.00    -0.394 OA
HETATM   28  H   UNK N   1      32.285  19.204   8.765  0.00  0.00     0.210 HD
ENDBRANCH   5  27
BRANCH   2  29
HETATM   29  C   UNK N   1      28.880  18.118   9.445  0.00  0.00     0.146 C 
HETATM   30  O   UNK N   1      29.445  18.817  10.271  0.00  0.00    -0.650 OA
BRANCH  29  31
HETATM   31  O   UNK N   1      27.537  18.152   9.356  0.00  0.00    -0.776 OA
HETATM   32  H   UNK N   1      27.065  17.386   9.094  0.00  0.00     0.167 HD
ENDBRANCH  29  31
ENDBRANCH   2  29
TORSDOF 10
ENDMDL
MODEL 3
REMARK VINA RESULT:      -5.7      3.250      4.969
REMARK  10 active torsions:
REMARK  status: ('A' for Active; 'I' for Inactive)
REMARK    1  A    between atoms: C_8  and  C_4 
REMARK    2  A    between atoms: C_8  and  C_5 
REMARK    3  A    between atoms: O_22  and  C_7 
REMARK    4  A    between atoms: C_12  and  C_8 
REMARK    5  A    between atoms: C_9  and  C_14 
REMARK    6  A    between atoms: C_10  and  N_21 
REMARK    7  A    between atoms: C_11  and  C_12 
REMARK    8  A    between atoms: C_12  and  N_19 
REMARK    9  A    between atoms: C_13  and  O_23 
REMARK   10  A    between atoms: O_25  and  C_14 
REMARK       I    between atoms: N_18  and  C_15 
REMARK       I    between atoms: N_21  and  C_15 
ROOT
HETATM    1  C   UNK N   1      33.859  15.058   8.055  0.00  0.00     0.044 C 
HETATM    2  C   UNK N   1      34.081  16.484   8.501  0.00  0.00     0.114 C 
HETATM    3  C   UNK N   1      33.035  15.202   6.765  0.00  0.00     0.108 C 
HETATM    4  C   UNK N   1      32.325  16.600   6.887  0.00  0.00     0.061 C 
HETATM    5  C   UNK N   1      32.693  17.094   8.294  0.00  0.00     0.140 C 
ENDROOT
BRANCH   4   6
HETATM    6  C   UNK N   1      30.857  16.848   6.338  0.00  0.00     0.095 C 
BRANCH   6   7
HETATM    7  C   UNK N   1      30.795  17.385   4.883  0.00  0.00     0.008 C 
BRANCH   7   8
HETATM    8  C   UNK N   1      30.059  16.389   3.976  0.00  0.00     0.002 C 
HETATM    9  C   UNK N   1      28.686  16.887   3.561  0.00  0.00     0.005 C 
ENDBRANCH   7   8
BRANCH   7  10
HETATM   10  C   UNK N   1      32.166  17.697   4.295  0.00  0.00     0.002 C 
HETATM   11  C   UNK N   1      32.346  16.962   2.976  0.00  0.00     0.005 C 
ENDBRANCH   7  10
ENDBRANCH   6   7
BRANCH   6  12
HETATM   12  N   UNK N   1      30.121  17.788   7.172  0.00  0.00    -0.369 N 
HETATM   13  C   UNK N   1      28.875  17.642   7.491  0.00  0.00     0.107 C 
HETATM   14  C   UNK N   1      28.216  18.648   8.367  0.00  0.00     0.097 C 
ATOM     15  HN  UNK N   1      30.615  18.608   7.524  1.00  0.00     0.161 HD
BRANCH  13  16
HETATM   16  O   UNK N   1      28.149  16.600   7.031  0.00  0.00    -0.350 OA
HETATM   17  H   UNK N   1      27.919  15.694   6.960  0.00  0.00     0.219 HD
ENDBRANCH  13  16
ENDBRANCH   6  12
ENDBRANCH   4   6
BRANCH   3  18
HETATM   18  N   UNK N   1      32.149  14.064   6.618  0.00  0.00    -0.222 N 
HETATM   19  C   UNK N   1      31.980  13.368   5.386  0.00  0.00     0.665 C 
HETATM   20  N   UNK N   1      32.687  13.665   4.360  0.00  0.00    -0.235 N 
HETATM   21  N   UNK N   1      30.952  12.407   5.267  0.00  0.00    -0.235 N 
HETATM   22  H   UNK N   1      32.352  13.653   3.435  0.00  0.00     0.174 HD
ATOM     23  HN  UNK N   1      33.660  13.931   4.512  1.00  0.00     0.174 HD
HETATM   24  H   UNK N   1      30.393  12.041   5.990  0.00  0.00     0.174 HD
HETATM   25  H   UNK N   1      30.775  12.064   4.361  0.00  0.00     0.174 HD
HETATM   26  H   UNK N   1      31.642  13.758   7.404  0.00  0.00     0.178 HD
ENDBRANCH   3  18
BRANCH   5  27
HETATM   27  O   UNK N   1      31.786  16.592   9.236  0.00  0.00    -0.394 OA
HETATM   28  H   UNK N   1      31.023  16.275   9.743  0.00  0.00     0.210 HD
ENDBRANCH   5  27
BRANCH   2  29
HETATM   29  C   UNK N   1      34.645  16.623   9.893  0.00  0.00     0.146 C 
HETATM   30  O   UNK N   1      35.505  17.454  10.139  0.00  0.00    -0.650 OA
BRANCH  29  31
HETATM   31  O   UNK N   1      34.230  15.791  10.867  0.00  0.00    -0.776 OA
HETATM   32  H   UNK N   1      33.592  16.079  11.490  0.00  0.00     0.167 HD
ENDBRANCH  29  31
ENDBRANCH   2  29
TORSDOF 10
ENDMDL
MODEL 4
REMARK VINA RESULT:      -5.6      3.590      6.085
REMARK  10 active torsions:
REMARK  status: ('A' for Active; 'I' for Inactive)
REMARK    1  A    between atoms: C_8  and  C_4 
REMARK    2  A    between atoms: C_8  and  C_5 
REMARK    3  A    between atoms: O_22  and  C_7 
REMARK    4  A    between atoms: C_12  and  C_8 
REMARK    5  A    between atoms: C_9  and  C_14 
REMARK    6  A    between atoms: C_10  and  N_21 
REMARK    7  A    between atoms: C_11  and  C_12 
REMARK    8  A    between atoms: C_12  and  N_19 
REMARK    9  A    between atoms: C_13  and  O_23 
REMARK   10  A    between atoms: O_25  and  C_14 
REMARK       I    between atoms: N_18  and  C_15 
REMARK       I    between atoms: N_21  and  C_15 
ROOT
HETATM    1  C   UNK N   1      30.192  17.707   9.159  0.00  0.00     0.044 C 
HETATM    2  C   UNK N   1      29.524  18.447   8.024  0.00  0.00     0.114 C 
HETATM    3  C   UNK N   1      31.476  17.148   8.526  0.00  0.00     0.108 C 
HETATM    4  C   UNK N   1      31.170  17.066   6.985  0.00  0.00     0.061 C 
HETATM    5  C   UNK N   1      29.690  17.460   6.868  0.00  0.00     0.140 C 
ENDROOT
BRANCH   4   6
HETATM    6  C   UNK N   1      31.733  15.891   6.079  0.00  0.00     0.095 C 
BRANCH   6   7
HETATM    7  C   UNK N   1      32.864  16.315   5.103  0.00  0.00     0.008 C 
BRANCH   7   8
HETATM    8  C   UNK N   1      34.144  16.651   5.881  0.00  0.00     0.002 C 
HETATM    9  C   UNK N   1      34.874  15.410   6.361  0.00  0.00     0.005 C 
ENDBRANCH   7   8
BRANCH   7  10
HETATM   10  C   UNK N   1      32.482  17.490   4.211  0.00  0.00     0.002 C 
HETATM   11  C   UNK N   1      32.321  17.021   2.774  0.00  0.00     0.005 C 
ENDBRANCH   7  10
ENDBRANCH   6   7
BRANCH   6  12
HETATM   12  N   UNK N   1      30.683  15.279   5.276  0.00  0.00    -0.369 N 
HETATM   13  C   UNK N   1      30.557  14.001   5.112  0.00  0.00     0.107 C 
HETATM   14  C   UNK N   1      29.437  13.471   4.289  0.00  0.00     0.097 C 
ATOM     15  HN  UNK N   1      30.010  15.892   4.816  1.00  0.00     0.161 HD
BRANCH  13  16
HETATM   16  O   UNK N   1      31.434  13.132   5.662  0.00  0.00    -0.350 OA
HETATM   17  H   UNK N   1      32.244  12.889   6.066  0.00  0.00     0.219 HD
ENDBRANCH  13  16
ENDBRANCH   6  12
ENDBRANCH   4   6
BRANCH   3  18
HETATM   18  N   UNK N   1      31.832  15.895   9.159  0.00  0.00    -0.222 N 
HETATM   19  C   UNK N   1      33.131  15.632   9.684  0.00  0.00     0.665 C 
HETATM   20  N   UNK N   1      34.029  16.545   9.703  0.00  0.00    -0.235 N 
HETATM   21  N   UNK N   1      33.461  14.322  10.097  0.00  0.00    -0.235 N 
HETATM   22  H   UNK N   1      34.987  16.381   9.547  0.00  0.00     0.174 HD
ATOM     23  HN  UNK N   1      33.733  17.502   9.891  1.00  0.00     0.174 HD
HETATM   24  H   UNK N   1      32.849  13.558  10.198  0.00  0.00     0.174 HD
HETATM   25  H   UNK N   1      34.408  14.155  10.309  0.00  0.00     0.174 HD
HETATM   26  H   UNK N   1      31.146  15.193   9.230  0.00  0.00     0.178 HD
ENDBRANCH   3  18
BRANCH   5  27
HETATM   27  O   UNK N   1      28.874  16.337   7.054  0.00  0.00    -0.394 OA
HETATM   28  H   UNK N   1      28.169  15.672   7.093  0.00  0.00     0.210 HD
ENDBRANCH   5  27
BRANCH   2  29
HETATM   29  C   UNK N   1      28.105  18.876   8.307  0.00  0.00     0.146 C 
HETATM   30  O   UNK N   1      27.592  19.790   7.681  0.00  0.00    -0.650 OA
BRANCH  29  31
HETATM   31  O   UNK N   1      27.410  18.275   9.292  0.00  0.00    -0.776 OA
HETATM   32  H   UNK N   1      27.336  18.686  10.131  0.00  0.00     0.167 HD
ENDBRANCH  29  31
ENDBRANCH   2  29
TORSDOF 10
ENDMDL
MODEL 5
REMARK VINA RESULT:      -5.6      4.910      6.645
REMARK  10 active torsions:
REMARK  status: ('A' for Active; 'I' for Inactive)
REMARK    1  A    between atoms: C_8  and  C_4 
REMARK    2  A    between atoms: C_8  and  C_5 
REMARK    3  A    between atoms: O_22  and  C_7 
REMARK    4  A    between atoms: C_12  and  C_8 
REMARK    5  A    between atoms: C_9  and  C_14 
REMARK    6  A    between atoms: C_10  and  N_21 
REMARK    7  A    between atoms: C_11  and  C_12 
REMARK    8  A    between atoms: C_12  and  N_19 
REMARK    9  A    between atoms: C_13  and  O_23 
REMARK   10  A    between atoms: O_25  and  C_14 
REMARK       I    between atoms: N_18  and  C_15 
REMARK       I    between atoms: N_21  and  C_15 
ROOT
HETATM    1  C   UNK N   1      34.327  13.360   9.508  0.00  0.00     0.044 C 
HETATM    2  C   UNK N   1      34.755  14.492  10.412  0.00  0.00     0.114 C 
HETATM    3  C   UNK N   1      33.875  14.071   8.222  0.00  0.00     0.108 C 
HETATM    4  C   UNK N   1      33.489  15.527   8.673  0.00  0.00     0.061 C 
HETATM    5  C   UNK N   1      33.625  15.502  10.203  0.00  0.00     0.140 C 
ENDROOT
BRANCH   4   6
HETATM    6  C   UNK N   1      32.280  16.318   8.016  0.00  0.00     0.095 C 
BRANCH   6   7
HETATM    7  C   UNK N   1      32.695  17.334   6.918  0.00  0.00     0.008 C 
BRANCH   7   8
HETATM    8  C   UNK N   1      32.270  16.826   5.532  0.00  0.00     0.002 C 
HETATM    9  C   UNK N   1      32.904  17.619   4.404  0.00  0.00     0.005 C 
ENDBRANCH   7   8
BRANCH   7  10
HETATM   10  C   UNK N   1      34.186  17.644   6.915  0.00  0.00     0.002 C 
HETATM   11  C   UNK N   1      34.522  18.593   8.055  0.00  0.00     0.005 C 
ENDBRANCH   7  10
ENDBRANCH   6   7
BRANCH   6  12
HETATM   12  N   UNK N   1      31.514  17.055   9.011  0.00  0.00    -0.369 N 
HETATM   13  C   UNK N   1      30.256  17.338   8.884  0.00  0.00     0.107 C 
HETATM   14  C   UNK N   1      29.555  18.079   9.967  0.00  0.00     0.097 C 
ATOM     15  HN  UNK N   1      31.994  17.366   9.856  1.00  0.00     0.161 HD
BRANCH  13  16
HETATM   16  O   UNK N   1      29.566  16.990   7.776  0.00  0.00    -0.350 OA
HETATM   17  H   UNK N   1      28.999  16.443   7.270  0.00  0.00     0.219 HD
ENDBRANCH  13  16
ENDBRANCH   6  12
ENDBRANCH   4   6
BRANCH   3  18
HETATM   18  N   UNK N   1      32.814  13.313   7.588  0.00  0.00    -0.222 N 
HETATM   19  C   UNK N   1      32.751  13.096   6.181  0.00  0.00     0.665 C 
HETATM   20  N   UNK N   1      33.697  13.489   5.412  0.00  0.00    -0.235 N 
HETATM   21  N   UNK N   1      31.586  12.529   5.617  0.00  0.00    -0.235 N 
HETATM   22  H   UNK N   1      33.560  13.848   4.506  0.00  0.00     0.174 HD
ATOM     23  HN  UNK N   1      34.653  13.425   5.760  1.00  0.00     0.174 HD
HETATM   24  H   UNK N   1      30.828  12.126   6.099  0.00  0.00     0.174 HD
HETATM   25  H   UNK N   1      31.526  12.537   4.634  0.00  0.00     0.174 HD
HETATM   26  H   UNK N   1      32.106  12.931   8.155  0.00  0.00     0.178 HD
ENDBRANCH   3  18
BRANCH   5  27
HETATM   27  O   UNK N   1      32.438  15.045  10.787  0.00  0.00    -0.394 OA
HETATM   28  H   UNK N   1      31.605  14.611  11.030  0.00  0.00     0.210 HD
ENDBRANCH   5  27
BRANCH   2  29
HETATM   29  C   UNK N   1      35.001  14.088  11.844  0.00  0.00     0.146 C 
HETATM   30  O   UNK N   1      35.866  14.637  12.509  0.00  0.00    -0.650 OA
BRANCH  29  31
HETATM   31  O   UNK N   1      34.291  13.079  12.385  0.00  0.00    -0.776 OA
HETATM   32  H   UNK N   1      34.358  12.215  12.028  0.00  0.00     0.167 HD
ENDBRANCH  29  31
ENDBRANCH   2  29
TORSDOF 10
ENDMDL
MODEL 6
REMARK VINA RESULT:      -5.6      3.076      4.936
REMARK  10 active torsions:
REMARK  status: ('A' for Active; 'I' for Inactive)
REMARK    1  A    between atoms: C_8  and  C_4 
REMARK    2  A    between atoms: C_8  and  C_5 
REMARK    3  A    between atoms: O_22  and  C_7 
REMARK    4  A    between atoms: C_12  and  C_8 
REMARK    5  A    between atoms: C_9  and  C_14 
REMARK    6  A    between atoms: C_10  and  N_21 
REMARK    7  A    between atoms: C_11  and  C_12 
REMARK    8  A    between atoms: C_12  and  N_19 
REMARK    9  A    between atoms: C_13  and  O_23 
REMARK   10  A    between atoms: O_25  and  C_14 
REMARK       I    between atoms: N_18  and  C_15 
REMARK       I    between atoms: N_21  and  C_15 
ROOT
HETATM    1  C   UNK N   1      31.479  16.999   6.081  0.00  0.00     0.044 C 
HETATM    2  C   UNK N   1      31.197  16.408   4.720  0.00  0.00     0.114 C 
HETATM    3  C   UNK N   1      30.171  16.772   6.857  0.00  0.00     0.108 C 
HETATM    4  C   UNK N   1      29.058  16.644   5.754  0.00  0.00     0.061 C 
HETATM    5  C   UNK N   1      29.790  16.938   4.435  0.00  0.00     0.140 C 
ENDROOT
BRANCH   4   6
HETATM    6  C   UNK N   1      27.592  17.214   5.969  0.00  0.00     0.095 C 
BRANCH   6   7
HETATM    7  C   UNK N   1      26.498  16.518   5.115  0.00  0.00     0.008 C 
BRANCH   7   8
HETATM    8  C   UNK N   1      25.980  17.472   4.029  0.00  0.00     0.002 C 
HETATM    9  C   UNK N   1      24.471  17.633   4.070  0.00  0.00     0.005 C 
ENDBRANCH   7   8
BRANCH   7  10
HETATM   10  C   UNK N   1      25.328  15.997   5.941  0.00  0.00     0.002 C 
HETATM   11  C   UNK N   1      25.843  15.171   7.109  0.00  0.00     0.005 C 
ENDBRANCH   7  10
ENDBRANCH   6   7
BRANCH   6  12
HETATM   12  N   UNK N   1      27.520  18.639   5.677  0.00  0.00    -0.369 N 
HETATM   13  C   UNK N   1      27.449  19.556   6.588  0.00  0.00     0.107 C 
HETATM   14  C   UNK N   1      27.400  20.988   6.189  0.00  0.00     0.097 C 
ATOM     15  HN  UNK N   1      27.525  18.931   4.699  1.00  0.00     0.161 HD
BRANCH  13  16
HETATM   16  O   UNK N   1      27.401  19.240   7.901  0.00  0.00    -0.350 OA
HETATM   17  H   UNK N   1      26.974  19.107   8.724  0.00  0.00     0.219 HD
ENDBRANCH  13  16
ENDBRANCH   6  12
ENDBRANCH   4   6
BRANCH   3  18
HETATM   18  N   UNK N   1      29.978  17.839   7.818  0.00  0.00    -0.222 N 
HETATM   19  C   UNK N   1      30.212  17.678   9.214  0.00  0.00     0.665 C 
HETATM   20  N   UNK N   1      30.704  16.588   9.676  0.00  0.00    -0.235 N 
HETATM   21  N   UNK N   1      29.806  18.692  10.109  0.00  0.00    -0.235 N 
HETATM   22  H   UNK N   1      30.445  16.186  10.536  0.00  0.00     0.174 HD
ATOM     23  HN  UNK N   1      31.408  16.108   9.118  1.00  0.00     0.174 HD
HETATM   24  H   UNK N   1      29.485  19.594   9.879  0.00  0.00     0.174 HD
HETATM   25  H   UNK N   1      29.849  18.474  11.068  0.00  0.00     0.174 HD
HETATM   26  H   UNK N   1      29.670  18.715   7.491  0.00  0.00     0.178 HD
ENDBRANCH   3  18
BRANCH   5  27
HETATM   27  O   UNK N   1      29.820  18.317   4.195  0.00  0.00    -0.394 OA
HETATM   28  H   UNK N   1      29.973  19.274   4.178  0.00  0.00     0.210 HD
ENDBRANCH   5  27
BRANCH   2  29
HETATM   29  C   UNK N   1      32.232  16.731   3.671  0.00  0.00     0.146 C 
HETATM   30  O   UNK N   1      33.415  16.506   3.871  0.00  0.00    -0.650 OA
BRANCH  29  31
HETATM   31  O   UNK N   1      31.854  17.318   2.519  0.00  0.00    -0.776 OA
HETATM   32  H   UNK N   1      30.948  17.493   2.357  0.00  0.00     0.167 HD
ENDBRANCH  29  31
ENDBRANCH   2  29
TORSDOF 10
ENDMDL
MODEL 7
REMARK VINA RESULT:      -5.6      2.818      4.886
REMARK  10 active torsions:
REMARK  status: ('A' for Active; 'I' for Inactive)
REMARK    1  A    between atoms: C_8  and  C_4 
REMARK    2  A    between atoms: C_8  and  C_5 
REMARK    3  A    between atoms: O_22  and  C_7 
REMARK    4  A    between atoms: C_12  and  C_8 
REMARK    5  A    between atoms: C_9  and  C_14 
REMARK    6  A    between atoms: C_10  and  N_21 
REMARK    7  A    between atoms: C_11  and  C_12 
REMARK    8  A    between atoms: C_12  and  N_19 
REMARK    9  A    between atoms: C_13  and  O_23 
REMARK   10  A    between atoms: O_25  and  C_14 
REMARK       I    between atoms: N_18  and  C_15 
REMARK       I    between atoms: N_21  and  C_15 
ROOT
HETATM    1  C   UNK N   1      31.817  17.540   7.797  0.00  0.00     0.044 C 
HETATM    2  C   UNK N   1      32.469  16.547   6.863  0.00  0.00     0.114 C 
HETATM    3  C   UNK N   1      30.341  17.110   7.816  0.00  0.00     0.108 C 
HETATM    4  C   UNK N   1      30.124  16.332   6.466  0.00  0.00     0.061 C 
HETATM    5  C   UNK N   1      31.457  16.487   5.717  0.00  0.00     0.140 C 
ENDROOT
BRANCH   4   6
HETATM    6  C   UNK N   1      28.764  16.421   5.654  0.00  0.00     0.095 C 
BRANCH   6   7
HETATM    7  C   UNK N   1      28.534  15.258   4.651  0.00  0.00     0.008 C 
BRANCH   7   8
HETATM    8  C   UNK N   1      28.734  15.747   3.209  0.00  0.00     0.002 C 
HETATM    9  C   UNK N   1      27.622  15.290   2.283  0.00  0.00     0.005 C 
ENDBRANCH   7   8
BRANCH   7  10
HETATM   10  C   UNK N   1      27.164  14.606   4.787  0.00  0.00     0.002 C 
HETATM   11  C   UNK N   1      26.602  14.861   6.177  0.00  0.00     0.005 C 
ENDBRANCH   7  10
ENDBRANCH   6   7
BRANCH   6  12
HETATM   12  N   UNK N   1      28.669  17.662   4.896  0.00  0.00    -0.369 N 
HETATM   13  C   UNK N   1      27.669  18.480   4.981  0.00  0.00     0.107 C 
HETATM   14  C   UNK N   1      27.675  19.735   4.181  0.00  0.00     0.097 C 
ATOM     15  HN  UNK N   1      29.433  17.899   4.263  1.00  0.00     0.161 HD
BRANCH  13  16
HETATM   16  O   UNK N   1      26.607  18.212   5.771  0.00  0.00    -0.350 OA
HETATM   17  H   UNK N   1      26.013  18.379   6.476  0.00  0.00     0.219 HD
ENDBRANCH  13  16
ENDBRANCH   6  12
ENDBRANCH   4   6
BRANCH   3  18
HETATM   18  N   UNK N   1      29.493  18.269   8.010  0.00  0.00    -0.222 N 
HETATM   19  C   UNK N   1      28.215  18.199   8.637  0.00  0.00     0.665 C 
HETATM   20  N   UNK N   1      27.794  17.103   9.149  0.00  0.00    -0.235 N 
HETATM   21  N   UNK N   1      27.363  19.325   8.604  0.00  0.00    -0.235 N 
HETATM   22  H   UNK N   1      26.855  16.807   9.126  0.00  0.00     0.174 HD
ATOM     23  HN  UNK N   1      28.473  16.500   9.611  1.00  0.00     0.174 HD
HETATM   24  H   UNK N   1      27.591  20.236   8.307  0.00  0.00     0.174 HD
HETATM   25  H   UNK N   1      26.439  19.184   8.914  0.00  0.00     0.174 HD
HETATM   26  H   UNK N   1      29.814  19.144   7.694  0.00  0.00     0.178 HD
ENDBRANCH   3  18
BRANCH   5  27
HETATM   27  O   UNK N   1      31.465  17.681   4.986  0.00  0.00    -0.394 OA
HETATM   28  H   UNK N   1      31.667  18.506   4.519  0.00  0.00     0.210 HD
ENDBRANCH   5  27
BRANCH   2  29
HETATM   29  C   UNK N   1      33.878  16.902   6.460  0.00  0.00     0.146 C 
HETATM   30  O   UNK N   1      34.157  18.031   6.090  0.00  0.00    -0.650 OA
BRANCH  29  31
HETATM   31  O   UNK N   1      34.832  15.951   6.464  0.00  0.00    -0.776 OA
HETATM   32  H   UNK N   1      35.200  15.659   7.275  0.00  0.00     0.167 HD
ENDBRANCH  29  31
ENDBRANCH   2  29
TORSDOF 10
ENDMDL
MODEL 8
REMARK VINA RESULT:      -5.5      5.251      7.827
REMARK  10 active torsions:
REMARK  status: ('A' for Active; 'I' for Inactive)
REMARK    1  A    between atoms: C_8  and  C_4 
REMARK    2  A    between atoms: C_8  and  C_5 
REMARK    3  A    between atoms: O_22  and  C_7 
REMARK    4  A    between atoms: C_12  and  C_8 
REMARK    5  A    between atoms: C_9  and  C_14 
REMARK    6  A    between atoms: C_10  and  N_21 
REMARK    7  A    between atoms: C_11  and  C_12 
REMARK    8  A    between atoms: C_12  and  N_19 
REMARK    9  A    between atoms: C_13  and  O_23 
REMARK   10  A    between atoms: O_25  and  C_14 
REMARK       I    between atoms: N_18  and  C_15 
REMARK       I    between atoms: N_21  and  C_15 
ROOT
HETATM    1  C   UNK N   1      23.115  18.174   3.821  0.00  0.00     0.044 C 
HETATM    2  C   UNK N   1      24.050  17.730   4.922  0.00  0.00     0.114 C 
HETATM    3  C   UNK N   1      21.787  18.435   4.551  0.00  0.00     0.108 C 
HETATM    4  C   UNK N   1      21.859  17.559   5.856  0.00  0.00     0.061 C 
HETATM    5  C   UNK N   1      23.165  16.763   5.710  0.00  0.00     0.140 C 
ENDROOT
BRANCH   4   6
HETATM    6  C   UNK N   1      20.578  16.841   6.458  0.00  0.00     0.095 C 
BRANCH   6   7
HETATM    7  C   UNK N   1      20.635  16.599   7.990  0.00  0.00     0.008 C 
BRANCH   7   8
HETATM    8  C   UNK N   1      21.098  15.166   8.289  0.00  0.00     0.002 C 
HETATM    9  C   UNK N   1      20.282  14.510   9.388  0.00  0.00     0.005 C 
ENDBRANCH   7   8
BRANCH   7  10
HETATM   10  C   UNK N   1      19.311  16.868   8.694  0.00  0.00     0.002 C 
HETATM   11  C   UNK N   1      19.334  18.245   9.339  0.00  0.00     0.005 C 
ENDBRANCH   7  10
ENDBRANCH   6   7
BRANCH   6  12
HETATM   12  N   UNK N   1      20.340  15.549   5.831  0.00  0.00    -0.369 N 
HETATM   13  C   UNK N   1      19.410  15.336   4.955  0.00  0.00     0.107 C 
HETATM   14  C   UNK N   1      19.259  13.984   4.354  0.00  0.00     0.097 C 
ATOM     15  HN  UNK N   1      20.939  14.767   6.096  1.00  0.00     0.161 HD
BRANCH  13  16
HETATM   16  O   UNK N   1      18.557  16.316   4.583  0.00  0.00    -0.350 OA
HETATM   17  H   UNK N   1      17.750  16.792   4.612  0.00  0.00     0.219 HD
ENDBRANCH  13  16
ENDBRANCH   6  12
ENDBRANCH   4   6
BRANCH   3  18
HETATM   18  N   UNK N   1      20.675  18.147   3.668  0.00  0.00    -0.222 N 
HETATM   19  C   UNK N   1      19.912  19.165   3.025  0.00  0.00     0.665 C 
HETATM   20  N   UNK N   1      20.243  20.399   3.129  0.00  0.00    -0.235 N 
HETATM   21  N   UNK N   1      18.722  18.818   2.348  0.00  0.00    -0.235 N 
HETATM   22  H   UNK N   1      19.599  21.140   3.192  0.00  0.00     0.174 HD
ATOM     23  HN  UNK N   1      21.237  20.627   3.146  1.00  0.00     0.174 HD
HETATM   24  H   UNK N   1      18.400  17.912   2.139  0.00  0.00     0.174 HD
HETATM   25  H   UNK N   1      18.153  19.566   2.052  0.00  0.00     0.174 HD
HETATM   26  H   UNK N   1      20.436  17.207   3.505  0.00  0.00     0.178 HD
ENDBRANCH   3  18
BRANCH   5  27
HETATM   27  O   UNK N   1      22.939  15.591   4.979  0.00  0.00    -0.394 OA
HETATM   28  H   UNK N   1      22.616  14.767   4.582  0.00  0.00     0.210 HD
ENDBRANCH   5  27
BRANCH   2  29
HETATM   29  C   UNK N   1      25.359  17.158   4.437  0.00  0.00     0.146 C 
HETATM   30  O   UNK N   1      25.666  16.003   4.685  0.00  0.00    -0.650 OA
BRANCH  29  31
HETATM   31  O   UNK N   1      26.220  17.943   3.761  0.00  0.00    -0.776 OA
HETATM   32  H   UNK N   1      26.211  17.952   2.824  0.00  0.00     0.167 HD
ENDBRANCH  29  31
ENDBRANCH   2  29
TORSDOF 10
ENDMDL
MODEL 9
REMARK VINA RESULT:      -5.4      9.420     12.163
REMARK  10 active torsions:
REMARK  status: ('A' for Active; 'I' for Inactive)
REMARK    1  A    between atoms: C_8  and  C_4 
REMARK    2  A    between atoms: C_8  and  C_5 
REMARK    3  A    between atoms: O_22  and  C_7 
REMARK    4  A    between atoms: C_12  and  C_8 
REMARK    5  A    between atoms: C_9  and  C_14 
REMARK    6  A    between atoms: C_10  and  N_21 
REMARK    7  A    between atoms: C_11  and  C_12 
REMARK    8  A    between atoms: C_12  and  N_19 
REMARK    9  A    between atoms: C_13  and  O_23 
REMARK   10  A    between atoms: O_25  and  C_14 
REMARK       I    between atoms: N_18  and  C_15 
REMARK       I    between atoms: N_21  and  C_15 
ROOT
HETATM    1  C   UNK N   1      35.790  15.461  12.376  0.00  0.00     0.044 C 
HETATM    2  C   UNK N   1      35.694  15.436  10.868  0.00  0.00     0.114 C 
HETATM    3  C   UNK N   1      36.071  13.996  12.748  0.00  0.00     0.108 C 
HETATM    4  C   UNK N   1      35.515  13.153  11.542  0.00  0.00     0.061 C 
HETATM    5  C   UNK N   1      34.841  14.189  10.630  0.00  0.00     0.140 C 
ENDROOT
BRANCH   4   6
HETATM    6  C   UNK N   1      34.824  11.740  11.753  0.00  0.00     0.095 C 
BRANCH   6   7
HETATM    7  C   UNK N   1      35.389  10.917  12.941  0.00  0.00     0.008 C 
BRANCH   7   8
HETATM    8  C   UNK N   1      36.617  10.109  12.497  0.00  0.00     0.002 C 
HETATM    9  C   UNK N   1      37.835  10.383  13.359  0.00  0.00     0.005 C 
ENDBRANCH   7   8
BRANCH   7  10
HETATM   10  C   UNK N   1      34.362   9.984  13.572  0.00  0.00     0.002 C 
HETATM   11  C   UNK N   1      33.584  10.721  14.651  0.00  0.00     0.005 C 
ENDBRANCH   7  10
ENDBRANCH   6   7
BRANCH   6  12
HETATM   12  N   UNK N   1      34.932  10.905  10.565  0.00  0.00    -0.369 N 
HETATM   13  C   UNK N   1      33.936  10.635   9.783  0.00  0.00     0.107 C 
HETATM   14  C   UNK N   1      34.152   9.788   8.580  0.00  0.00     0.097 C 
ATOM     15  HN  UNK N   1      35.844  10.509  10.336  1.00  0.00     0.161 HD
BRANCH  13  16
HETATM   16  O   UNK N   1      32.693  11.095  10.045  0.00  0.00    -0.350 OA
HETATM   17  H   UNK N   1      31.844  11.062  10.442  0.00  0.00     0.219 HD
ENDBRANCH  13  16
ENDBRANCH   6  12
ENDBRANCH   4   6
BRANCH   3  18
HETATM   18  N   UNK N   1      35.487  13.696  14.040  0.00  0.00    -0.222 N 
HETATM   19  C   UNK N   1      36.240  13.694  15.250  0.00  0.00     0.665 C 
HETATM   20  N   UNK N   1      37.469  14.056  15.260  0.00  0.00    -0.235 N 
HETATM   21  N   UNK N   1      35.653  13.193  16.433  0.00  0.00    -0.235 N 
HETATM   22  H   UNK N   1      38.162  13.643  15.824  0.00  0.00     0.174 HD
ATOM     23  HN  UNK N   1      37.747  14.820  14.644  1.00  0.00     0.174 HD
HETATM   24  H   UNK N   1      34.709  12.954  16.573  0.00  0.00     0.174 HD
HETATM   25  H   UNK N   1      36.255  13.071  17.203  0.00  0.00     0.174 HD
HETATM   26  H   UNK N   1      34.527  13.485  14.084  0.00  0.00     0.178 HD
ENDBRANCH   3  18
BRANCH   5  27
HETATM   27  O   UNK N   1      33.520  14.408  11.040  0.00  0.00    -0.394 OA
HETATM   28  H   UNK N   1      32.607  14.363  11.363  0.00  0.00     0.210 HD
ENDBRANCH   5  27
BRANCH   2  29
HETATM   29  C   UNK N   1      35.163  16.708  10.255  0.00  0.00     0.146 C 
HETATM   30  O   UNK N   1      35.814  17.740  10.294  0.00  0.00    -0.650 OA
BRANCH  29  31
HETATM   31  O   UNK N   1      33.937  16.719   9.698  0.00  0.00    -0.776 OA
HETATM   32  H   UNK N   1      33.689  17.417   9.124  0.00  0.00     0.167 HD
ENDBRANCH  29  31
ENDBRANCH   2  29
TORSDOF 10
ENDMDL
