REMARK  18 active torsions:
REMARK  status: ('A' for Active; 'I' for Inactive)
REMARK    1  A    between atoms: C_2  and  C_3 
REMARK    2  A    between atoms: C_3  and  C_4 
REMARK    3  A    between atoms: C_4  and  C_5 
REMARK    4  A    between atoms: C_5  and  C_6 
REMARK    5  A    between atoms: C_6  and  C_7 
REMARK    6  A    between atoms: C_7  and  C_8 
REMARK    7  A    between atoms: C_8  and  C_10 
REMARK    8  A    between atoms: C_10  and  C_11 
REMARK    9  A    between atoms: C_12  and  C_11 
REMARK   10  A    between atoms: C_13  and  O_14 
REMARK   11  A    between atoms: C_16  and  O_17 
REMARK   12  A    between atoms: C_18  and  C_19 
REMARK   13  A    between atoms: C_19  and  C_20 
REMARK   14  A    between atoms: C_21  and  C_22 
REMARK   15  A    between atoms: C_22  and  C_23 
REMARK   16  A    between atoms: C_23  and  C_24 
REMARK   17  A    between atoms: C_24  and  C_25 
REMARK   18  A    between atoms: C_25  and  O_27 
ROOT
HETATM    1  C   UNK N   1       4.536  -3.737   0.309  0.00  0.00     0.022 C 
HETATM    2  C   UNK N   1       4.712  -2.334  -0.223  0.00  0.00     0.125 C 
HETATM    3  C   UNK N   1       6.192  -2.033  -0.011  0.00  0.00     0.064 C 
HETATM    4  C   UNK N   1       6.840  -3.395   0.215  0.00  0.00     0.125 C 
HETATM    5  C   UNK N   1       5.791  -4.389  -0.230  0.00  0.00     0.024 C 
ENDROOT
BRANCH   1   6
HETATM    6  C   UNK N   1       3.241  -4.365  -0.176  0.00  0.00     0.015 C 
BRANCH   6   7
HETATM    7  C   UNK N   1       2.809  -5.448   0.799  0.00  0.00     0.079 C 
BRANCH   7   8
HETATM    8  C   UNK N   1       1.787  -6.332   0.172  0.00  0.00     0.127 C 
HETATM    9  O   UNK N   1       2.035  -7.518   0.015  0.00  0.00    -0.298 OA
BRANCH   8  10
HETATM   10  C   UNK N   1       0.469  -5.753  -0.255  0.00  0.00     0.078 C 
BRANCH  10  11
HETATM   11  C   UNK N   1      -0.467  -6.768  -0.894  0.00  0.00     0.007 C 
BRANCH  11  12
HETATM   12  C   UNK N   1      -1.091  -7.651   0.172  0.00  0.00     0.000 C 
BRANCH  12  13
HETATM   13  C   UNK N   1      -2.582  -7.802  -0.078  0.00  0.00     0.000 C 
BRANCH  13  14
HETATM   14  C   UNK N   1      -3.361  -6.646   0.536  0.00  0.00    -0.000 C 
BRANCH  14  15
HETATM   15  C   UNK N   1      -3.339  -5.427  -0.370  0.00  0.00    -0.005 C 
HETATM   16  C   UNK N   1      -2.526  -4.322   0.275  0.00  0.00     0.005 C 
ENDBRANCH  14  15
ENDBRANCH  13  14
ENDBRANCH  12  13
ENDBRANCH  11  12
ENDBRANCH  10  11
ENDBRANCH   8  10
ENDBRANCH   7   8
ENDBRANCH   6   7
ENDBRANCH   1   6
BRANCH   2  17
HETATM   17  O   UNK N   1       3.908  -1.428   0.467  0.00  0.00    -0.395 OA
HETATM   18  H   UNK N   1       4.174  -0.628   0.946  0.00  0.00     0.210 HD
ENDBRANCH   2  17
BRANCH   5  19
HETATM   19  C   UNK N   1       6.078  -5.798   0.271  0.00  0.00     0.034 C 
BRANCH  19  20
HETATM   20  C   UNK N   1       5.237  -6.788  -0.480  0.00  0.00    -0.030 C 
HETATM   21  C   UNK N   1       5.453  -8.108  -0.443  0.00  0.00    -0.031 C 
BRANCH  21  22
HETATM   22  C   UNK N   1       6.589  -8.722   0.311  0.00  0.00     0.027 C 
BRANCH  22  23
HETATM   23  C   UNK N   1       7.907  -8.349  -0.348  0.00  0.00     0.014 C 
BRANCH  23  24
HETATM   24  C   UNK N   1       9.064  -8.823   0.509  0.00  0.00     0.110 C 
BRANCH  24  25
HETATM   25  C   UNK N   1       9.495 -10.197   0.113  0.00  0.00     0.139 C 
HETATM   26  O   UNK N   1       8.715 -11.133   0.181  0.00  0.00    -0.650 OA
BRANCH  25  27
HETATM   27  O   UNK N   1      10.759 -10.405  -0.301  0.00  0.00    -0.776 OA
HETATM   28  H   UNK N   1      11.073 -11.240  -0.589  0.00  0.00     0.167 HD
ENDBRANCH  25  27
ENDBRANCH  24  25
ENDBRANCH  23  24
ENDBRANCH  22  23
ENDBRANCH  21  22
ENDBRANCH  19  20
ENDBRANCH   5  19
BRANCH   4  29
HETATM   29  O   UNK N   1       8.007  -3.526  -0.537  0.00  0.00    -0.395 OA
HETATM   30  H   UNK N   1       8.334  -4.274  -1.061  0.00  0.00     0.210 HD
ENDBRANCH   4  29
TORSDOF 18
