MODEL 1
REMARK VINA RESULT:      -8.0      0.000      0.000
REMARK  1 active torsions:
REMARK  status: ('A' for Active; 'I' for Inactive)
REMARK    1  A    between atoms: C_18  and  O_22 
ROOT
HETATM    1  C   UNK N   1      29.171  24.566  -5.190  0.00  0.00    -0.001 C 
HETATM    2  C   UNK N   1      28.922  23.049  -5.437  0.00  0.00    -0.005 C 
HETATM    3  C   UNK N   1      27.890  25.460  -5.411  0.00  0.00    -0.032 C 
HETATM    4  C   UNK N   1      29.878  24.822  -3.836  0.00  0.00     0.007 C 
HETATM    5  C   UNK N   1      30.281  22.330  -5.320  0.00  0.00     0.001 C 
HETATM    6  C   UNK N   1      28.358  22.840  -6.858  0.00  0.00     0.006 C 
HETATM    7  C   UNK N   1      26.743  24.653  -6.088  0.00  0.00     0.002 C 
HETATM    8  C   UNK N   1      27.298  26.012  -4.099  0.00  0.00     0.054 C 
HETATM    9  C   UNK N   1      31.180  24.012  -3.693  0.00  0.00     0.013 C 
HETATM   10  C   UNK N   1      30.924  22.521  -3.947  0.00  0.00    -0.009 C 
HETATM   11  C   UNK N   1      30.332  20.821  -5.519  0.00  0.00     0.009 C 
HETATM   12  C   UNK N   1      27.255  23.833  -7.267  0.00  0.00     0.006 C 
HETATM   13  C   UNK N   1      25.574  25.542  -6.530  0.00  0.00     0.089 C 
HETATM   14  C   UNK N   1      26.077  26.871  -4.344  0.00  0.00     0.010 C 
HETATM   15  C   UNK N   1      32.179  21.650  -4.114  0.00  0.00     0.062 C 
HETATM   16  C   UNK N   1      31.625  20.389  -4.795  0.00  0.00     0.038 C 
HETATM   17  C   UNK N   1      25.213  26.611  -5.529  0.00  0.00     0.157 C 
HETATM   18  C   UNK N   1      25.803  27.899  -3.530  0.00  0.00     0.142 C 
HETATM   19  C   UNK N   1      32.897  21.330  -2.812  0.00  0.00     0.046 C 
HETATM   20  O   UNK N   1      33.092  22.261  -4.982  0.00  0.00    -0.389 OA
HETATM   21  O   UNK N   1      24.236  27.311  -5.743  0.00  0.00    -0.293 OA
HETATM   22  C   UNK N   1      30.023  21.967  -2.824  0.00  0.00     0.018 C 
HETATM   23  C   UNK N   1      28.316  26.658  -6.273  0.00  0.00     0.016 C 
HETATM   24  H   UNK N   1      33.650  22.607  -5.697  0.00  0.00     0.210 HD
ENDROOT
BRANCH  18  25
HETATM   25  O   UNK N   1      26.590  28.183  -2.473  0.00  0.00    -0.372 OA
HETATM   26  H   UNK N   1      27.332  28.748  -2.569  0.00  0.00     0.216 HD
ENDBRANCH  18  25
TORSDOF 1
ENDMDL
MODEL 2
REMARK VINA RESULT:      -7.7     12.885     16.866
REMARK  1 active torsions:
REMARK  status: ('A' for Active; 'I' for Inactive)
REMARK    1  A    between atoms: C_18  and  O_22 
ROOT
HETATM    1  C   UNK N   1      33.574  15.039   7.767  0.00  0.00    -0.001 C 
HETATM    2  C   UNK N   1      34.464  16.084   8.502  0.00  0.00    -0.005 C 
HETATM    3  C   UNK N   1      33.164  15.475   6.308  0.00  0.00    -0.032 C 
HETATM    4  C   UNK N   1      34.174  13.614   7.842  0.00  0.00     0.007 C 
HETATM    5  C   UNK N   1      34.665  15.588   9.948  0.00  0.00     0.001 C 
HETATM    6  C   UNK N   1      33.747  17.450   8.529  0.00  0.00     0.006 C 
HETATM    7  C   UNK N   1      33.519  16.967   6.038  0.00  0.00     0.002 C 
HETATM    8  C   UNK N   1      33.880  14.667   5.207  0.00  0.00     0.054 C 
HETATM    9  C   UNK N   1      34.468  13.178   9.290  0.00  0.00     0.013 C 
HETATM   10  C   UNK N   1      35.339  14.218  10.005  0.00  0.00    -0.009 C 
HETATM   11  C   UNK N   1      35.506  16.428  10.901  0.00  0.00     0.009 C 
HETATM   12  C   UNK N   1      33.093  17.862   7.197  0.00  0.00     0.006 C 
HETATM   13  C   UNK N   1      32.926  17.488   4.723  0.00  0.00     0.089 C 
HETATM   14  C   UNK N   1      33.461  15.101   3.820  0.00  0.00     0.010 C 
HETATM   15  C   UNK N   1      35.467  14.045  11.527  0.00  0.00     0.062 C 
HETATM   16  C   UNK N   1      35.963  15.426  11.983  0.00  0.00     0.038 C 
HETATM   17  C   UNK N   1      33.022  16.506   3.583  0.00  0.00     0.157 C 
HETATM   18  C   UNK N   1      33.429  14.213   2.817  0.00  0.00     0.142 C 
HETATM   19  C   UNK N   1      36.407  12.928  11.953  0.00  0.00     0.046 C 
HETATM   20  O   UNK N   1      34.213  13.809  12.104  0.00  0.00    -0.389 OA
HETATM   21  O   UNK N   1      32.666  16.858   2.470  0.00  0.00    -0.293 OA
HETATM   22  C   UNK N   1      36.732  14.250   9.344  0.00  0.00     0.018 C 
HETATM   23  C   UNK N   1      31.655  15.224   6.166  0.00  0.00     0.016 C 
HETATM   24  H   UNK N   1      33.335  13.800  12.518  0.00  0.00     0.210 HD
ENDROOT
BRANCH  18  25
HETATM   25  O   UNK N   1      33.780  12.926   3.011  0.00  0.00    -0.372 OA
HETATM   26  H   UNK N   1      34.536  12.569   2.588  0.00  0.00     0.216 HD
ENDBRANCH  18  25
TORSDOF 1
ENDMDL
MODEL 3
REMARK VINA RESULT:      -7.4      1.728      3.162
REMARK  1 active torsions:
REMARK  status: ('A' for Active; 'I' for Inactive)
REMARK    1  A    between atoms: C_18  and  O_22 
ROOT
HETATM    1  C   UNK N   1      28.488  23.030  -5.318  0.00  0.00    -0.001 C 
HETATM    2  C   UNK N   1      29.322  23.410  -4.059  0.00  0.00    -0.005 C 
HETATM    3  C   UNK N   1      27.324  24.047  -5.634  0.00  0.00    -0.032 C 
HETATM    4  C   UNK N   1      29.390  22.723  -6.538  0.00  0.00     0.007 C 
HETATM    5  C   UNK N   1      30.320  22.264  -3.800  0.00  0.00     0.001 C 
HETATM    6  C   UNK N   1      28.387  23.555  -2.841  0.00  0.00     0.006 C 
HETATM    7  C   UNK N   1      27.109  25.048  -4.460  0.00  0.00     0.002 C 
HETATM    8  C   UNK N   1      27.594  24.913  -6.880  0.00  0.00     0.054 C 
HETATM    9  C   UNK N   1      30.451  21.651  -6.227  0.00  0.00     0.013 C 
HETATM   10  C   UNK N   1      31.260  22.032  -4.981  0.00  0.00    -0.009 C 
HETATM   11  C   UNK N   1      31.271  22.373  -2.615  0.00  0.00     0.009 C 
HETATM   12  C   UNK N   1      27.087  24.335  -3.113  0.00  0.00     0.006 C 
HETATM   13  C   UNK N   1      25.841  25.895  -4.630  0.00  0.00     0.089 C 
HETATM   14  C   UNK N   1      26.458  25.872  -7.163  0.00  0.00     0.010 C 
HETATM   15  C   UNK N   1      32.152  20.922  -4.401  0.00  0.00     0.062 C 
HETATM   16  C   UNK N   1      32.435  21.426  -2.978  0.00  0.00     0.038 C 
HETATM   17  C   UNK N   1      25.618  26.378  -6.041  0.00  0.00     0.157 C 
HETATM   18  C   UNK N   1      26.171  26.223  -8.424  0.00  0.00     0.142 C 
HETATM   19  C   UNK N   1      33.430  20.672  -5.186  0.00  0.00     0.046 C 
HETATM   20  O   UNK N   1      31.445  19.716  -4.315  0.00  0.00    -0.389 OA
HETATM   21  O   UNK N   1      24.689  27.138  -6.264  0.00  0.00    -0.293 OA
HETATM   22  C   UNK N   1      32.095  23.293  -5.289  0.00  0.00     0.018 C 
HETATM   23  C   UNK N   1      26.058  23.220  -5.904  0.00  0.00     0.016 C 
HETATM   24  H   UNK N   1      30.914  18.929  -4.113  0.00  0.00     0.210 HD
ENDROOT
BRANCH  18  25
HETATM   25  O   UNK N   1      26.888  25.749  -9.462  0.00  0.00    -0.372 OA
HETATM   26  H   UNK N   1      26.805  24.855  -9.731  0.00  0.00     0.216 HD
ENDBRANCH  18  25
TORSDOF 1
ENDMDL
MODEL 4
REMARK VINA RESULT:      -7.3     10.582     12.796
REMARK  1 active torsions:
REMARK  status: ('A' for Active; 'I' for Inactive)
REMARK    1  A    between atoms: C_18  and  O_22 
ROOT
HETATM    1  C   UNK N   1      29.706  16.852   5.373  0.00  0.00    -0.001 C 
HETATM    2  C   UNK N   1      31.058  16.944   6.138  0.00  0.00    -0.005 C 
HETATM    3  C   UNK N   1      28.626  17.887   5.874  0.00  0.00    -0.032 C 
HETATM    4  C   UNK N   1      29.908  16.864   3.837  0.00  0.00     0.007 C 
HETATM    5  C   UNK N   1      31.954  15.793   5.637  0.00  0.00     0.001 C 
HETATM    6  C   UNK N   1      30.812  16.774   7.651  0.00  0.00     0.006 C 
HETATM    7  C   UNK N   1      29.071  18.577   7.199  0.00  0.00     0.002 C 
HETATM    8  C   UNK N   1      28.365  19.029   4.873  0.00  0.00     0.054 C 
HETATM    9  C   UNK N   1      30.890  15.775   3.368  0.00  0.00     0.013 C 
HETATM   10  C   UNK N   1      32.215  15.870   4.134  0.00  0.00    -0.009 C 
HETATM   11  C   UNK N   1      33.351  15.642   6.225  0.00  0.00     0.009 C 
HETATM   12  C   UNK N   1      29.611  17.565   8.203  0.00  0.00     0.006 C 
HETATM   13  C   UNK N   1      27.951  19.409   7.837  0.00  0.00     0.089 C 
HETATM   14  C   UNK N   1      27.320  20.000   5.378  0.00  0.00     0.010 C 
HETATM   15  C   UNK N   1      33.168  14.676   3.965  0.00  0.00     0.062 C 
HETATM   16  C   UNK N   1      34.123  14.835   5.158  0.00  0.00     0.038 C 
HETATM   17  C   UNK N   1      27.145  20.206   6.843  0.00  0.00     0.157 C 
HETATM   18  C   UNK N   1      26.515  20.632   4.513  0.00  0.00     0.142 C 
HETATM   19  C   UNK N   1      33.909  14.649   2.637  0.00  0.00     0.046 C 
HETATM   20  O   UNK N   1      32.475  13.467   4.107  0.00  0.00    -0.389 OA
HETATM   21  O   UNK N   1      26.292  20.975   7.258  0.00  0.00    -0.293 OA
HETATM   22  C   UNK N   1      32.923  17.187   3.755  0.00  0.00     0.018 C 
HETATM   23  C   UNK N   1      27.310  17.116   6.059  0.00  0.00     0.016 C 
HETATM   24  H   UNK N   1      32.030  12.642   4.357  0.00  0.00     0.210 HD
ENDROOT
BRANCH  18  25
HETATM   25  O   UNK N   1      26.623  20.435   3.184  0.00  0.00    -0.372 OA
HETATM   26  H   UNK N   1      26.337  21.091   2.579  0.00  0.00     0.216 HD
ENDBRANCH  18  25
TORSDOF 1
ENDMDL
MODEL 5
REMARK VINA RESULT:      -7.3     23.635     27.550
REMARK  1 active torsions:
REMARK  status: ('A' for Active; 'I' for Inactive)
REMARK    1  A    between atoms: C_18  and  O_22 
ROOT
HETATM    1  C   UNK N   1      35.888  10.467  17.463  0.00  0.00    -0.001 C 
HETATM    2  C   UNK N   1      35.246  11.845  17.128  0.00  0.00    -0.005 C 
HETATM    3  C   UNK N   1      35.406   9.865  18.838  0.00  0.00    -0.032 C 
HETATM    4  C   UNK N   1      35.777   9.475  16.279  0.00  0.00     0.007 C 
HETATM    5  C   UNK N   1      35.911  12.366  15.838  0.00  0.00     0.001 C 
HETATM    6  C   UNK N   1      35.519  12.839  18.276  0.00  0.00     0.006 C 
HETATM    7  C   UNK N   1      34.607  10.912  19.670  0.00  0.00     0.002 C 
HETATM    8  C   UNK N   1      34.468   8.652  18.677  0.00  0.00     0.054 C 
HETATM    9  C   UNK N   1      36.350  10.055  14.973  0.00  0.00     0.013 C 
HETATM   10  C   UNK N   1      35.717  11.416  14.658  0.00  0.00    -0.009 C 
HETATM   11  C   UNK N   1      35.468  13.711  15.276  0.00  0.00     0.009 C 
HETATM   12  C   UNK N   1      35.309  12.265  19.690  0.00  0.00     0.006 C 
HETATM   13  C   UNK N   1      34.326  10.441  21.102  0.00  0.00     0.089 C 
HETATM   14  C   UNK N   1      34.029   8.091  20.012  0.00  0.00     0.010 C 
HETATM   15  C   UNK N   1      36.400  12.226  13.544  0.00  0.00     0.062 C 
HETATM   16  C   UNK N   1      35.867  13.646  13.785  0.00  0.00     0.038 C 
HETATM   17  C   UNK N   1      33.930   8.989  21.197  0.00  0.00     0.157 C 
HETATM   18  C   UNK N   1      33.784   6.781  20.144  0.00  0.00     0.142 C 
HETATM   19  C   UNK N   1      36.101  11.732  12.138  0.00  0.00     0.046 C 
HETATM   20  O   UNK N   1      37.789  12.234  13.722  0.00  0.00    -0.389 OA
HETATM   21  O   UNK N   1      33.594   8.540  22.281  0.00  0.00    -0.293 OA
HETATM   22  C   UNK N   1      34.221  11.213  14.342  0.00  0.00     0.018 C 
HETATM   23  C   UNK N   1      36.659   9.390  19.591  0.00  0.00     0.016 C 
HETATM   24  H   UNK N   1      38.727  12.369  13.930  0.00  0.00     0.210 HD
ENDROOT
BRANCH  18  25
HETATM   25  O   UNK N   1      33.905   5.938  19.099  0.00  0.00    -0.372 OA
HETATM   26  H   UNK N   1      33.235   5.889  18.445  0.00  0.00     0.216 HD
ENDBRANCH  18  25
TORSDOF 1
ENDMDL
MODEL 6
REMARK VINA RESULT:      -7.2     12.060     15.328
REMARK  1 active torsions:
REMARK  status: ('A' for Active; 'I' for Inactive)
REMARK    1  A    between atoms: C_18  and  O_22 
ROOT
HETATM    1  C   UNK N   1      32.455  15.086   5.454  0.00  0.00    -0.001 C 
HETATM    2  C   UNK N   1      31.463  16.097   4.809  0.00  0.00    -0.005 C 
HETATM    3  C   UNK N   1      33.355  15.719   6.584  0.00  0.00    -0.032 C 
HETATM    4  C   UNK N   1      31.748  13.778   5.886  0.00  0.00     0.007 C 
HETATM    5  C   UNK N   1      30.759  15.377   3.641  0.00  0.00     0.001 C 
HETATM    6  C   UNK N   1      32.241  17.312   4.261  0.00  0.00     0.006 C 
HETATM    7  C   UNK N   1      33.232  17.272   6.606  0.00  0.00     0.002 C 
HETATM    8  C   UNK N   1      32.975  15.247   8.001  0.00  0.00     0.054 C 
HETATM    9  C   UNK N   1      30.961  13.129   4.732  0.00  0.00     0.013 C 
HETATM   10  C   UNK N   1      29.993  14.137   4.099  0.00  0.00    -0.009 C 
HETATM   11  C   UNK N   1      29.724  16.141   2.824  0.00  0.00     0.009 C 
HETATM   12  C   UNK N   1      33.327  17.862   5.204  0.00  0.00     0.006 C 
HETATM   13  C   UNK N   1      34.264  17.934   7.529  0.00  0.00     0.089 C 
HETATM   14  C   UNK N   1      33.860  15.864   9.063  0.00  0.00     0.010 C 
HETATM   15  C   UNK N   1      29.360  13.705   2.767  0.00  0.00     0.062 C 
HETATM   16  C   UNK N   1      28.857  15.035   2.185  0.00  0.00     0.038 C 
HETATM   17  C   UNK N   1      34.466  17.206   8.834  0.00  0.00     0.157 C 
HETATM   18  C   UNK N   1      34.144  15.184  10.180  0.00  0.00     0.142 C 
HETATM   19  C   UNK N   1      28.243  12.682   2.908  0.00  0.00     0.046 C 
HETATM   20  O   UNK N   1      30.332  13.180   1.906  0.00  0.00    -0.389 OA
HETATM   21  O   UNK N   1      35.195  17.703   9.679  0.00  0.00    -0.293 OA
HETATM   22  C   UNK N   1      28.901  14.500   5.127  0.00  0.00     0.018 C 
HETATM   23  C   UNK N   1      34.801  15.276   6.315  0.00  0.00     0.016 C 
HETATM   24  H   UNK N   1      31.022  12.963   1.259  0.00  0.00     0.210 HD
ENDROOT
BRANCH  18  25
HETATM   25  O   UNK N   1      33.644  13.951  10.396  0.00  0.00    -0.372 OA
HETATM   26  H   UNK N   1      33.733  13.280   9.748  0.00  0.00     0.216 HD
ENDBRANCH  18  25
TORSDOF 1
ENDMDL
MODEL 7
REMARK VINA RESULT:      -7.2     22.833     26.751
REMARK  1 active torsions:
REMARK  status: ('A' for Active; 'I' for Inactive)
REMARK    1  A    between atoms: C_18  and  O_22 
ROOT
HETATM    1  C   UNK N   1      35.134  10.572  16.425  0.00  0.00    -0.001 C 
HETATM    2  C   UNK N   1      35.613  11.305  17.712  0.00  0.00    -0.005 C 
HETATM    3  C   UNK N   1      35.523  11.318  15.092  0.00  0.00    -0.032 C 
HETATM    4  C   UNK N   1      35.526   9.074  16.433  0.00  0.00     0.007 C 
HETATM    5  C   UNK N   1      35.045  10.537  18.923  0.00  0.00     0.001 C 
HETATM    6  C   UNK N   1      35.066  12.747  17.723  0.00  0.00     0.006 C 
HETATM    7  C   UNK N   1      36.061  12.752  15.378  0.00  0.00     0.002 C 
HETATM    8  C   UNK N   1      36.634  10.605  14.296  0.00  0.00     0.054 C 
HETATM    9  C   UNK N   1      35.042   8.348  17.703  0.00  0.00     0.013 C 
HETATM   10  C   UNK N   1      35.513   9.084  18.963  0.00  0.00    -0.009 C 
HETATM   11  C   UNK N   1      35.361  11.042  20.325  0.00  0.00     0.009 C 
HETATM   12  C   UNK N   1      35.179  13.491  16.379  0.00  0.00     0.006 C 
HETATM   13  C   UNK N   1      36.227  13.588  14.103  0.00  0.00     0.089 C 
HETATM   14  C   UNK N   1      36.980  11.339  13.019  0.00  0.00     0.010 C 
HETATM   15  C   UNK N   1      34.865   8.629  20.280  0.00  0.00     0.062 C 
HETATM   16  C   UNK N   1      35.161   9.803  21.225  0.00  0.00     0.038 C 
HETATM   17  C   UNK N   1      36.807  12.817  12.944  0.00  0.00     0.157 C 
HETATM   18  C   UNK N   1      37.388  10.658  11.940  0.00  0.00     0.142 C 
HETATM   19  C   UNK N   1      35.400   7.311  20.818  0.00  0.00     0.046 C 
HETATM   20  O   UNK N   1      33.477   8.513  20.133  0.00  0.00    -0.389 OA
HETATM   21  O   UNK N   1      37.067  13.414  11.911  0.00  0.00    -0.293 OA
HETATM   22  C   UNK N   1      37.050   8.992  19.054  0.00  0.00     0.018 C 
HETATM   23  C   UNK N   1      34.266  11.358  14.209  0.00  0.00     0.016 C 
HETATM   24  H   UNK N   1      32.511   8.583  20.075  0.00  0.00     0.210 HD
ENDROOT
BRANCH  18  25
HETATM   25  O   UNK N   1      37.515   9.316  11.966  0.00  0.00    -0.372 OA
HETATM   26  H   UNK N   1      38.227   8.913  12.422  0.00  0.00     0.216 HD
ENDBRANCH  18  25
TORSDOF 1
ENDMDL
MODEL 8
REMARK VINA RESULT:      -7.0     11.815     14.088
REMARK  1 active torsions:
REMARK  status: ('A' for Active; 'I' for Inactive)
REMARK    1  A    between atoms: C_18  and  O_22 
ROOT
HETATM    1  C   UNK N   1      29.053  15.660   5.225  0.00  0.00    -0.001 C 
HETATM    2  C   UNK N   1      28.488  16.266   3.907  0.00  0.00    -0.005 C 
HETATM    3  C   UNK N   1      30.534  16.102   5.538  0.00  0.00    -0.032 C 
HETATM    4  C   UNK N   1      28.082  15.860   6.415  0.00  0.00     0.007 C 
HETATM    5  C   UNK N   1      27.099  15.641   3.665  0.00  0.00     0.001 C 
HETATM    6  C   UNK N   1      29.418  15.906   2.729  0.00  0.00     0.006 C 
HETATM    7  C   UNK N   1      31.183  16.824   4.320  0.00  0.00     0.002 C 
HETATM    8  C   UNK N   1      30.639  17.089   6.717  0.00  0.00     0.054 C 
HETATM    9  C   UNK N   1      26.670  15.326   6.115  0.00  0.00     0.013 C 
HETATM   10  C   UNK N   1      26.128  15.923   4.810  0.00  0.00    -0.009 C 
HETATM   11  C   UNK N   1      26.311  16.060   2.431  0.00  0.00     0.009 C 
HETATM   12  C   UNK N   1      30.921  16.073   3.019  0.00  0.00     0.006 C 
HETATM   13  C   UNK N   1      32.688  17.057   4.502  0.00  0.00     0.089 C 
HETATM   14  C   UNK N   1      32.072  17.488   6.999  0.00  0.00     0.010 C 
HETATM   15  C   UNK N   1      24.857  15.261   4.253  0.00  0.00     0.062 C 
HETATM   16  C   UNK N   1      24.846  15.731   2.790  0.00  0.00     0.038 C 
HETATM   17  C   UNK N   1      33.069  17.500   5.892  0.00  0.00     0.157 C 
HETATM   18  C   UNK N   1      32.457  17.774   8.250  0.00  0.00     0.142 C 
HETATM   19  C   UNK N   1      23.581  15.641   4.987  0.00  0.00     0.046 C 
HETATM   20  O   UNK N   1      24.978  13.866   4.273  0.00  0.00    -0.389 OA
HETATM   21  O   UNK N   1      34.231  17.804   6.116  0.00  0.00    -0.293 OA
HETATM   22  C   UNK N   1      25.912  17.438   5.002  0.00  0.00     0.018 C 
HETATM   23  C   UNK N   1      31.315  14.834   5.918  0.00  0.00     0.016 C 
HETATM   24  H   UNK N   1      25.122  12.915   4.143  0.00  0.00     0.210 HD
ENDROOT
BRANCH  18  25
HETATM   25  O   UNK N   1      31.585  17.731   9.278  0.00  0.00    -0.372 OA
HETATM   26  H   UNK N   1      31.121  18.501   9.542  0.00  0.00     0.216 HD
ENDBRANCH  18  25
TORSDOF 1
ENDMDL
MODEL 9
REMARK VINA RESULT:      -7.0      1.681      7.030
REMARK  1 active torsions:
REMARK  status: ('A' for Active; 'I' for Inactive)
REMARK    1  A    between atoms: C_18  and  O_22 
ROOT
HETATM    1  C   UNK N   1      29.054  24.250  -5.741  0.00  0.00    -0.001 C 
HETATM    2  C   UNK N   1      28.565  24.688  -4.330  0.00  0.00    -0.005 C 
HETATM    3  C   UNK N   1      30.048  23.026  -5.713  0.00  0.00    -0.032 C 
HETATM    4  C   UNK N   1      27.876  24.067  -6.730  0.00  0.00     0.007 C 
HETATM    5  C   UNK N   1      27.720  25.966  -4.506  0.00  0.00     0.001 C 
HETATM    6  C   UNK N   1      29.780  25.003  -3.433  0.00  0.00     0.006 C 
HETATM    7  C   UNK N   1      30.523  22.712  -4.263  0.00  0.00     0.002 C 
HETATM    8  C   UNK N   1      29.424  21.721  -6.243  0.00  0.00     0.054 C 
HETATM    9  C   UNK N   1      26.981  25.318  -6.812  0.00  0.00     0.013 C 
HETATM   10  C   UNK N   1      26.513  25.744  -5.415  0.00  0.00    -0.009 C 
HETATM   11  C   UNK N   1      27.110  26.618  -3.272  0.00  0.00     0.009 C 
HETATM   12  C   UNK N   1      30.928  23.979  -3.519  0.00  0.00     0.006 C 
HETATM   13  C   UNK N   1      31.664  21.687  -4.222  0.00  0.00     0.089 C 
HETATM   14  C   UNK N   1      30.403  20.567  -6.211  0.00  0.00     0.010 C 
HETATM   15  C   UNK N   1      25.854  27.131  -5.329  0.00  0.00     0.062 C 
HETATM   16  C   UNK N   1      25.933  27.449  -3.829  0.00  0.00     0.038 C 
HETATM   17  C   UNK N   1      31.487  20.543  -5.188  0.00  0.00     0.157 C 
HETATM   18  C   UNK N   1      30.333  19.599  -7.134  0.00  0.00     0.142 C 
HETATM   19  C   UNK N   1      24.426  27.178  -5.851  0.00  0.00     0.046 C 
HETATM   20  O   UNK N   1      26.609  28.080  -6.028  0.00  0.00    -0.389 OA
HETATM   21  O   UNK N   1      32.291  19.625  -5.168  0.00  0.00    -0.293 OA
HETATM   22  C   UNK N   1      25.574  24.661  -4.847  0.00  0.00     0.018 C 
HETATM   23  C   UNK N   1      31.233  23.382  -6.624  0.00  0.00     0.016 C 
HETATM   24  H   UNK N   1      27.207  28.761  -6.376  0.00  0.00     0.210 HD
ENDROOT
BRANCH  18  25
HETATM   25  O   UNK N   1      29.389  19.616  -8.096  0.00  0.00    -0.372 OA
HETATM   26  H   UNK N   1      29.445  20.223  -8.808  0.00  0.00     0.216 HD
ENDBRANCH  18  25
TORSDOF 1
ENDMDL
