MODEL 1
REMARK VINA RESULT:      -8.0      0.000      0.000
REMARK  4 active torsions:
REMARK  status: ('A' for Active; 'I' for Inactive)
REMARK    1  A    between atoms: N_10  and  C_15 
REMARK    2  A    between atoms: C_15  and  C_16 
REMARK    3  A    between atoms: C_19  and  C_22 
REMARK    4  A    between atoms: C_22  and  N_23 
ROOT
HETATM    1  C   UNK N   1      26.784  16.951   3.715  0.00  0.00    -0.030 A 
HETATM    2  C   UNK N   1      26.739  18.333   3.924  0.00  0.00     0.009 A 
HETATM    3  C   UNK N   1      25.518  18.989   4.036  0.00  0.00     0.009 A 
HETATM    4  C   UNK N   1      24.321  18.273   3.945  0.00  0.00    -0.030 A 
HETATM    5  C   UNK N   1      24.355  16.882   3.775  0.00  0.00     0.009 A 
HETATM    6  C   UNK N   1      25.580  16.224   3.662  0.00  0.00     0.009 A 
ENDROOT
BRANCH   1   7
HETATM    7  C   UNK N   1      28.122  16.309   3.509  0.00  0.00     0.311 C 
BRANCH   7   8
HETATM    8  N   UNK N   1      29.182  16.851   4.353  0.00  0.00     0.094 N 
HETATM    9  C   UNK N   1      30.406  16.635   3.599  0.00  0.00     0.274 C 
HETATM   10  C   UNK N   1      31.494  17.586   4.066  0.00  0.00     0.049 C 
HETATM   11  C   UNK N   1      32.850  17.149   3.519  0.00  0.00     0.115 C 
HETATM   12  N   UNK N   1      33.265  15.880   4.106  0.00  0.00    -0.420 N 
HETATM   13  C   UNK N   1      33.705  16.140   5.469  0.00  0.00     0.133 C 
HETATM   14  H   UNK N   1      33.251  14.971   3.644  0.00  0.00     0.153 HD
HETATM   15  C   UNK N   1      32.879  15.303   6.425  0.00  0.00     0.133 C 
HETATM   16  N   UNK N   1      33.045  15.798   7.780  0.00  0.00    -0.420 N 
HETATM   17  C   UNK N   1      31.707  16.013   8.300  0.00  0.00     0.115 C 
HETATM   18  H   UNK N   1      33.926  15.963   8.268  0.00  0.00     0.153 HD
HETATM   19  C   UNK N   1      31.498  17.490   8.578  0.00  0.00     0.038 C 
HETATM   20  C   UNK N   1      30.025  17.839   8.456  0.00  0.00     0.115 C 
HETATM   21  N   UNK N   1      29.650  17.898   7.052  0.00  0.00    -0.419 N 
HETATM   22  C   UNK N   1      28.799  16.750   6.785  0.00  0.00     0.144 C 
HETATM   23  H   UNK N   1      29.930  18.613   6.380  0.00  0.00     0.153 HD
HETATM   24  C   UNK N   1      29.282  16.010   5.546  0.00  0.00     0.292 C 
ENDBRANCH   7   8
ENDBRANCH   1   7
BRANCH   4  25
HETATM   25  C   UNK N   1      23.027  19.023   3.935  0.00  0.00     0.311 C 
BRANCH  25  26
HETATM   26  N   UNK N   1      21.867  18.151   4.163  0.00  0.00     0.094 N 
HETATM   27  C   UNK N   1      21.477  18.359   5.549  0.00  0.00     0.274 C 
HETATM   28  C   UNK N   1      21.748  17.120   6.384  0.00  0.00     0.049 C 
HETATM   29  C   UNK N   1      20.600  16.131   6.280  0.00  0.00     0.115 C 
HETATM   30  N   UNK N   1      20.707  15.371   5.049  0.00  0.00    -0.420 N 
HETATM   31  C   UNK N   1      19.818  14.230   5.180  0.00  0.00     0.133 C 
HETATM   32  H   UNK N   1      21.294  15.594   4.245  0.00  0.00     0.153 HD
HETATM   33  C   UNK N   1      19.763  13.470   3.871  0.00  0.00     0.133 C 
HETATM   34  N   UNK N   1      18.988  14.226   2.901  0.00  0.00    -0.420 N 
HETATM   35  C   UNK N   1      19.339  13.735   1.577  0.00  0.00     0.115 C 
HETATM   36  H   UNK N   1      18.318  14.966   3.111  0.00  0.00     0.153 HD
HETATM   37  C   UNK N   1      20.529  14.503   1.018  0.00  0.00     0.038 C 
HETATM   38  C   UNK N   1      20.181  15.970   0.836  0.00  0.00     0.115 C 
HETATM   39  N   UNK N   1      20.971  16.776   1.749  0.00  0.00    -0.419 N 
HETATM   40  C   UNK N   1      20.052  17.421   2.674  0.00  0.00     0.144 C 
HETATM   41  H   UNK N   1      21.987  16.873   1.745  0.00  0.00     0.153 HD
HETATM   42  C   UNK N   1      20.730  18.600   3.359  0.00  0.00     0.292 C 
ENDBRANCH  25  26
ENDBRANCH   4  25
TORSDOF 4
ENDMDL
MODEL 2
REMARK VINA RESULT:      -7.9      1.814      3.178
REMARK  4 active torsions:
REMARK  status: ('A' for Active; 'I' for Inactive)
REMARK    1  A    between atoms: N_10  and  C_15 
REMARK    2  A    between atoms: C_15  and  C_16 
REMARK    3  A    between atoms: C_19  and  C_22 
REMARK    4  A    between atoms: C_22  and  N_23 
ROOT
HETATM    1  C   UNK N   1      26.707  19.330   4.404  0.00  0.00    -0.030 A 
HETATM    2  C   UNK N   1      25.943  18.192   4.680  0.00  0.00     0.009 A 
HETATM    3  C   UNK N   1      24.601  18.140   4.318  0.00  0.00     0.009 A 
HETATM    4  C   UNK N   1      24.003  19.224   3.670  0.00  0.00    -0.030 A 
HETATM    5  C   UNK N   1      24.770  20.354   3.353  0.00  0.00     0.009 A 
HETATM    6  C   UNK N   1      26.115  20.406   3.718  0.00  0.00     0.009 A 
ENDROOT
BRANCH   1   7
HETATM    7  C   UNK N   1      28.122  19.371   4.897  0.00  0.00     0.311 C 
BRANCH   7   8
HETATM    8  N   UNK N   1      28.589  18.115   5.478  0.00  0.00     0.094 N 
HETATM    9  C   UNK N   1      28.904  18.439   6.860  0.00  0.00     0.274 C 
HETATM   10  C   UNK N   1      28.888  17.186   7.717  0.00  0.00     0.049 C 
HETATM   11  C   UNK N   1      29.530  17.463   9.073  0.00  0.00     0.115 C 
HETATM   12  N   UNK N   1      30.957  17.731   8.931  0.00  0.00    -0.420 N 
HETATM   13  C   UNK N   1      31.627  16.464   8.679  0.00  0.00     0.133 C 
HETATM   14  H   UNK N   1      31.406  18.644   8.996  0.00  0.00     0.153 HD
HETATM   15  C   UNK N   1      32.376  16.551   7.365  0.00  0.00     0.133 C 
HETATM   16  N   UNK N   1      32.747  15.219   6.923  0.00  0.00    -0.420 N 
HETATM   17  C   UNK N   1      32.267  15.096   5.558  0.00  0.00     0.115 C 
HETATM   18  H   UNK N   1      33.245  14.510   7.463  0.00  0.00     0.153 HD
HETATM   19  C   UNK N   1      31.202  14.018   5.487  0.00  0.00     0.038 C 
HETATM   20  C   UNK N   1      30.244  14.308   4.344  0.00  0.00     0.115 C 
HETATM   21  N   UNK N   1      29.341  15.383   4.723  0.00  0.00    -0.419 N 
HETATM   22  C   UNK N   1      29.707  16.550   3.938  0.00  0.00     0.144 C 
HETATM   23  H   UNK N   1      28.590  15.328   5.411  0.00  0.00     0.153 HD
HETATM   24  C   UNK N   1      29.858  17.769   4.839  0.00  0.00     0.292 C 
ENDBRANCH   7   8
ENDBRANCH   1   7
BRANCH   4  25
HETATM   25  C   UNK N   1      22.529  19.191   3.414  0.00  0.00     0.311 C 
BRANCH  25  26
HETATM   26  N   UNK N   1      21.880  18.013   4.005  0.00  0.00     0.094 N 
HETATM   27  C   UNK N   1      20.965  18.524   5.013  0.00  0.00     0.274 C 
HETATM   28  C   UNK N   1      21.431  18.155   6.411  0.00  0.00     0.049 C 
HETATM   29  C   UNK N   1      20.965  16.761   6.791  0.00  0.00     0.115 C 
HETATM   30  N   UNK N   1      21.836  15.765   6.196  0.00  0.00    -0.420 N 
HETATM   31  C   UNK N   1      21.564  14.510   6.875  0.00  0.00     0.133 C 
HETATM   32  H   UNK N   1      22.511  15.916   5.447  0.00  0.00     0.153 HD
HETATM   33  C   UNK N   1      22.330  13.388   6.204  0.00  0.00     0.133 C 
HETATM   34  N   UNK N   1      21.713  13.071   4.926  0.00  0.00    -0.420 N 
HETATM   35  C   UNK N   1      22.699  12.365   4.123  0.00  0.00     0.115 C 
HETATM   36  H   UNK N   1      20.760  13.303   4.645  0.00  0.00     0.153 HD
HETATM   37  C   UNK N   1      23.538  13.346   3.317  0.00  0.00     0.038 C 
HETATM   38  C   UNK N   1      22.671  14.109   2.331  0.00  0.00     0.115 C 
HETATM   39  N   UNK N   1      22.630  15.512   2.699  0.00  0.00    -0.419 N 
HETATM   40  C   UNK N   1      21.256  15.837   3.046  0.00  0.00     0.144 C 
HETATM   41  H   UNK N   1      23.422  16.156   2.712  0.00  0.00     0.153 HD
HETATM   42  C   UNK N   1      21.041  17.344   3.010  0.00  0.00     0.292 C 
ENDBRANCH  25  26
ENDBRANCH   4  25
TORSDOF 4
ENDMDL
MODEL 3
REMARK VINA RESULT:      -7.8      5.600     10.080
REMARK  4 active torsions:
REMARK  status: ('A' for Active; 'I' for Inactive)
REMARK    1  A    between atoms: N_10  and  C_15 
REMARK    2  A    between atoms: C_15  and  C_16 
REMARK    3  A    between atoms: C_19  and  C_22 
REMARK    4  A    between atoms: C_22  and  N_23 
ROOT
HETATM    1  C   UNK N   1      34.565  15.868   9.612  0.00  0.00    -0.030 A 
HETATM    2  C   UNK N   1      33.375  15.135   9.572  0.00  0.00     0.009 A 
HETATM    3  C   UNK N   1      32.232  15.678   8.995  0.00  0.00     0.009 A 
HETATM    4  C   UNK N   1      32.262  16.963   8.446  0.00  0.00    -0.030 A 
HETATM    5  C   UNK N   1      33.459  17.691   8.446  0.00  0.00     0.009 A 
HETATM    6  C   UNK N   1      34.606  17.146   9.025  0.00  0.00     0.009 A 
ENDROOT
BRANCH   1   7
HETATM    7  C   UNK N   1      35.740  15.272  10.326  0.00  0.00     0.311 C 
BRANCH   7   8
HETATM    8  N   UNK N   1      35.402  14.166  11.216  0.00  0.00     0.094 N 
HETATM    9  C   UNK N   1      36.081  14.472  12.465  0.00  0.00     0.274 C 
HETATM   10  C   UNK N   1      35.424  13.739  13.622  0.00  0.00     0.049 C 
HETATM   11  C   UNK N   1      36.317  13.794  14.858  0.00  0.00     0.115 C 
HETATM   12  N   UNK N   1      37.542  13.029  14.652  0.00  0.00    -0.420 N 
HETATM   13  C   UNK N   1      37.208  11.615  14.743  0.00  0.00     0.133 C 
HETATM   14  H   UNK N   1      38.469  13.415  14.475  0.00  0.00     0.153 HD
HETATM   15  C   UNK N   1      37.606  10.927  13.453  0.00  0.00     0.133 C 
HETATM   16  N   UNK N   1      36.971   9.623  13.377  0.00  0.00    -0.420 N 
HETATM   17  C   UNK N   1      36.297   9.575  12.092  0.00  0.00     0.115 C 
HETATM   18  H   UNK N   1      36.994   8.888  14.085  0.00  0.00     0.153 HD
HETATM   19  C   UNK N   1      34.799   9.468  12.305  0.00  0.00     0.038 C 
HETATM   20  C   UNK N   1      34.062  10.078  11.125  0.00  0.00     0.115 C 
HETATM   21  N   UNK N   1      34.120  11.528  11.207  0.00  0.00    -0.419 N 
HETATM   22  C   UNK N   1      34.999  11.985  10.143  0.00  0.00     0.144 C 
HETATM   23  H   UNK N   1      33.634  12.117  11.884  0.00  0.00     0.153 HD
HETATM   24  C   UNK N   1      36.035  12.956  10.692  0.00  0.00     0.292 C 
ENDBRANCH   7   8
ENDBRANCH   1   7
BRANCH   4  25
HETATM   25  C   UNK N   1      30.986  17.570   7.956  0.00  0.00     0.311 C 
BRANCH  25  26
HETATM   26  N   UNK N   1      30.482  16.919   6.739  0.00  0.00     0.094 N 
HETATM   27  C   UNK N   1      29.200  17.545   6.452  0.00  0.00     0.274 C 
HETATM   28  C   UNK N   1      28.056  16.568   6.663  0.00  0.00     0.049 C 
HETATM   29  C   UNK N   1      27.837  15.711   5.429  0.00  0.00     0.115 C 
HETATM   30  N   UNK N   1      28.804  14.630   5.395  0.00  0.00    -0.420 N 
HETATM   31  C   UNK N   1      28.324  13.668   4.419  0.00  0.00     0.133 C 
HETATM   32  H   UNK N   1      29.657  14.558   5.950  0.00  0.00     0.153 HD
HETATM   33  C   UNK N   1      29.361  12.581   4.219  0.00  0.00     0.133 C 
HETATM   34  N   UNK N   1      30.480  13.109   3.456  0.00  0.00    -0.420 N 
HETATM   35  C   UNK N   1      31.621  12.235   3.683  0.00  0.00     0.115 C 
HETATM   36  H   UNK N   1      30.468  13.943   2.868  0.00  0.00     0.153 HD
HETATM   37  C   UNK N   1      32.413  12.690   4.900  0.00  0.00     0.038 C 
HETATM   38  C   UNK N   1      32.994  14.076   4.672  0.00  0.00     0.115 C 
HETATM   39  N   UNK N   1      32.374  15.021   5.583  0.00  0.00    -0.419 N 
HETATM   40  C   UNK N   1      31.641  15.988   4.781  0.00  0.00     0.144 C 
HETATM   41  H   UNK N   1      32.439  15.010   6.601  0.00  0.00     0.153 HD
HETATM   42  C   UNK N   1      31.342  17.237   5.600  0.00  0.00     0.292 C 
ENDBRANCH  25  26
ENDBRANCH   4  25
TORSDOF 4
ENDMDL
MODEL 4
REMARK VINA RESULT:      -7.7      5.622     10.857
REMARK  4 active torsions:
REMARK  status: ('A' for Active; 'I' for Inactive)
REMARK    1  A    between atoms: N_10  and  C_15 
REMARK    2  A    between atoms: C_15  and  C_16 
REMARK    3  A    between atoms: C_19  and  C_22 
REMARK    4  A    between atoms: C_22  and  N_23 
ROOT
HETATM    1  C   UNK N   1      34.789  12.609   8.983  0.00  0.00    -0.030 A 
HETATM    2  C   UNK N   1      35.840  13.517   8.828  0.00  0.00     0.009 A 
HETATM    3  C   UNK N   1      35.741  14.562   7.915  0.00  0.00     0.009 A 
HETATM    4  C   UNK N   1      34.584  14.717   7.145  0.00  0.00    -0.030 A 
HETATM    5  C   UNK N   1      33.509  13.835   7.321  0.00  0.00     0.009 A 
HETATM    6  C   UNK N   1      33.611  12.787   8.236  0.00  0.00     0.009 A 
ENDROOT
BRANCH   1   7
HETATM    7  C   UNK N   1      34.985  11.450   9.912  0.00  0.00     0.311 C 
BRANCH   7   8
HETATM    8  N   UNK N   1      35.814  11.749  11.076  0.00  0.00     0.094 N 
HETATM    9  C   UNK N   1      36.298  10.457  11.532  0.00  0.00     0.274 C 
HETATM   10  C   UNK N   1      37.557  10.622  12.365  0.00  0.00     0.049 C 
HETATM   11  C   UNK N   1      37.875   9.328  13.107  0.00  0.00     0.115 C 
HETATM   12  N   UNK N   1      36.861   9.042  14.117  0.00  0.00    -0.420 N 
HETATM   13  C   UNK N   1      37.080   9.941  15.239  0.00  0.00     0.133 C 
HETATM   14  H   UNK N   1      36.128   8.336  14.049  0.00  0.00     0.153 HD
HETATM   15  C   UNK N   1      35.824  10.755  15.477  0.00  0.00     0.133 C 
HETATM   16  N   UNK N   1      36.127  11.886  16.335  0.00  0.00    -0.420 N 
HETATM   17  C   UNK N   1      35.627  13.063  15.647  0.00  0.00     0.115 C 
HETATM   18  H   UNK N   1      36.598  11.860  17.239  0.00  0.00     0.153 HD
HETATM   19  C   UNK N   1      36.784  13.975  15.287  0.00  0.00     0.038 C 
HETATM   20  C   UNK N   1      36.438  14.792  14.054  0.00  0.00     0.115 C 
HETATM   21  N   UNK N   1      36.533  13.957  12.868  0.00  0.00    -0.419 N 
HETATM   22  C   UNK N   1      35.180  13.738  12.385  0.00  0.00     0.144 C 
HETATM   23  H   UNK N   1      37.390  13.592  12.452  0.00  0.00     0.153 HD
HETATM   24  C   UNK N   1      34.940  12.256  12.134  0.00  0.00     0.292 C 
ENDBRANCH   7   8
ENDBRANCH   1   7
BRANCH   4  25
HETATM   25  C   UNK N   1      34.560  15.766   6.079  0.00  0.00     0.311 C 
BRANCH  25  26
HETATM   26  N   UNK N   1      33.396  16.656   6.189  0.00  0.00     0.094 N 
HETATM   27  C   UNK N   1      33.681  17.551   7.300  0.00  0.00     0.274 C 
HETATM   28  C   UNK N   1      32.759  17.275   8.475  0.00  0.00     0.049 C 
HETATM   29  C   UNK N   1      31.437  18.004   8.314  0.00  0.00     0.115 C 
HETATM   30  N   UNK N   1      30.570  17.271   7.411  0.00  0.00    -0.420 N 
HETATM   31  C   UNK N   1      29.233  17.812   7.581  0.00  0.00     0.133 C 
HETATM   32  H   UNK N   1      30.845  16.519   6.779  0.00  0.00     0.153 HD
HETATM   33  C   UNK N   1      28.297  17.196   6.560  0.00  0.00     0.133 C 
HETATM   34  N   UNK N   1      28.578  17.748   5.245  0.00  0.00    -0.420 N 
HETATM   35  C   UNK N   1      28.028  16.835   4.256  0.00  0.00     0.115 C 
HETATM   36  H   UNK N   1      29.072  18.620   5.052  0.00  0.00     0.153 HD
HETATM   37  C   UNK N   1      29.052  15.774   3.877  0.00  0.00     0.038 C 
HETATM   38  C   UNK N   1      30.266  16.411   3.221  0.00  0.00     0.115 C 
HETATM   39  N   UNK N   1      31.427  16.240   4.075  0.00  0.00    -0.419 N 
HETATM   40  C   UNK N   1      31.864  17.562   4.494  0.00  0.00     0.144 C 
HETATM   41  H   UNK N   1      31.860  15.353   4.334  0.00  0.00     0.153 HD
HETATM   42  C   UNK N   1      33.297  17.511   5.006  0.00  0.00     0.292 C 
ENDBRANCH  25  26
ENDBRANCH   4  25
TORSDOF 4
ENDMDL
MODEL 5
REMARK VINA RESULT:      -7.6      2.515      4.258
REMARK  4 active torsions:
REMARK  status: ('A' for Active; 'I' for Inactive)
REMARK    1  A    between atoms: N_10  and  C_15 
REMARK    2  A    between atoms: C_15  and  C_16 
REMARK    3  A    between atoms: C_19  and  C_22 
REMARK    4  A    between atoms: C_22  and  N_23 
ROOT
HETATM    1  C   UNK N   1      26.425  18.055   5.071  0.00  0.00    -0.030 A 
HETATM    2  C   UNK N   1      25.502  18.821   4.354  0.00  0.00     0.009 A 
HETATM    3  C   UNK N   1      24.239  18.314   4.065  0.00  0.00     0.009 A 
HETATM    4  C   UNK N   1      23.879  17.033   4.494  0.00  0.00    -0.030 A 
HETATM    5  C   UNK N   1      24.783  16.273   5.248  0.00  0.00     0.009 A 
HETATM    6  C   UNK N   1      26.050  16.782   5.536  0.00  0.00     0.009 A 
ENDROOT
BRANCH   1   7
HETATM    7  C   UNK N   1      27.801  18.613   5.275  0.00  0.00     0.311 C 
BRANCH   7   8
HETATM    8  N   UNK N   1      28.796  17.621   5.673  0.00  0.00     0.094 N 
HETATM    9  C   UNK N   1      29.181  17.999   7.023  0.00  0.00     0.274 C 
HETATM   10  C   UNK N   1      29.777  16.813   7.759  0.00  0.00     0.049 C 
HETATM   11  C   UNK N   1      30.473  17.277   9.035  0.00  0.00     0.115 C 
HETATM   12  N   UNK N   1      31.649  18.082   8.726  0.00  0.00    -0.420 N 
HETATM   13  C   UNK N   1      32.701  17.184   8.274  0.00  0.00     0.133 C 
HETATM   14  H   UNK N   1      31.722  19.096   8.811  0.00  0.00     0.153 HD
HETATM   15  C   UNK N   1      33.142  17.595   6.884  0.00  0.00     0.133 C 
HETATM   16  N   UNK N   1      33.915  16.526   6.278  0.00  0.00    -0.420 N 
HETATM   17  C   UNK N   1      33.307  16.268   4.986  0.00  0.00     0.115 C 
HETATM   18  H   UNK N   1      34.723  16.051   6.680  0.00  0.00     0.153 HD
HETATM   19  C   UNK N   1      32.734  14.863   4.962  0.00  0.00     0.038 C 
HETATM   20  C   UNK N   1      31.569  14.793   3.990  0.00  0.00     0.115 C 
HETATM   21  N   UNK N   1      30.398  15.420   4.582  0.00  0.00    -0.419 N 
HETATM   22  C   UNK N   1      30.164  16.661   3.862  0.00  0.00     0.144 C 
HETATM   23  H   UNK N   1      29.844  15.057   5.357  0.00  0.00     0.153 HD
HETATM   24  C   UNK N   1      29.983  17.814   4.839  0.00  0.00     0.292 C 
ENDBRANCH   7   8
ENDBRANCH   1   7
BRANCH   4  25
HETATM   25  C   UNK N   1      22.567  16.465   4.054  0.00  0.00     0.311 C 
BRANCH  25  26
HETATM   26  N   UNK N   1      21.880  15.734   5.127  0.00  0.00     0.094 N 
HETATM   27  C   UNK N   1      20.677  16.496   5.424  0.00  0.00     0.274 C 
HETATM   28  C   UNK N   1      20.759  17.132   6.801  0.00  0.00     0.049 C 
HETATM   29  C   UNK N   1      20.325  16.155   7.879  0.00  0.00     0.115 C 
HETATM   30  N   UNK N   1      21.410  15.243   8.192  0.00  0.00    -0.420 N 
HETATM   31  C   UNK N   1      21.064  14.594   9.444  0.00  0.00     0.133 C 
HETATM   32  H   UNK N   1      22.253  15.089   7.641  0.00  0.00     0.153 HD
HETATM   33  C   UNK N   1      22.080  13.515   9.760  0.00  0.00     0.133 C 
HETATM   34  N   UNK N   1      21.878  12.380   8.875  0.00  0.00    -0.420 N 
HETATM   35  C   UNK N   1      23.107  11.601   8.868  0.00  0.00     0.115 C 
HETATM   36  H   UNK N   1      21.027  12.168   8.353  0.00  0.00     0.153 HD
HETATM   37  C   UNK N   1      24.053  12.100   7.786  0.00  0.00     0.038 C 
HETATM   38  C   UNK N   1      23.438  11.913   6.409  0.00  0.00     0.115 C 
HETATM   39  N   UNK N   1      23.177  13.210   5.811  0.00  0.00    -0.419 N 
HETATM   40  C   UNK N   1      21.738  13.334   5.640  0.00  0.00     0.144 C 
HETATM   41  H   UNK N   1      23.875  13.909   5.556  0.00  0.00     0.153 HD
HETATM   42  C   UNK N   1      21.416  14.435   4.639  0.00  0.00     0.292 C 
ENDBRANCH  25  26
ENDBRANCH   4  25
TORSDOF 4
ENDMDL
MODEL 6
REMARK VINA RESULT:      -7.6      3.831     12.189
REMARK  4 active torsions:
REMARK  status: ('A' for Active; 'I' for Inactive)
REMARK    1  A    between atoms: N_10  and  C_15 
REMARK    2  A    between atoms: C_15  and  C_16 
REMARK    3  A    between atoms: C_19  and  C_22 
REMARK    4  A    between atoms: C_22  and  N_23 
ROOT
HETATM    1  C   UNK N   1      30.992  16.883   8.000  0.00  0.00    -0.030 A 
HETATM    2  C   UNK N   1      31.847  17.181   6.935  0.00  0.00     0.009 A 
HETATM    3  C   UNK N   1      33.163  16.731   6.941  0.00  0.00     0.009 A 
HETATM    4  C   UNK N   1      33.644  15.972   8.012  0.00  0.00    -0.030 A 
HETATM    5  C   UNK N   1      32.784  15.634   9.065  0.00  0.00     0.009 A 
HETATM    6  C   UNK N   1      31.465  16.087   9.059  0.00  0.00     0.009 A 
ENDROOT
BRANCH   1   7
HETATM    7  C   UNK N   1      29.613  17.469   7.987  0.00  0.00     0.311 C 
BRANCH   7   8
HETATM    8  N   UNK N   1      29.032  17.604   6.654  0.00  0.00     0.094 N 
HETATM    9  C   UNK N   1      28.201  18.794   6.728  0.00  0.00     0.274 C 
HETATM   10  C   UNK N   1      27.964  19.365   5.342  0.00  0.00     0.049 C 
HETATM   11  C   UNK N   1      26.843  20.400   5.380  0.00  0.00     0.115 C 
HETATM   12  N   UNK N   1      25.563  19.772   5.688  0.00  0.00    -0.420 N 
HETATM   13  C   UNK N   1      25.110  19.071   4.495  0.00  0.00     0.133 C 
HETATM   14  H   UNK N   1      25.072  19.816   6.580  0.00  0.00     0.153 HD
HETATM   15  C   UNK N   1      24.908  17.607   4.827  0.00  0.00     0.133 C 
HETATM   16  N   UNK N   1      24.807  16.835   3.601  0.00  0.00    -0.420 N 
HETATM   17  C   UNK N   1      25.773  15.758   3.719  0.00  0.00     0.115 C 
HETATM   18  H   UNK N   1      24.183  17.015   2.814  0.00  0.00     0.153 HD
HETATM   19  C   UNK N   1      26.845  15.915   2.657  0.00  0.00     0.038 C 
HETATM   20  C   UNK N   1      28.145  15.292   3.135  0.00  0.00     0.115 C 
HETATM   21  N   UNK N   1      28.776  16.164   4.112  0.00  0.00    -0.419 N 
HETATM   22  C   UNK N   1      28.669  15.511   5.406  0.00  0.00     0.144 C 
HETATM   23  H   UNK N   1      29.214  17.066   3.925  0.00  0.00     0.153 HD
HETATM   24  C   UNK N   1      28.120  16.480   6.445  0.00  0.00     0.292 C 
ENDBRANCH   7   8
ENDBRANCH   1   7
BRANCH   4  25
HETATM   25  C   UNK N   1      35.097  15.618   8.053  0.00  0.00     0.311 C 
BRANCH  25  26
HETATM   26  N   UNK N   1      35.339  14.294   8.643  0.00  0.00     0.094 N 
HETATM   27  C   UNK N   1      35.256  13.345   7.543  0.00  0.00     0.274 C 
HETATM   28  C   UNK N   1      34.030  12.459   7.678  0.00  0.00     0.049 C 
HETATM   29  C   UNK N   1      34.310  11.276   8.588  0.00  0.00     0.115 C 
HETATM   30  N   UNK N   1      34.216  11.684   9.978  0.00  0.00    -0.420 N 
HETATM   31  C   UNK N   1      34.136  10.467  10.767  0.00  0.00     0.133 C 
HETATM   32  H   UNK N   1      34.207  12.640  10.333  0.00  0.00     0.153 HD
HETATM   33  C   UNK N   1      34.187  10.810  12.242  0.00  0.00     0.133 C 
HETATM   34  N   UNK N   1      35.538  11.204  12.605  0.00  0.00    -0.420 N 
HETATM   35  C   UNK N   1      35.460  11.956  13.848  0.00  0.00     0.115 C 
HETATM   36  H   UNK N   1      36.389  10.991  12.083  0.00  0.00     0.153 HD
HETATM   37  C   UNK N   1      35.252  13.438  13.567  0.00  0.00     0.038 C 
HETATM   38  C   UNK N   1      36.438  14.011  12.811  0.00  0.00     0.115 C 
HETATM   39  N   UNK N   1      36.023  14.407  11.478  0.00  0.00    -0.419 N 
HETATM   40  C   UNK N   1      36.744  13.575  10.527  0.00  0.00     0.144 C 
HETATM   41  H   UNK N   1      35.347  15.136  11.248  0.00  0.00     0.153 HD
HETATM   42  C   UNK N   1      36.711  14.204   9.141  0.00  0.00     0.292 C 
ENDBRANCH  25  26
ENDBRANCH   4  25
TORSDOF 4
ENDMDL
MODEL 7
REMARK VINA RESULT:      -7.5      2.219      3.754
REMARK  4 active torsions:
REMARK  status: ('A' for Active; 'I' for Inactive)
REMARK    1  A    between atoms: N_10  and  C_15 
REMARK    2  A    between atoms: C_15  and  C_16 
REMARK    3  A    between atoms: C_19  and  C_22 
REMARK    4  A    between atoms: C_22  and  N_23 
ROOT
HETATM    1  C   UNK N   1      27.939  14.666   2.985  0.00  0.00    -0.030 A 
HETATM    2  C   UNK N   1      27.218  15.839   2.745  0.00  0.00     0.009 A 
HETATM    3  C   UNK N   1      25.888  15.779   2.341  0.00  0.00     0.009 A 
HETATM    4  C   UNK N   1      25.257  14.543   2.176  0.00  0.00    -0.030 A 
HETATM    5  C   UNK N   1      25.959  13.362   2.453  0.00  0.00     0.009 A 
HETATM    6  C   UNK N   1      27.293  13.423   2.856  0.00  0.00     0.009 A 
ENDROOT
BRANCH   1   7
HETATM    7  C   UNK N   1      29.393  14.785   3.327  0.00  0.00     0.311 C 
BRANCH   7   8
HETATM    8  N   UNK N   1      29.713  15.913   4.198  0.00  0.00     0.094 N 
HETATM    9  C   UNK N   1      31.136  16.139   4.009  0.00  0.00     0.274 C 
HETATM   10  C   UNK N   1      31.508  17.556   4.406  0.00  0.00     0.049 C 
HETATM   11  C   UNK N   1      33.023  17.693   4.522  0.00  0.00     0.115 C 
HETATM   12  N   UNK N   1      33.535  16.906   5.639  0.00  0.00    -0.420 N 
HETATM   13  C   UNK N   1      33.204  17.608   6.870  0.00  0.00     0.133 C 
HETATM   14  H   UNK N   1      34.036  16.021   5.569  0.00  0.00     0.153 HD
HETATM   15  C   UNK N   1      32.377  16.697   7.754  0.00  0.00     0.133 C 
HETATM   16  N   UNK N   1      31.743  17.474   8.803  0.00  0.00    -0.420 N 
HETATM   17  C   UNK N   1      30.329  17.148   8.752  0.00  0.00     0.115 C 
HETATM   18  H   UNK N   1      32.199  18.121   9.447  0.00  0.00     0.153 HD
HETATM   19  C   UNK N   1      29.533  18.384   8.379  0.00  0.00     0.038 C 
HETATM   20  C   UNK N   1      28.248  17.982   7.675  0.00  0.00     0.115 C 
HETATM   21  N   UNK N   1      28.543  17.578   6.310  0.00  0.00    -0.419 N 
HETATM   22  C   UNK N   1      28.344  16.140   6.235  0.00  0.00     0.144 C 
HETATM   23  H   UNK N   1      28.833  18.189   5.547  0.00  0.00     0.153 HD
HETATM   24  C   UNK N   1      29.548  15.472   5.583  0.00  0.00     0.292 C 
ENDBRANCH   7   8
ENDBRANCH   1   7
BRANCH   4  25
HETATM   25  C   UNK N   1      23.871  14.508   1.614  0.00  0.00     0.311 C 
BRANCH  25  26
HETATM   26  N   UNK N   1      22.838  14.546   2.657  0.00  0.00     0.094 N 
HETATM   27  C   UNK N   1      21.696  15.226   2.064  0.00  0.00     0.274 C 
HETATM   28  C   UNK N   1      21.472  16.583   2.709  0.00  0.00     0.049 C 
HETATM   29  C   UNK N   1      20.650  16.454   3.979  0.00  0.00     0.115 C 
HETATM   30  N   UNK N   1      21.495  16.027   5.079  0.00  0.00    -0.420 N 
HETATM   31  C   UNK N   1      20.747  16.269   6.300  0.00  0.00     0.133 C 
HETATM   32  H   UNK N   1      22.433  15.634   5.009  0.00  0.00     0.153 HD
HETATM   33  C   UNK N   1      21.507  15.708   7.485  0.00  0.00     0.133 C 
HETATM   34  N   UNK N   1      21.424  14.256   7.475  0.00  0.00    -0.420 N 
HETATM   35  C   UNK N   1      22.509  13.746   8.299  0.00  0.00     0.115 C 
HETATM   36  H   UNK N   1      20.730  13.697   6.979  0.00  0.00     0.153 HD
HETATM   37  C   UNK N   1      23.767  13.542   7.466  0.00  0.00     0.038 C 
HETATM   38  C   UNK N   1      23.533  12.491   6.394  0.00  0.00     0.115 C 
HETATM   39  N   UNK N   1      23.597  13.110   5.082  0.00  0.00    -0.419 N 
HETATM   40  C   UNK N   1      22.284  12.981   4.470  0.00  0.00     0.144 C 
HETATM   41  H   UNK N   1      24.414  13.555   4.663  0.00  0.00     0.153 HD
HETATM   42  C   UNK N   1      22.377  13.192   2.965  0.00  0.00     0.292 C 
ENDBRANCH  25  26
ENDBRANCH   4  25
TORSDOF 4
ENDMDL
MODEL 8
REMARK VINA RESULT:      -7.5      7.285     12.357
REMARK  4 active torsions:
REMARK  status: ('A' for Active; 'I' for Inactive)
REMARK    1  A    between atoms: N_10  and  C_15 
REMARK    2  A    between atoms: C_15  and  C_16 
REMARK    3  A    between atoms: C_19  and  C_22 
REMARK    4  A    between atoms: C_22  and  N_23 
ROOT
HETATM    1  C   UNK N   1      35.715  13.109  10.722  0.00  0.00    -0.030 A 
HETATM    2  C   UNK N   1      34.531  13.229   9.990  0.00  0.00     0.009 A 
HETATM    3  C   UNK N   1      34.117  14.471   9.518  0.00  0.00     0.009 A 
HETATM    4  C   UNK N   1      34.886  15.612   9.768  0.00  0.00    -0.030 A 
HETATM    5  C   UNK N   1      36.094  15.496  10.467  0.00  0.00     0.009 A 
HETATM    6  C   UNK N   1      36.508  14.250  10.941  0.00  0.00     0.009 A 
ENDROOT
BRANCH   1   7
HETATM    7  C   UNK N   1      36.066  11.765  11.286  0.00  0.00     0.311 C 
BRANCH   7   8
HETATM    8  N   UNK N   1      36.392  11.779  12.709  0.00  0.00     0.094 N 
HETATM    9  C   UNK N   1      37.376  10.722  12.876  0.00  0.00     0.274 C 
HETATM   10  C   UNK N   1      38.191  10.949  14.137  0.00  0.00     0.049 C 
HETATM   11  C   UNK N   1      38.984   9.693  14.488  0.00  0.00     0.115 C 
HETATM   12  N   UNK N   1      38.094   8.604  14.876  0.00  0.00    -0.420 N 
HETATM   13  C   UNK N   1      37.609   8.881  16.220  0.00  0.00     0.133 C 
HETATM   14  H   UNK N   1      37.855   7.793  14.308  0.00  0.00     0.153 HD
HETATM   15  C   UNK N   1      36.095   8.936  16.199  0.00  0.00     0.133 C 
HETATM   16  N   UNK N   1      35.609   9.553  17.420  0.00  0.00    -0.420 N 
HETATM   17  C   UNK N   1      34.714  10.619  17.008  0.00  0.00     0.115 C 
HETATM   18  H   UNK N   1      35.849   9.290  18.377  0.00  0.00     0.153 HD
HETATM   19  C   UNK N   1      35.283  11.958  17.437  0.00  0.00     0.038 C 
HETATM   20  C   UNK N   1      34.801  13.051  16.499  0.00  0.00     0.115 C 
HETATM   21  N   UNK N   1      35.530  12.976  15.243  0.00  0.00    -0.419 N 
HETATM   22  C   UNK N   1      34.597  12.508  14.232  0.00  0.00     0.144 C 
HETATM   23  H   UNK N   1      36.512  13.210  15.098  0.00  0.00     0.153 HD
HETATM   24  C   UNK N   1      35.203  11.352  13.447  0.00  0.00     0.292 C 
ENDBRANCH   7   8
ENDBRANCH   1   7
BRANCH   4  25
HETATM   25  C   UNK N   1      34.349  16.948   9.364  0.00  0.00     0.311 C 
BRANCH  25  26
HETATM   26  N   UNK N   1      33.493  16.876   8.173  0.00  0.00     0.094 N 
HETATM   27  C   UNK N   1      32.386  17.788   8.420  0.00  0.00     0.274 C 
HETATM   28  C   UNK N   1      31.082  17.028   8.600  0.00  0.00     0.049 C 
HETATM   29  C   UNK N   1      30.442  16.721   7.258  0.00  0.00     0.115 C 
HETATM   30  N   UNK N   1      31.077  15.565   6.655  0.00  0.00    -0.420 N 
HETATM   31  C   UNK N   1      30.205  15.118   5.582  0.00  0.00     0.133 C 
HETATM   32  H   UNK N   1      31.965  15.145   6.930  0.00  0.00     0.153 HD
HETATM   33  C   UNK N   1      30.877  14.002   4.808  0.00  0.00     0.133 C 
HETATM   34  N   UNK N   1      31.946  14.551   3.990  0.00  0.00    -0.420 N 
HETATM   35  C   UNK N   1      32.844  13.459   3.647  0.00  0.00     0.115 C 
HETATM   36  H   UNK N   1      32.048  15.526   3.707  0.00  0.00     0.153 HD
HETATM   37  C   UNK N   1      33.925  13.299   4.707  0.00  0.00     0.038 C 
HETATM   38  C   UNK N   1      34.794  14.543   4.778  0.00  0.00     0.115 C 
HETATM   39  N   UNK N   1      34.604  15.199   6.058  0.00  0.00    -0.419 N 
HETATM   40  C   UNK N   1      34.019  16.505   5.800  0.00  0.00     0.144 C 
HETATM   41  H   UNK N   1      34.838  14.815   6.974  0.00  0.00     0.153 HD
HETATM   42  C   UNK N   1      34.197  17.415   7.009  0.00  0.00     0.292 C 
ENDBRANCH  25  26
ENDBRANCH   4  25
TORSDOF 4
ENDMDL
MODEL 9
REMARK VINA RESULT:      -7.5      3.264      9.665
REMARK  4 active torsions:
REMARK  status: ('A' for Active; 'I' for Inactive)
REMARK    1  A    between atoms: N_10  and  C_15 
REMARK    2  A    between atoms: C_15  and  C_16 
REMARK    3  A    between atoms: C_19  and  C_22 
REMARK    4  A    between atoms: C_22  and  N_23 
ROOT
HETATM    1  C   UNK N   1      26.128  12.889   4.492  0.00  0.00    -0.030 A 
HETATM    2  C   UNK N   1      26.121  13.969   3.604  0.00  0.00     0.009 A 
HETATM    3  C   UNK N   1      27.315  14.479   3.105  0.00  0.00     0.009 A 
HETATM    4  C   UNK N   1      28.536  13.913   3.484  0.00  0.00    -0.030 A 
HETATM    5  C   UNK N   1      28.552  12.805   4.342  0.00  0.00     0.009 A 
HETATM    6  C   UNK N   1      27.354  12.295   4.842  0.00  0.00     0.009 A 
ENDROOT
BRANCH   1   7
HETATM    7  C   UNK N   1      24.821  12.438   5.070  0.00  0.00     0.311 C 
BRANCH   7   8
HETATM    8  N   UNK N   1      24.327  13.277   6.158  0.00  0.00     0.094 N 
HETATM    9  C   UNK N   1      24.703  12.572   7.373  0.00  0.00     0.274 C 
HETATM   10  C   UNK N   1      24.746  13.528   8.551  0.00  0.00     0.049 C 
HETATM   11  C   UNK N   1      24.814  12.750   9.862  0.00  0.00     0.115 C 
HETATM   12  N   UNK N   1      23.577  12.012  10.097  0.00  0.00    -0.420 N 
HETATM   13  C   UNK N   1      22.561  12.965  10.515  0.00  0.00     0.133 C 
HETATM   14  H   UNK N   1      23.447  11.007   9.987  0.00  0.00     0.153 HD
HETATM   15  C   UNK N   1      21.388  12.892   9.559  0.00  0.00     0.133 C 
HETATM   16  N   UNK N   1      20.537  14.056   9.735  0.00  0.00    -0.420 N 
HETATM   17  C   UNK N   1      20.364  14.636   8.416  0.00  0.00     0.115 C 
HETATM   18  H   UNK N   1      20.141  14.398  10.611  0.00  0.00     0.153 HD
HETATM   19  C   UNK N   1      20.987  16.019   8.381  0.00  0.00     0.038 C 
HETATM   20  C   UNK N   1      21.430  16.354   6.967  0.00  0.00     0.115 C 
HETATM   21  N   UNK N   1      22.653  15.633   6.653  0.00  0.00    -0.419 N 
HETATM   22  C   UNK N   1      22.312  14.611   5.677  0.00  0.00     0.144 C 
HETATM   23  H   UNK N   1      23.578  15.812   7.043  0.00  0.00     0.153 HD
HETATM   24  C   UNK N   1      22.865  13.260   6.110  0.00  0.00     0.292 C 
ENDBRANCH   7   8
ENDBRANCH   1   7
BRANCH   4  25
HETATM   25  C   UNK N   1      29.805  14.567   3.038  0.00  0.00     0.311 C 
BRANCH  25  26
HETATM   26  N   UNK N   1      30.467  15.311   4.118  0.00  0.00     0.094 N 
HETATM   27  C   UNK N   1      31.850  14.858   4.126  0.00  0.00     0.274 C 
HETATM   28  C   UNK N   1      32.154  14.054   5.379  0.00  0.00     0.049 C 
HETATM   29  C   UNK N   1      32.516  14.966   6.537  0.00  0.00     0.115 C 
HETATM   30  N   UNK N   1      31.314  15.515   7.135  0.00  0.00    -0.420 N 
HETATM   31  C   UNK N   1      31.699  16.069   8.421  0.00  0.00     0.133 C 
HETATM   32  H   UNK N   1      30.377  15.513   6.731  0.00  0.00     0.153 HD
HETATM   33  C   UNK N   1      30.522  16.795   9.039  0.00  0.00     0.133 C 
HETATM   34  N   UNK N   1      30.296  18.046   8.335  0.00  0.00    -0.420 N 
HETATM   35  C   UNK N   1      28.934  18.472   8.616  0.00  0.00     0.115 C 
HETATM   36  H   UNK N   1      30.972  18.538   7.749  0.00  0.00     0.153 HD
HETATM   37  C   UNK N   1      27.966  17.884   7.599  0.00  0.00     0.038 C 
HETATM   38  C   UNK N   1      28.279  18.397   6.204  0.00  0.00     0.115 C 
HETATM   39  N   UNK N   1      28.739  17.301   5.371  0.00  0.00    -0.419 N 
HETATM   40  C   UNK N   1      30.116  17.580   4.997  0.00  0.00     0.144 C 
HETATM   41  H   UNK N   1      28.195  16.481   5.098  0.00  0.00     0.153 HD
HETATM   42  C   UNK N   1      30.520  16.736   3.794  0.00  0.00     0.292 C 
ENDBRANCH  25  26
ENDBRANCH   4  25
TORSDOF 4
ENDMDL
