MODEL 1
REMARK VINA RESULT:      -6.5      0.000      0.000
REMARK  9 active torsions:
REMARK  status: ('A' for Active; 'I' for Inactive)
REMARK    1  A    between atoms: C_16  and  C_10 
REMARK    2  A    between atoms: C_21  and  C_11 
REMARK    3  A    between atoms: C_13  and  C_12 
REMARK    4  A    between atoms: C_18  and  C_12 
REMARK    5  A    between atoms: N_22  and  C_13 
REMARK    6  A    between atoms: C_17  and  C_14 
REMARK    7  A    between atoms: N_22  and  C_14 
REMARK    8  A    between atoms: O_26  and  C_21 
REMARK    9  A    between atoms: N_24  and  O_27 
ROOT
HETATM    1  C   UNK N   1      29.212  15.190   3.131  0.00  0.00     0.152 C 
ENDROOT
BRANCH   1   2
HETATM    2  C   UNK N   1      29.931  15.740   4.317  0.00  0.00    -0.041 A 
HETATM    3  C   UNK N   1      30.351  17.073   4.343  0.00  0.00     0.009 A 
HETATM    4  C   UNK N   1      31.081  17.553   5.438  0.00  0.00     0.012 A 
HETATM    5  C   UNK N   1      31.392  16.697   6.506  0.00  0.00    -0.036 A 
HETATM    6  C   UNK N   1      30.928  15.376   6.483  0.00  0.00     0.012 A 
HETATM    7  C   UNK N   1      30.197  14.906   5.404  0.00  0.00     0.009 A 
BRANCH   5   8
HETATM    8  C   UNK N   1      32.277  17.164   7.594  0.00  0.00     0.015 C 
HETATM    9  C   UNK N   1      33.595  17.353   7.392  0.00  0.00     0.058 C 
BRANCH   9  10
HETATM   10  C   UNK N   1      34.479  17.908   8.429  0.00  0.00     0.159 C 
HETATM   11  N   UNK N   1      34.777  17.185   9.449  0.00  0.00    -0.248 N 
ATOM     12  HN  UNK N   1      34.378  16.251   9.537  1.00  0.00     0.196 HD
BRANCH  11  13
HETATM   13  O   UNK N   1      35.589  17.632  10.383  0.00  0.00    -0.288 OA
HETATM   14  H   UNK N   1      36.499  17.761  10.199  0.00  0.00     0.244 HD
ENDBRANCH  11  13
BRANCH  10  15
HETATM   15  O   UNK N   1      35.000  19.148   8.299  0.00  0.00    -0.345 OA
HETATM   16  H   UNK N   1      35.918  19.268   8.155  0.00  0.00     0.219 HD
ENDBRANCH  10  15
ENDBRANCH   9  10
ENDBRANCH   5   8
ENDBRANCH   1   2
BRANCH   1  17
HETATM   17  N   UNK N   1      27.749  15.243   3.282  0.00  0.00    -0.417 N 
HETATM   18  H   UNK N   1      27.188  14.437   3.559  0.00  0.00     0.153 HD
BRANCH  17  19
HETATM   19  C   UNK N   1      27.175  16.563   2.997  0.00  0.00     0.118 C 
BRANCH  19  20
HETATM   20  C   UNK N   1      26.233  17.070   4.090  0.00  0.00     0.060 C 
BRANCH  20  21
HETATM   21  C   UNK N   1      26.894  18.062   4.987  0.00  0.00    -0.022 A 
HETATM   22  C   UNK N   1      27.109  19.406   4.715  0.00  0.00     0.013 A 
HETATM   23  C   UNK N   1      26.721  20.114   3.463  0.00  0.00     0.068 C 
HETATM   24  N   UNK N   1      27.731  20.012   5.754  0.00  0.00    -0.359 N 
HETATM   25  C   UNK N   1      27.902  19.047   6.681  0.00  0.00     0.043 A 
HETATM   26  H   UNK N   1      28.002  20.956   5.820  0.00  0.00     0.166 HD
HETATM   27  C   UNK N   1      28.496  19.184   7.932  0.00  0.00     0.030 A 
HETATM   28  C   UNK N   1      27.399  17.850   6.247  0.00  0.00    -0.001 A 
HETATM   29  C   UNK N   1      28.565  18.042   8.752  0.00  0.00     0.002 A 
HETATM   30  C   UNK N   1      28.041  16.808   8.309  0.00  0.00     0.001 A 
HETATM   31  C   UNK N   1      27.447  16.705   7.039  0.00  0.00     0.014 A 
ENDBRANCH  20  21
ENDBRANCH  19  20
ENDBRANCH  17  19
ENDBRANCH   1  17
TORSDOF 9
ENDMDL
MODEL 2
REMARK VINA RESULT:      -6.5     14.108     16.226
REMARK  9 active torsions:
REMARK  status: ('A' for Active; 'I' for Inactive)
REMARK    1  A    between atoms: C_16  and  C_10 
REMARK    2  A    between atoms: C_21  and  C_11 
REMARK    3  A    between atoms: C_13  and  C_12 
REMARK    4  A    between atoms: C_18  and  C_12 
REMARK    5  A    between atoms: N_22  and  C_13 
REMARK    6  A    between atoms: C_17  and  C_14 
REMARK    7  A    between atoms: N_22  and  C_14 
REMARK    8  A    between atoms: O_26  and  C_21 
REMARK    9  A    between atoms: N_24  and  O_27 
ROOT
HETATM    1  C   UNK N   1      29.828  26.723  -3.809  0.00  0.00     0.152 C 
ENDROOT
BRANCH   1   2
HETATM    2  C   UNK N   1      29.042  25.636  -4.464  0.00  0.00    -0.041 A 
HETATM    3  C   UNK N   1      29.495  25.042  -5.646  0.00  0.00     0.009 A 
HETATM    4  C   UNK N   1      28.712  24.069  -6.281  0.00  0.00     0.012 A 
HETATM    5  C   UNK N   1      27.476  23.693  -5.733  0.00  0.00    -0.036 A 
HETATM    6  C   UNK N   1      27.057  24.269  -4.527  0.00  0.00     0.012 A 
HETATM    7  C   UNK N   1      27.838  25.223  -3.895  0.00  0.00     0.009 A 
BRANCH   5   8
HETATM    8  C   UNK N   1      26.589  22.770  -6.472  0.00  0.00     0.015 C 
HETATM    9  C   UNK N   1      26.004  23.137  -7.629  0.00  0.00     0.058 C 
BRANCH   9  10
HETATM   10  C   UNK N   1      25.196  22.207  -8.433  0.00  0.00     0.159 C 
HETATM   11  N   UNK N   1      25.747  21.591  -9.419  0.00  0.00    -0.248 N 
ATOM     12  HN  UNK N   1      26.725  21.775  -9.643  1.00  0.00     0.196 HD
BRANCH  11  13
HETATM   13  O   UNK N   1      25.069  20.728 -10.143  0.00  0.00    -0.288 OA
HETATM   14  H   UNK N   1      24.950  19.848  -9.846  0.00  0.00     0.244 HD
ENDBRANCH  11  13
BRANCH  10  15
HETATM   15  O   UNK N   1      23.902  21.974  -8.125  0.00  0.00    -0.345 OA
HETATM   16  H   UNK N   1      23.473  21.195  -8.420  0.00  0.00     0.219 HD
ENDBRANCH  10  15
ENDBRANCH   9  10
ENDBRANCH   5   8
ENDBRANCH   1   2
BRANCH   1  17
HETATM   17  N   UNK N   1      30.343  27.708  -4.773  0.00  0.00    -0.417 N 
HETATM   18  H   UNK N   1      30.816  27.447  -5.638  0.00  0.00     0.153 HD
BRANCH  17  19
HETATM   19  C   UNK N   1      30.114  29.101  -4.371  0.00  0.00     0.118 C 
BRANCH  19  20
HETATM   20  C   UNK N   1      29.015  29.796  -5.176  0.00  0.00     0.060 C 
BRANCH  20  21
HETATM   21  C   UNK N   1      27.667  29.211  -4.914  0.00  0.00    -0.022 A 
HETATM   22  C   UNK N   1      26.841  29.492  -3.836  0.00  0.00     0.013 A 
HETATM   23  C   UNK N   1      27.148  30.437  -2.725  0.00  0.00     0.068 C 
HETATM   24  N   UNK N   1      25.689  28.785  -3.918  0.00  0.00    -0.359 N 
HETATM   25  C   UNK N   1      25.793  28.063  -5.051  0.00  0.00     0.043 A 
HETATM   26  H   UNK N   1      24.935  28.795  -3.284  0.00  0.00     0.166 HD
HETATM   27  C   UNK N   1      24.851  27.178  -5.569  0.00  0.00     0.030 A 
HETATM   28  C   UNK N   1      26.983  28.302  -5.684  0.00  0.00    -0.001 A 
HETATM   29  C   UNK N   1      25.159  26.529  -6.779  0.00  0.00     0.002 A 
HETATM   30  C   UNK N   1      26.383  26.780  -7.436  0.00  0.00     0.001 A 
HETATM   31  C   UNK N   1      27.312  27.680  -6.886  0.00  0.00     0.014 A 
ENDBRANCH  20  21
ENDBRANCH  19  20
ENDBRANCH  17  19
ENDBRANCH   1  17
TORSDOF 9
ENDMDL
MODEL 3
REMARK VINA RESULT:      -6.4      7.728     10.635
REMARK  9 active torsions:
REMARK  status: ('A' for Active; 'I' for Inactive)
REMARK    1  A    between atoms: C_16  and  C_10 
REMARK    2  A    between atoms: C_21  and  C_11 
REMARK    3  A    between atoms: C_13  and  C_12 
REMARK    4  A    between atoms: C_18  and  C_12 
REMARK    5  A    between atoms: N_22  and  C_13 
REMARK    6  A    between atoms: C_17  and  C_14 
REMARK    7  A    between atoms: N_22  and  C_14 
REMARK    8  A    between atoms: O_26  and  C_21 
REMARK    9  A    between atoms: N_24  and  O_27 
ROOT
HETATM    1  C   UNK N   1      19.899  15.582   8.455  0.00  0.00     0.152 C 
ENDROOT
BRANCH   1   2
HETATM    2  C   UNK N   1      20.177  16.257   7.153  0.00  0.00    -0.041 A 
HETATM    3  C   UNK N   1      21.023  17.368   7.093  0.00  0.00     0.009 A 
HETATM    4  C   UNK N   1      21.221  18.028   5.872  0.00  0.00     0.012 A 
HETATM    5  C   UNK N   1      20.570  17.575   4.714  0.00  0.00    -0.036 A 
HETATM    6  C   UNK N   1      19.759  16.436   4.784  0.00  0.00     0.012 A 
HETATM    7  C   UNK N   1      19.574  15.779   5.990  0.00  0.00     0.009 A 
BRANCH   5   8
HETATM    8  C   UNK N   1      20.669  18.349   3.459  0.00  0.00     0.015 C 
HETATM    9  C   UNK N   1      20.726  19.695   3.469  0.00  0.00     0.058 C 
BRANCH   9  10
HETATM   10  C   UNK N   1      20.923  20.485   2.243  0.00  0.00     0.159 C 
HETATM   11  N   UNK N   1      20.563  19.987   1.114  0.00  0.00    -0.248 N 
ATOM     12  HN  UNK N   1      20.171  19.045   1.082  1.00  0.00     0.196 HD
BRANCH  11  13
HETATM   13  O   UNK N   1      20.692  20.671  -0.001  0.00  0.00    -0.288 OA
HETATM   14  H   UNK N   1      20.346  20.339  -0.806  0.00  0.00     0.244 HD
ENDBRANCH  11  13
BRANCH  10  15
HETATM   15  O   UNK N   1      21.444  21.730   2.302  0.00  0.00    -0.345 OA
HETATM   16  H   UNK N   1      21.095  22.366   2.895  0.00  0.00     0.219 HD
ENDBRANCH  10  15
ENDBRANCH   9  10
ENDBRANCH   5   8
ENDBRANCH   1   2
BRANCH   1  17
HETATM   17  N   UNK N   1      21.103  14.978   9.046  0.00  0.00    -0.417 N 
HETATM   18  H   UNK N   1      21.810  15.518   9.546  0.00  0.00     0.153 HD
BRANCH  17  19
HETATM   19  C   UNK N   1      21.192  13.526   8.848  0.00  0.00     0.118 C 
BRANCH  19  20
HETATM   20  C   UNK N   1      22.458  13.085   8.113  0.00  0.00     0.060 C 
BRANCH  20  21
HETATM   21  C   UNK N   1      22.393  13.378   6.652  0.00  0.00    -0.022 A 
HETATM   22  C   UNK N   1      21.642  12.696   5.706  0.00  0.00     0.013 A 
HETATM   23  C   UNK N   1      20.757  11.528   5.974  0.00  0.00     0.068 C 
HETATM   24  N   UNK N   1      21.818  13.233   4.475  0.00  0.00    -0.359 N 
HETATM   25  C   UNK N   1      22.676  14.258   4.652  0.00  0.00     0.043 A 
HETATM   26  H   UNK N   1      21.406  12.939   3.631  0.00  0.00     0.166 HD
HETATM   27  C   UNK N   1      23.161  15.121   3.674  0.00  0.00     0.030 A 
HETATM   28  C   UNK N   1      23.042  14.376   5.966  0.00  0.00    -0.001 A 
HETATM   29  C   UNK N   1      24.049  16.135   4.078  0.00  0.00     0.002 A 
HETATM   30  C   UNK N   1      24.422  16.263   5.434  0.00  0.00     0.001 A 
HETATM   31  C   UNK N   1      23.913  15.374   6.396  0.00  0.00     0.014 A 
ENDBRANCH  20  21
ENDBRANCH  19  20
ENDBRANCH  17  19
ENDBRANCH   1  17
TORSDOF 9
ENDMDL
MODEL 4
REMARK VINA RESULT:      -6.3      3.140      4.886
REMARK  9 active torsions:
REMARK  status: ('A' for Active; 'I' for Inactive)
REMARK    1  A    between atoms: C_16  and  C_10 
REMARK    2  A    between atoms: C_21  and  C_11 
REMARK    3  A    between atoms: C_13  and  C_12 
REMARK    4  A    between atoms: C_18  and  C_12 
REMARK    5  A    between atoms: N_22  and  C_13 
REMARK    6  A    between atoms: C_17  and  C_14 
REMARK    7  A    between atoms: N_22  and  C_14 
REMARK    8  A    between atoms: O_26  and  C_21 
REMARK    9  A    between atoms: N_24  and  O_27 
ROOT
HETATM    1  C   UNK N   1      33.324  13.717   3.936  0.00  0.00     0.152 C 
ENDROOT
BRANCH   1   2
HETATM    2  C   UNK N   1      33.842  13.911   5.323  0.00  0.00    -0.041 A 
HETATM    3  C   UNK N   1      35.186  14.225   5.545  0.00  0.00     0.009 A 
HETATM    4  C   UNK N   1      35.668  14.339   6.856  0.00  0.00     0.012 A 
HETATM    5  C   UNK N   1      34.804  14.138   7.943  0.00  0.00    -0.036 A 
HETATM    6  C   UNK N   1      33.451  13.864   7.703  0.00  0.00     0.012 A 
HETATM    7  C   UNK N   1      32.975  13.763   6.406  0.00  0.00     0.009 A 
BRANCH   5   8
HETATM    8  C   UNK N   1      35.339  14.123   9.320  0.00  0.00     0.015 C 
HETATM    9  C   UNK N   1      34.610  14.573  10.360  0.00  0.00     0.058 C 
BRANCH   9  10
HETATM   10  C   UNK N   1      35.081  14.480  11.751  0.00  0.00     0.159 C 
HETATM   11  N   UNK N   1      36.091  15.185  12.118  0.00  0.00    -0.248 N 
ATOM     12  HN  UNK N   1      36.566  15.777  11.436  1.00  0.00     0.196 HD
BRANCH  11  13
HETATM   13  O   UNK N   1      36.524  15.155  13.360  0.00  0.00    -0.288 OA
HETATM   14  H   UNK N   1      36.099  14.616  13.998  0.00  0.00     0.244 HD
ENDBRANCH  11  13
BRANCH  10  15
HETATM   15  O   UNK N   1      34.442  13.691  12.643  0.00  0.00    -0.345 OA
HETATM   16  H   UNK N   1      34.912  13.040  13.126  0.00  0.00     0.219 HD
ENDBRANCH  10  15
ENDBRANCH   9  10
ENDBRANCH   5   8
ENDBRANCH   1   2
BRANCH   1  17
HETATM   17  N   UNK N   1      32.371  14.764   3.538  0.00  0.00    -0.417 N 
HETATM   18  H   UNK N   1      31.360  14.655   3.611  0.00  0.00     0.153 HD
BRANCH  17  19
HETATM   19  C   UNK N   1      33.013  15.980   3.024  0.00  0.00     0.118 C 
BRANCH  19  20
HETATM   20  C   UNK N   1      32.298  17.269   3.432  0.00  0.00     0.060 C 
BRANCH  20  21
HETATM   21  C   UNK N   1      31.773  17.204   4.827  0.00  0.00    -0.022 A 
HETATM   22  C   UNK N   1      30.459  16.962   5.204  0.00  0.00     0.013 A 
HETATM   23  C   UNK N   1      29.317  16.724   4.278  0.00  0.00     0.068 C 
HETATM   24  N   UNK N   1      30.338  16.970   6.553  0.00  0.00    -0.359 N 
HETATM   25  C   UNK N   1      31.579  17.212   7.021  0.00  0.00     0.043 A 
HETATM   26  H   UNK N   1      29.518  16.828   7.079  0.00  0.00     0.166 HD
HETATM   27  C   UNK N   1      31.965  17.310   8.355  0.00  0.00     0.030 A 
HETATM   28  C   UNK N   1      32.476  17.355   5.998  0.00  0.00    -0.001 A 
HETATM   29  C   UNK N   1      33.322  17.562   8.627  0.00  0.00     0.002 A 
HETATM   30  C   UNK N   1      34.251  17.704   7.572  0.00  0.00     0.001 A 
HETATM   31  C   UNK N   1      33.827  17.598   6.236  0.00  0.00     0.014 A 
ENDBRANCH  20  21
ENDBRANCH  19  20
ENDBRANCH  17  19
ENDBRANCH   1  17
TORSDOF 9
ENDMDL
MODEL 5
REMARK VINA RESULT:      -6.2     11.679     14.377
REMARK  9 active torsions:
REMARK  status: ('A' for Active; 'I' for Inactive)
REMARK    1  A    between atoms: C_16  and  C_10 
REMARK    2  A    between atoms: C_21  and  C_11 
REMARK    3  A    between atoms: C_13  and  C_12 
REMARK    4  A    between atoms: C_18  and  C_12 
REMARK    5  A    between atoms: N_22  and  C_13 
REMARK    6  A    between atoms: C_17  and  C_14 
REMARK    7  A    between atoms: N_22  and  C_14 
REMARK    8  A    between atoms: O_26  and  C_21 
REMARK    9  A    between atoms: N_24  and  O_27 
ROOT
HETATM    1  C   UNK N   1      27.394  23.138  -9.938  0.00  0.00     0.152 C 
ENDROOT
BRANCH   1   2
HETATM    2  C   UNK N   1      28.204  23.042  -8.687  0.00  0.00    -0.041 A 
HETATM    3  C   UNK N   1      29.400  23.753  -8.556  0.00  0.00     0.009 A 
HETATM    4  C   UNK N   1      30.179  23.600  -7.401  0.00  0.00     0.012 A 
HETATM    5  C   UNK N   1      29.760  22.734  -6.380  0.00  0.00    -0.036 A 
HETATM    6  C   UNK N   1      28.538  22.061  -6.509  0.00  0.00     0.012 A 
HETATM    7  C   UNK N   1      27.765  22.222  -7.647  0.00  0.00     0.009 A 
BRANCH   5   8
HETATM    8  C   UNK N   1      30.644  22.468  -5.226  0.00  0.00     0.015 C 
HETATM    9  C   UNK N   1      30.201  22.593  -3.960  0.00  0.00     0.058 C 
BRANCH   9  10
HETATM   10  C   UNK N   1      31.031  22.241  -2.797  0.00  0.00     0.159 C 
HETATM   11  N   UNK N   1      32.014  21.427  -2.953  0.00  0.00    -0.248 N 
ATOM     12  HN  UNK N   1      32.189  21.021  -3.872  1.00  0.00     0.196 HD
BRANCH  11  13
HETATM   13  O   UNK N   1      32.799  21.111  -1.946  0.00  0.00    -0.288 OA
HETATM   14  H   UNK N   1      33.214  20.272  -1.912  0.00  0.00     0.244 HD
ENDBRANCH  11  13
BRANCH  10  15
HETATM   15  O   UNK N   1      30.786  22.787  -1.585  0.00  0.00    -0.345 OA
HETATM   16  H   UNK N   1      29.915  22.817  -1.242  0.00  0.00     0.219 HD
ENDBRANCH  10  15
ENDBRANCH   9  10
ENDBRANCH   5   8
ENDBRANCH   1   2
BRANCH   1  17
HETATM   17  N   UNK N   1      26.853  24.488 -10.158  0.00  0.00    -0.417 N 
HETATM   18  H   UNK N   1      27.261  25.152 -10.816  0.00  0.00     0.153 HD
BRANCH  17  19
HETATM   19  C   UNK N   1      25.672  24.790  -9.340  0.00  0.00     0.118 C 
BRANCH  19  20
HETATM   20  C   UNK N   1      25.725  26.164  -8.672  0.00  0.00     0.060 C 
BRANCH  20  21
HETATM   21  C   UNK N   1      26.739  26.221  -7.578  0.00  0.00    -0.022 A 
HETATM   22  C   UNK N   1      27.922  26.945  -7.586  0.00  0.00     0.013 A 
HETATM   23  C   UNK N   1      28.410  27.804  -8.701  0.00  0.00     0.068 C 
HETATM   24  N   UNK N   1      28.600  26.770  -6.427  0.00  0.00    -0.359 N 
HETATM   25  C   UNK N   1      27.836  25.939  -5.689  0.00  0.00     0.043 A 
HETATM   26  H   UNK N   1      29.466  27.165  -6.176  0.00  0.00     0.166 HD
HETATM   27  C   UNK N   1      28.111  25.465  -4.409  0.00  0.00     0.030 A 
HETATM   28  C   UNK N   1      26.694  25.590  -6.359  0.00  0.00    -0.001 A 
HETATM   29  C   UNK N   1      27.169  24.607  -3.813  0.00  0.00     0.002 A 
HETATM   30  C   UNK N   1      25.987  24.251  -4.500  0.00  0.00     0.001 A 
HETATM   31  C   UNK N   1      25.741  24.748  -5.791  0.00  0.00     0.014 A 
ENDBRANCH  20  21
ENDBRANCH  19  20
ENDBRANCH  17  19
ENDBRANCH   1  17
TORSDOF 9
ENDMDL
MODEL 6
REMARK VINA RESULT:      -6.1      8.983     12.663
REMARK  9 active torsions:
REMARK  status: ('A' for Active; 'I' for Inactive)
REMARK    1  A    between atoms: C_16  and  C_10 
REMARK    2  A    between atoms: C_21  and  C_11 
REMARK    3  A    between atoms: C_13  and  C_12 
REMARK    4  A    between atoms: C_18  and  C_12 
REMARK    5  A    between atoms: N_22  and  C_13 
REMARK    6  A    between atoms: C_17  and  C_14 
REMARK    7  A    between atoms: N_22  and  C_14 
REMARK    8  A    between atoms: O_26  and  C_21 
REMARK    9  A    between atoms: N_24  and  O_27 
ROOT
HETATM    1  C   UNK N   1      35.374   7.595  12.934  0.00  0.00     0.152 C 
ENDROOT
BRANCH   1   2
HETATM    2  C   UNK N   1      35.331   9.068  12.699  0.00  0.00    -0.041 A 
HETATM    3  C   UNK N   1      34.344   9.857  13.298  0.00  0.00     0.009 A 
HETATM    4  C   UNK N   1      34.280  11.228  13.015  0.00  0.00     0.012 A 
HETATM    5  C   UNK N   1      35.203  11.807  12.130  0.00  0.00    -0.036 A 
HETATM    6  C   UNK N   1      36.210  11.010  11.571  0.00  0.00     0.012 A 
HETATM    7  C   UNK N   1      36.278   9.657  11.861  0.00  0.00     0.009 A 
BRANCH   5   8
HETATM    8  C   UNK N   1      35.052  13.220  11.725  0.00  0.00     0.015 C 
HETATM    9  C   UNK N   1      36.119  14.035  11.617  0.00  0.00     0.058 C 
BRANCH   9  10
HETATM   10  C   UNK N   1      36.009  15.417  11.122  0.00  0.00     0.159 C 
HETATM   11  N   UNK N   1      34.843  15.942  10.989  0.00  0.00    -0.248 N 
ATOM     12  HN  UNK N   1      34.014  15.387  11.204  1.00  0.00     0.196 HD
BRANCH  11  13
HETATM   13  O   UNK N   1      34.701  17.184  10.581  0.00  0.00    -0.288 OA
HETATM   14  H   UNK N   1      35.432  17.770  10.578  0.00  0.00     0.244 HD
ENDBRANCH  11  13
BRANCH  10  15
HETATM   15  O   UNK N   1      37.115  16.139  10.841  0.00  0.00    -0.345 OA
HETATM   16  H   UNK N   1      37.130  16.725  10.111  0.00  0.00     0.219 HD
ENDBRANCH  10  15
ENDBRANCH   9  10
ENDBRANCH   5   8
ENDBRANCH   1   2
BRANCH   1  17
HETATM   17  N   UNK N   1      36.334   7.218  13.983  0.00  0.00    -0.417 N 
HETATM   18  H   UNK N   1      37.196   6.707  13.794  0.00  0.00     0.153 HD
BRANCH  17  19
HETATM   19  C   UNK N   1      35.933   7.647  15.329  0.00  0.00     0.118 C 
BRANCH  19  20
HETATM   20  C   UNK N   1      37.053   8.336  16.110  0.00  0.00     0.060 C 
BRANCH  20  21
HETATM   21  C   UNK N   1      37.367   9.691  15.570  0.00  0.00    -0.022 A 
HETATM   22  C   UNK N   1      38.412  10.019  14.718  0.00  0.00     0.013 A 
HETATM   23  C   UNK N   1      39.429   9.071  14.183  0.00  0.00     0.068 C 
HETATM   24  N   UNK N   1      38.395  11.341  14.425  0.00  0.00    -0.359 N 
HETATM   25  C   UNK N   1      37.335  11.841  15.091  0.00  0.00     0.043 A 
HETATM   26  H   UNK N   1      39.024  11.833  13.849  0.00  0.00     0.166 HD
HETATM   27  C   UNK N   1      36.901  13.163  15.100  0.00  0.00     0.030 A 
HETATM   28  C   UNK N   1      36.684  10.863  15.793  0.00  0.00    -0.001 A 
HETATM   29  C   UNK N   1      35.758  13.472  15.861  0.00  0.00     0.002 A 
HETATM   30  C   UNK N   1      35.082  12.462  16.581  0.00  0.00     0.001 A 
HETATM   31  C   UNK N   1      35.547  11.137  16.549  0.00  0.00     0.014 A 
ENDBRANCH  20  21
ENDBRANCH  19  20
ENDBRANCH  17  19
ENDBRANCH   1  17
TORSDOF 9
ENDMDL
MODEL 7
REMARK VINA RESULT:      -6.1     11.056     13.586
REMARK  9 active torsions:
REMARK  status: ('A' for Active; 'I' for Inactive)
REMARK    1  A    between atoms: C_16  and  C_10 
REMARK    2  A    between atoms: C_21  and  C_11 
REMARK    3  A    between atoms: C_13  and  C_12 
REMARK    4  A    between atoms: C_18  and  C_12 
REMARK    5  A    between atoms: N_22  and  C_13 
REMARK    6  A    between atoms: C_17  and  C_14 
REMARK    7  A    between atoms: N_22  and  C_14 
REMARK    8  A    between atoms: O_26  and  C_21 
REMARK    9  A    between atoms: N_24  and  O_27 
ROOT
HETATM    1  C   UNK N   1      25.570  24.783  -5.430  0.00  0.00     0.152 C 
ENDROOT
BRANCH   1   2
HETATM    2  C   UNK N   1      26.818  24.216  -4.838  0.00  0.00    -0.041 A 
HETATM    3  C   UNK N   1      27.115  24.404  -3.485  0.00  0.00     0.009 A 
HETATM    4  C   UNK N   1      28.322  23.920  -2.963  0.00  0.00     0.012 A 
HETATM    5  C   UNK N   1      29.230  23.250  -3.796  0.00  0.00    -0.036 A 
HETATM    6  C   UNK N   1      28.899  23.034  -5.140  0.00  0.00     0.012 A 
HETATM    7  C   UNK N   1      27.700  23.504  -5.651  0.00  0.00     0.009 A 
BRANCH   5   8
HETATM    8  C   UNK N   1      30.560  22.862  -3.280  0.00  0.00     0.015 C 
HETATM    9  C   UNK N   1      31.136  21.697  -3.635  0.00  0.00     0.058 C 
BRANCH   9  10
HETATM   10  C   UNK N   1      32.497  21.330  -3.214  0.00  0.00     0.159 C 
HETATM   11  N   UNK N   1      33.398  21.135  -4.110  0.00  0.00    -0.248 N 
ATOM     12  HN  UNK N   1      33.150  21.212  -5.097  1.00  0.00     0.196 HD
BRANCH  11  13
HETATM   13  O   UNK N   1      34.634  20.837  -3.775  0.00  0.00    -0.288 OA
HETATM   14  H   UNK N   1      34.806  20.237  -3.076  0.00  0.00     0.244 HD
ENDBRANCH  11  13
BRANCH  10  15
HETATM   15  O   UNK N   1      32.810  21.231  -1.903  0.00  0.00    -0.345 OA
HETATM   16  H   UNK N   1      33.621  20.847  -1.634  0.00  0.00     0.219 HD
ENDBRANCH  10  15
ENDBRANCH   9  10
ENDBRANCH   5   8
ENDBRANCH   1   2
BRANCH   1  17
HETATM   17  N   UNK N   1      25.599  26.252  -5.509  0.00  0.00    -0.417 N 
HETATM   18  H   UNK N   1      25.172  26.857  -4.807  0.00  0.00     0.153 HD
BRANCH  17  19
HETATM   19  C   UNK N   1      26.299  26.764  -6.693  0.00  0.00     0.118 C 
BRANCH  19  20
HETATM   20  C   UNK N   1      27.088  28.047  -6.430  0.00  0.00     0.060 C 
BRANCH  20  21
HETATM   21  C   UNK N   1      27.969  27.932  -5.231  0.00  0.00    -0.022 A 
HETATM   22  C   UNK N   1      27.732  28.477  -3.978  0.00  0.00     0.013 A 
HETATM   23  C   UNK N   1      26.546  29.291  -3.592  0.00  0.00     0.068 C 
HETATM   24  N   UNK N   1      28.739  28.172  -3.124  0.00  0.00    -0.359 N 
HETATM   25  C   UNK N   1      29.604  27.430  -3.844  0.00  0.00     0.043 A 
HETATM   26  H   UNK N   1      28.821  28.436  -2.179  0.00  0.00     0.166 HD
HETATM   27  C   UNK N   1      30.801  26.875  -3.399  0.00  0.00     0.030 A 
HETATM   28  C   UNK N   1      29.164  27.262  -5.129  0.00  0.00    -0.001 A 
HETATM   29  C   UNK N   1      31.555  26.123  -4.319  0.00  0.00     0.002 A 
HETATM   30  C   UNK N   1      31.099  25.943  -5.643  0.00  0.00     0.001 A 
HETATM   31  C   UNK N   1      29.885  26.517  -6.059  0.00  0.00     0.014 A 
ENDBRANCH  20  21
ENDBRANCH  19  20
ENDBRANCH  17  19
ENDBRANCH   1  17
TORSDOF 9
ENDMDL
MODEL 8
REMARK VINA RESULT:      -6.0      1.567      2.875
REMARK  9 active torsions:
REMARK  status: ('A' for Active; 'I' for Inactive)
REMARK    1  A    between atoms: C_16  and  C_10 
REMARK    2  A    between atoms: C_21  and  C_11 
REMARK    3  A    between atoms: C_13  and  C_12 
REMARK    4  A    between atoms: C_18  and  C_12 
REMARK    5  A    between atoms: N_22  and  C_13 
REMARK    6  A    between atoms: C_17  and  C_14 
REMARK    7  A    between atoms: N_22  and  C_14 
REMARK    8  A    between atoms: O_26  and  C_21 
REMARK    9  A    between atoms: N_24  and  O_27 
ROOT
HETATM    1  C   UNK N   1      28.042  14.572   2.258  0.00  0.00     0.152 C 
ENDROOT
BRANCH   1   2
HETATM    2  C   UNK N   1      28.899  15.182   3.317  0.00  0.00    -0.041 A 
HETATM    3  C   UNK N   1      29.171  14.491   4.501  0.00  0.00     0.009 A 
HETATM    4  C   UNK N   1      29.924  15.106   5.511  0.00  0.00     0.012 A 
HETATM    5  C   UNK N   1      30.402  16.413   5.334  0.00  0.00    -0.036 A 
HETATM    6  C   UNK N   1      30.156  17.076   4.125  0.00  0.00     0.012 A 
HETATM    7  C   UNK N   1      29.420  16.462   3.124  0.00  0.00     0.009 A 
BRANCH   5   8
HETATM    8  C   UNK N   1      31.076  17.111   6.448  0.00  0.00     0.015 C 
HETATM    9  C   UNK N   1      32.383  16.913   6.710  0.00  0.00     0.058 C 
BRANCH   9  10
HETATM   10  C   UNK N   1      33.101  17.667   7.751  0.00  0.00     0.159 C 
HETATM   11  N   UNK N   1      34.204  18.254   7.448  0.00  0.00    -0.248 N 
ATOM     12  HN  UNK N   1      34.576  18.169   6.502  1.00  0.00     0.196 HD
BRANCH  11  13
HETATM   13  O   UNK N   1      34.861  18.963   8.340  0.00  0.00    -0.288 OA
HETATM   14  H   UNK N   1      35.346  19.722   8.080  0.00  0.00     0.244 HD
ENDBRANCH  11  13
BRANCH  10  15
HETATM   15  O   UNK N   1      32.596  17.770   8.999  0.00  0.00    -0.345 OA
HETATM   16  H   UNK N   1      32.696  17.070   9.614  0.00  0.00     0.219 HD
ENDBRANCH  10  15
ENDBRANCH   9  10
ENDBRANCH   5   8
ENDBRANCH   1   2
BRANCH   1  17
HETATM   17  N   UNK N   1      26.644  14.411   2.686  0.00  0.00    -0.417 N 
HETATM   18  H   UNK N   1      26.280  13.546   3.087  0.00  0.00     0.153 HD
BRANCH  17  19
HETATM   19  C   UNK N   1      25.823  15.610   2.481  0.00  0.00     0.118 C 
BRANCH  19  20
HETATM   20  C   UNK N   1      25.024  16.023   3.718  0.00  0.00     0.060 C 
BRANCH  20  21
HETATM   21  C   UNK N   1      25.879  16.679   4.750  0.00  0.00    -0.022 A 
HETATM   22  C   UNK N   1      26.259  16.140   5.970  0.00  0.00     0.013 A 
HETATM   23  C   UNK N   1      25.877  14.796   6.486  0.00  0.00     0.068 C 
HETATM   24  N   UNK N   1      27.041  17.008   6.655  0.00  0.00    -0.359 N 
HETATM   25  C   UNK N   1      27.155  18.091   5.859  0.00  0.00     0.043 A 
HETATM   26  H   UNK N   1      27.441  16.877   7.545  0.00  0.00     0.166 HD
HETATM   27  C   UNK N   1      27.869  19.255   6.128  0.00  0.00     0.030 A 
HETATM   28  C   UNK N   1      26.464  17.921   4.690  0.00  0.00    -0.001 A 
HETATM   29  C   UNK N   1      27.862  20.267   5.150  0.00  0.00     0.002 A 
HETATM   30  C   UNK N   1      27.154  20.091   3.940  0.00  0.00     0.001 A 
HETATM   31  C   UNK N   1      26.444  18.902   3.701  0.00  0.00     0.014 A 
ENDBRANCH  20  21
ENDBRANCH  19  20
ENDBRANCH  17  19
ENDBRANCH   1  17
TORSDOF 9
ENDMDL
MODEL 9
REMARK VINA RESULT:      -6.0      9.033     11.972
REMARK  9 active torsions:
REMARK  status: ('A' for Active; 'I' for Inactive)
REMARK    1  A    between atoms: C_16  and  C_10 
REMARK    2  A    between atoms: C_21  and  C_11 
REMARK    3  A    between atoms: C_13  and  C_12 
REMARK    4  A    between atoms: C_18  and  C_12 
REMARK    5  A    between atoms: N_22  and  C_13 
REMARK    6  A    between atoms: C_17  and  C_14 
REMARK    7  A    between atoms: N_22  and  C_14 
REMARK    8  A    between atoms: O_26  and  C_21 
REMARK    9  A    between atoms: N_24  and  O_27 
ROOT
HETATM    1  C   UNK N   1      34.798   8.820  11.392  0.00  0.00     0.152 C 
ENDROOT
BRANCH   1   2
HETATM    2  C   UNK N   1      34.693   9.284  12.807  0.00  0.00    -0.041 A 
HETATM    3  C   UNK N   1      33.755  10.254  13.171  0.00  0.00     0.009 A 
HETATM    4  C   UNK N   1      33.714  10.724  14.491  0.00  0.00     0.012 A 
HETATM    5  C   UNK N   1      34.614  10.222  15.444  0.00  0.00    -0.036 A 
HETATM    6  C   UNK N   1      35.520   9.221  15.072  0.00  0.00     0.012 A 
HETATM    7  C   UNK N   1      35.551   8.750  13.769  0.00  0.00     0.009 A 
BRANCH   5   8
HETATM    8  C   UNK N   1      34.664  10.813  16.797  0.00  0.00     0.015 C 
HETATM    9  C   UNK N   1      35.644  10.496  17.665  0.00  0.00     0.058 C 
BRANCH   9  10
HETATM   10  C   UNK N   1      35.772  11.142  18.981  0.00  0.00     0.159 C 
HETATM   11  N   UNK N   1      35.274  12.315  19.153  0.00  0.00    -0.248 N 
ATOM     12  HN  UNK N   1      34.821  12.788  18.370  1.00  0.00     0.196 HD
BRANCH  11  13
HETATM   13  O   UNK N   1      35.339  12.914  20.321  0.00  0.00    -0.288 OA
HETATM   14  H   UNK N   1      35.891  12.577  20.999  0.00  0.00     0.244 HD
ENDBRANCH  11  13
BRANCH  10  15
HETATM   15  O   UNK N   1      36.375  10.503  20.007  0.00  0.00    -0.345 OA
HETATM   16  H   UNK N   1      37.308  10.426  20.039  0.00  0.00     0.219 HD
ENDBRANCH  10  15
ENDBRANCH   9  10
ENDBRANCH   5   8
ENDBRANCH   1   2
BRANCH   1  17
HETATM   17  N   UNK N   1      34.898   9.935  10.438  0.00  0.00    -0.417 N 
HETATM   18  H   UNK N   1      34.098  10.504  10.160  0.00  0.00     0.153 HD
BRANCH  17  19
HETATM   19  C   UNK N   1      36.256  10.151   9.924  0.00  0.00     0.118 C 
BRANCH  19  20
HETATM   20  C   UNK N   1      36.645  11.626   9.825  0.00  0.00     0.060 C 
BRANCH  20  21
HETATM   21  C   UNK N   1      36.085  12.434  10.947  0.00  0.00    -0.022 A 
HETATM   22  C   UNK N   1      35.009  13.307  10.878  0.00  0.00     0.013 A 
HETATM   23  C   UNK N   1      34.208  13.608   9.658  0.00  0.00     0.068 C 
HETATM   24  N   UNK N   1      34.769  13.869  12.086  0.00  0.00    -0.359 N 
HETATM   25  C   UNK N   1      35.693  13.343  12.915  0.00  0.00     0.043 A 
HETATM   26  H   UNK N   1      34.069  14.523  12.313  0.00  0.00     0.166 HD
HETATM   27  C   UNK N   1      35.851  13.611  14.271  0.00  0.00     0.030 A 
HETATM   28  C   UNK N   1      36.507  12.462  12.254  0.00  0.00    -0.001 A 
HETATM   29  C   UNK N   1      36.882  12.942  14.956  0.00  0.00     0.002 A 
HETATM   30  C   UNK N   1      37.718  12.029  14.277  0.00  0.00     0.001 A 
HETATM   31  C   UNK N   1      37.531  11.780  12.906  0.00  0.00     0.014 A 
ENDBRANCH  20  21
ENDBRANCH  19  20
ENDBRANCH  17  19
ENDBRANCH   1  17
TORSDOF 9
ENDMDL
