MODEL 1
REMARK VINA RESULT:      -8.3      0.000      0.000
REMARK  13 active torsions:
REMARK  status: ('A' for Active; 'I' for Inactive)
REMARK    1  A    between atoms: C_2  and  O_3 
REMARK    2  A    between atoms: C_2  and  C_4 
REMARK    3  A    between atoms: C_4  and  N_5 
REMARK    4  A    between atoms: C_4  and  C_35 
REMARK       I    between atoms: N_5  and  C_6 
REMARK    5  A    between atoms: C_6  and  C_8 
REMARK    6  A    between atoms: C_11  and  C_14 
REMARK    7  A    between atoms: C_14  and  C_15 
REMARK    8  A    between atoms: C_14  and  C_18 
REMARK    9  A    between atoms: C_18  and  C_19 
REMARK       I    between atoms: C_29  and  N_34 
REMARK   10  A    between atoms: C_32  and  N_33 
REMARK   11  A    between atoms: C_35  and  C_36 
REMARK   12  A    between atoms: C_36  and  C_37 
REMARK   13  A    between atoms: C_37  and  O_39 
ROOT
HETATM    1  C   UNK N   1      28.230  16.507   3.038  0.00  0.00     0.102 C 
HETATM    2  C   UNK N   1      27.316  15.366   3.057  0.00  0.00    -0.117 C 
HETATM    3  C   UNK N   1      26.544  14.441   3.075  0.00  0.00     0.012 C 
ENDROOT
BRANCH   1   4
HETATM    4  C   UNK N   1      27.981  17.307   4.307  0.00  0.00     0.035 C 
BRANCH   4   5
HETATM    5  C   UNK N   1      26.801  18.225   4.281  0.00  0.00    -0.053 A 
HETATM    6  C   UNK N   1      26.983  19.547   3.875  0.00  0.00     0.008 A 
HETATM    7  C   UNK N   1      25.884  20.337   3.602  0.00  0.00     0.017 A 
HETATM    8  C   UNK N   1      24.588  19.832   3.768  0.00  0.00     0.032 A 
HETATM    9  C   UNK N   1      24.397  18.553   4.298  0.00  0.00     0.017 A 
HETATM   10  C   UNK N   1      25.506  17.749   4.553  0.00  0.00     0.008 A 
BRANCH   8  11
HETATM   11  C   UNK N   1      23.522  20.424   2.960  0.00  0.00     0.252 C 
HETATM   12  N   UNK N   1      22.542  19.577   2.581  0.00  0.00    -0.343 N 
HETATM   13  H   UNK N   1      22.793  18.650   2.364  0.00  0.00     0.163 HD
HETATM   14  O   UNK N   1      23.349  21.635   2.945  0.00  0.00    -0.268 OA
BRANCH  12  15
HETATM   15  C   UNK N   1      21.152  19.939   2.471  0.00  0.00     0.183 C 
BRANCH  15  16
HETATM   16  C   UNK N   1      20.760  20.537   1.163  0.00  0.00     0.163 C 
HETATM   17  O   UNK N   1      20.611  21.745   1.081  0.00  0.00    -0.648 OA
BRANCH  16  18
HETATM   18  O   UNK N   1      20.612  19.769   0.069  0.00  0.00    -0.775 OA
HETATM   19  H   UNK N   1      20.316  19.179  -0.596  0.00  0.00     0.167 HD
ENDBRANCH  16  18
ENDBRANCH  15  16
BRANCH  15  20
HETATM   20  C   UNK N   1      20.288  18.745   2.895  0.00  0.00     0.046 C 
BRANCH  20  21
HETATM   21  C   UNK N   1      20.917  17.397   2.533  0.00  0.00     0.112 C 
BRANCH  21  22
HETATM   22  C   UNK N   1      20.292  16.808   1.318  0.00  0.00     0.139 C 
HETATM   23  O   UNK N   1      20.835  15.889   0.728  0.00  0.00    -0.650 OA
BRANCH  22  24
HETATM   24  O   UNK N   1      19.107  17.275   0.887  0.00  0.00    -0.776 OA
HETATM   25  H   UNK N   1      18.770  18.090   1.203  0.00  0.00     0.167 HD
ENDBRANCH  22  24
ENDBRANCH  21  22
ENDBRANCH  20  21
ENDBRANCH  15  20
ENDBRANCH  12  15
ENDBRANCH   8  11
ENDBRANCH   4   5
BRANCH   4  26
HETATM   26  C   UNK N   1      28.067  16.422   5.540  0.00  0.00     0.068 C 
BRANCH  26  27
HETATM   27  C   UNK N   1      29.240  16.837   6.355  0.00  0.00     0.026 A 
HETATM   28  N   UNK N   1      30.478  16.857   5.797  0.00  0.00    -0.352 N 
HETATM   29  C   UNK N   1      31.563  17.177   6.550  0.00  0.00     0.122 A 
ATOM     30  HN  UNK N   1      30.594  16.632   4.808  1.00  0.00     0.166 HD
HETATM   31  C   UNK N   1      31.401  17.486   7.912  0.00  0.00     0.151 A 
HETATM   32  C   UNK N   1      32.849  17.204   6.011  0.00  0.00     0.145 A 
HETATM   33  N   UNK N   1      30.165  17.472   8.463  0.00  0.00    -0.348 N 
HETATM   34  N   UNK N   1      32.476  17.796   8.670  0.00  0.00    -0.174 N 
HETATM   35  C   UNK N   1      29.087  17.155   7.714  0.00  0.00     0.114 A 
ATOM     36  HN  UNK N   1      30.047  17.702   9.449  1.00  0.00     0.167 HD
HETATM   37  C   UNK N   1      33.720  17.814   8.129  0.00  0.00     0.679 A 
ATOM     38  HN  UNK N   1      32.351  18.018   9.658  1.00  0.00     0.186 HD
HETATM   39  N   UNK N   1      33.900  17.522   6.812  0.00  0.00    -0.175 N 
HETATM   40  N   UNK N   1      34.825  18.139   8.937  0.00  0.00    -0.234 N 
ATOM     41  HN  UNK N   1      34.842  17.541   6.419  1.00  0.00     0.186 HD
HETATM   42  H   UNK N   1      35.702  17.691   8.919  0.00  0.00     0.174 HD
HETATM   43  H   UNK N   1      34.713  18.880   9.576  0.00  0.00     0.174 HD
BRANCH  32  44
HETATM   44  N   UNK N   1      33.065  16.902   4.651  0.00  0.00    -0.383 N 
HETATM   45  H   UNK N   1      32.525  17.077   3.847  0.00  0.00     0.157 HD
HETATM   46  H   UNK N   1      33.911  16.432   4.473  0.00  0.00     0.157 HD
ENDBRANCH  32  44
ENDBRANCH  26  27
ENDBRANCH   4  26
ENDBRANCH   1   4
TORSDOF 13
ENDMDL
MODEL 2
REMARK VINA RESULT:      -8.1      4.736      5.627
REMARK  13 active torsions:
REMARK  status: ('A' for Active; 'I' for Inactive)
REMARK    1  A    between atoms: C_2  and  O_3 
REMARK    2  A    between atoms: C_2  and  C_4 
REMARK    3  A    between atoms: C_4  and  N_5 
REMARK    4  A    between atoms: C_4  and  C_35 
REMARK       I    between atoms: N_5  and  C_6 
REMARK    5  A    between atoms: C_6  and  C_8 
REMARK    6  A    between atoms: C_11  and  C_14 
REMARK    7  A    between atoms: C_14  and  C_15 
REMARK    8  A    between atoms: C_14  and  C_18 
REMARK    9  A    between atoms: C_18  and  C_19 
REMARK       I    between atoms: C_29  and  N_34 
REMARK   10  A    between atoms: C_32  and  N_33 
REMARK   11  A    between atoms: C_35  and  C_36 
REMARK   12  A    between atoms: C_36  and  C_37 
REMARK   13  A    between atoms: C_37  and  O_39 
ROOT
HETATM    1  C   UNK N   1      26.442  17.233   3.486  0.00  0.00     0.102 C 
HETATM    2  C   UNK N   1      26.047  16.122   2.621  0.00  0.00    -0.117 C 
HETATM    3  C   UNK N   1      25.698  15.210   1.916  0.00  0.00     0.012 C 
ENDROOT
BRANCH   1   4
HETATM    4  C   UNK N   1      25.979  16.895   4.895  0.00  0.00     0.035 C 
BRANCH   4   5
HETATM    5  C   UNK N   1      24.507  16.987   5.138  0.00  0.00    -0.053 A 
HETATM    6  C   UNK N   1      23.859  15.928   5.772  0.00  0.00     0.008 A 
HETATM    7  C   UNK N   1      22.567  16.090   6.231  0.00  0.00     0.017 A 
HETATM    8  C   UNK N   1      21.888  17.298   6.028  0.00  0.00     0.032 A 
HETATM    9  C   UNK N   1      22.483  18.318   5.280  0.00  0.00     0.017 A 
HETATM   10  C   UNK N   1      23.794  18.162   4.836  0.00  0.00     0.008 A 
BRANCH   8  11
HETATM   11  C   UNK N   1      20.829  17.647   6.973  0.00  0.00     0.252 C 
HETATM   12  N   UNK N   1      20.142  16.603   7.488  0.00  0.00    -0.343 N 
HETATM   13  H   UNK N   1      19.970  15.832   6.901  0.00  0.00     0.163 HD
HETATM   14  O   UNK N   1      20.814  18.741   7.520  0.00  0.00    -0.268 OA
BRANCH  12  15
HETATM   15  C   UNK N   1      19.645  16.545   8.838  0.00  0.00     0.183 C 
BRANCH  15  16
HETATM   16  C   UNK N   1      18.322  17.200   9.049  0.00  0.00     0.163 C 
HETATM   17  O   UNK N   1      17.303  16.579   8.797  0.00  0.00    -0.648 OA
BRANCH  16  18
HETATM   18  O   UNK N   1      18.241  18.446   9.549  0.00  0.00    -0.775 OA
HETATM   19  H   UNK N   1      18.290  19.223  10.071  0.00  0.00     0.167 HD
ENDBRANCH  16  18
ENDBRANCH  15  16
BRANCH  15  20
HETATM   20  C   UNK N   1      19.709  15.095   9.333  0.00  0.00     0.046 C 
BRANCH  20  21
HETATM   21  C   UNK N   1      21.137  14.547   9.385  0.00  0.00     0.112 C 
BRANCH  21  22
HETATM   22  C   UNK N   1      21.217  13.299  10.193  0.00  0.00     0.139 C 
HETATM   23  O   UNK N   1      20.201  12.763  10.603  0.00  0.00    -0.650 OA
BRANCH  22  24
HETATM   24  O   UNK N   1      22.416  12.748  10.448  0.00  0.00    -0.776 OA
HETATM   25  H   UNK N   1      22.910  12.339   9.765  0.00  0.00     0.167 HD
ENDBRANCH  22  24
ENDBRANCH  21  22
ENDBRANCH  20  21
ENDBRANCH  15  20
ENDBRANCH  12  15
ENDBRANCH   8  11
ENDBRANCH   4   5
BRANCH   4  26
HETATM   26  C   UNK N   1      26.624  15.612   5.393  0.00  0.00     0.068 C 
BRANCH  26  27
HETATM   27  C   UNK N   1      27.960  15.931   5.966  0.00  0.00     0.026 A 
HETATM   28  N   UNK N   1      28.056  16.766   7.032  0.00  0.00    -0.352 N 
HETATM   29  C   UNK N   1      29.276  17.110   7.524  0.00  0.00     0.122 A 
ATOM     30  HN  UNK N   1      27.210  17.137   7.465  1.00  0.00     0.166 HD
HETATM   31  C   UNK N   1      30.439  16.598   6.924  0.00  0.00     0.151 A 
HETATM   32  C   UNK N   1      29.412  17.968   8.614  0.00  0.00     0.145 A 
HETATM   33  N   UNK N   1      30.339  15.759   5.867  0.00  0.00    -0.348 N 
HETATM   34  N   UNK N   1      31.657  16.942   7.401  0.00  0.00    -0.174 N 
HETATM   35  C   UNK N   1      29.128  15.418   5.379  0.00  0.00     0.114 A 
ATOM     36  HN  UNK N   1      31.184  15.384   5.436  1.00  0.00     0.167 HD
HETATM   37  C   UNK N   1      31.770  17.781   8.462  0.00  0.00     0.679 A 
ATOM     38  HN  UNK N   1      32.497  16.567   6.960  1.00  0.00     0.186 HD
HETATM   39  N   UNK N   1      30.657  18.286   9.060  0.00  0.00    -0.175 N 
HETATM   40  N   UNK N   1      33.047  18.126   8.942  0.00  0.00    -0.234 N 
ATOM     41  HN  UNK N   1      30.758  18.914   9.857  1.00  0.00     0.186 HD
HETATM   42  H   UNK N   1      33.328  19.024   9.231  0.00  0.00     0.174 HD
HETATM   43  H   UNK N   1      33.717  17.407   8.994  0.00  0.00     0.174 HD
BRANCH  32  44
HETATM   44  N   UNK N   1      28.276  18.508   9.251  0.00  0.00    -0.383 N 
HETATM   45  H   UNK N   1      28.119  19.377   9.685  0.00  0.00     0.157 HD
HETATM   46  H   UNK N   1      27.498  17.905   9.263  0.00  0.00     0.157 HD
ENDBRANCH  32  44
ENDBRANCH  26  27
ENDBRANCH   4  26
ENDBRANCH   1   4
TORSDOF 13
ENDMDL
MODEL 3
REMARK VINA RESULT:      -7.9      3.364      4.695
REMARK  13 active torsions:
REMARK  status: ('A' for Active; 'I' for Inactive)
REMARK    1  A    between atoms: C_2  and  O_3 
REMARK    2  A    between atoms: C_2  and  C_4 
REMARK    3  A    between atoms: C_4  and  N_5 
REMARK    4  A    between atoms: C_4  and  C_35 
REMARK       I    between atoms: N_5  and  C_6 
REMARK    5  A    between atoms: C_6  and  C_8 
REMARK    6  A    between atoms: C_11  and  C_14 
REMARK    7  A    between atoms: C_14  and  C_15 
REMARK    8  A    between atoms: C_14  and  C_18 
REMARK    9  A    between atoms: C_18  and  C_19 
REMARK       I    between atoms: C_29  and  N_34 
REMARK   10  A    between atoms: C_32  and  N_33 
REMARK   11  A    between atoms: C_35  and  C_36 
REMARK   12  A    between atoms: C_36  and  C_37 
REMARK   13  A    between atoms: C_37  and  O_39 
ROOT
HETATM    1  C   UNK N   1      27.606  19.938   4.214  0.00  0.00     0.102 C 
HETATM    2  C   UNK N   1      27.409  20.803   5.376  0.00  0.00    -0.117 C 
HETATM    3  C   UNK N   1      27.260  21.501   6.347  0.00  0.00     0.012 C 
ENDROOT
BRANCH   1   4
HETATM    4  C   UNK N   1      27.182  18.534   4.619  0.00  0.00     0.035 C 
BRANCH   4   5
HETATM    5  C   UNK N   1      25.725  18.227   4.483  0.00  0.00    -0.053 A 
HETATM    6  C   UNK N   1      25.205  17.114   5.144  0.00  0.00     0.008 A 
HETATM    7  C   UNK N   1      23.837  16.952   5.242  0.00  0.00     0.017 A 
HETATM    8  C   UNK N   1      22.969  17.877   4.648  0.00  0.00     0.032 A 
HETATM    9  C   UNK N   1      23.482  18.922   3.874  0.00  0.00     0.017 A 
HETATM   10  C   UNK N   1      24.862  19.097   3.794  0.00  0.00     0.008 A 
BRANCH   8  11
HETATM   11  C   UNK N   1      21.634  18.021   5.226  0.00  0.00     0.252 C 
HETATM   12  N   UNK N   1      20.808  16.967   5.053  0.00  0.00    -0.343 N 
HETATM   13  H   UNK N   1      20.867  16.471   4.204  0.00  0.00     0.163 HD
HETATM   14  O   UNK N   1      21.416  18.856   6.093  0.00  0.00    -0.268 OA
BRANCH  12  15
HETATM   15  C   UNK N   1      19.846  16.519   6.026  0.00  0.00     0.183 C 
BRANCH  15  16
HETATM   16  C   UNK N   1      18.722  15.710   5.472  0.00  0.00     0.163 C 
HETATM   17  O   UNK N   1      18.957  14.870   4.620  0.00  0.00    -0.648 OA
BRANCH  16  18
HETATM   18  O   UNK N   1      17.467  15.868   5.930  0.00  0.00    -0.775 OA
HETATM   19  H   UNK N   1      16.657  15.825   6.398  0.00  0.00     0.167 HD
ENDBRANCH  16  18
ENDBRANCH  15  16
BRANCH  15  20
HETATM   20  C   UNK N   1      20.586  15.846   7.189  0.00  0.00     0.046 C 
BRANCH  20  21
HETATM   21  C   UNK N   1      19.827  15.945   8.514  0.00  0.00     0.112 C 
BRANCH  21  22
HETATM   22  C   UNK N   1      19.328  17.326   8.759  0.00  0.00     0.139 C 
HETATM   23  O   UNK N   1      18.146  17.524   8.987  0.00  0.00    -0.650 OA
BRANCH  22  24
HETATM   24  O   UNK N   1      20.193  18.356   8.757  0.00  0.00    -0.776 OA
HETATM   25  H   UNK N   1      20.873  18.408   8.115  0.00  0.00     0.167 HD
ENDBRANCH  22  24
ENDBRANCH  21  22
ENDBRANCH  20  21
ENDBRANCH  15  20
ENDBRANCH  12  15
ENDBRANCH   8  11
ENDBRANCH   4   5
BRANCH   4  26
HETATM   26  C   UNK N   1      28.108  17.487   4.024  0.00  0.00     0.068 C 
BRANCH  26  27
HETATM   27  C   UNK N   1      29.317  17.364   4.882  0.00  0.00     0.026 A 
HETATM   28  N   UNK N   1      29.201  17.453   6.232  0.00  0.00    -0.352 N 
HETATM   29  C   UNK N   1      30.308  17.402   7.019  0.00  0.00     0.122 A 
ATOM     30  HN  UNK N   1      28.279  17.559   6.656  1.00  0.00     0.166 HD
HETATM   31  C   UNK N   1      31.576  17.256   6.431  0.00  0.00     0.151 A 
HETATM   32  C   UNK N   1      30.226  17.495   8.408  0.00  0.00     0.145 A 
HETATM   33  N   UNK N   1      31.688  17.160   5.086  0.00  0.00    -0.348 N 
HETATM   34  N   UNK N   1      32.683  17.214   7.206  0.00  0.00    -0.174 N 
HETATM   35  C   UNK N   1      30.589  17.210   4.304  0.00  0.00     0.114 A 
ATOM     36  HN  UNK N   1      32.608  17.048   4.660  1.00  0.00     0.167 HD
HETATM   37  C   UNK N   1      32.584  17.309   8.556  0.00  0.00     0.679 A 
ATOM     38  HN  UNK N   1      33.601  17.110   6.772  1.00  0.00     0.186 HD
HETATM   39  N   UNK N   1      31.365  17.447   9.147  0.00  0.00    -0.175 N 
HETATM   40  N   UNK N   1      33.748  17.263   9.344  0.00  0.00    -0.234 N 
ATOM     41  HN  UNK N   1      31.306  17.515  10.163  1.00  0.00     0.186 HD
HETATM   42  H   UNK N   1      33.935  17.830  10.127  0.00  0.00     0.174 HD
HETATM   43  H   UNK N   1      34.437  16.606   9.092  0.00  0.00     0.174 HD
BRANCH  32  44
HETATM   44  N   UNK N   1      28.977  17.641   9.046  0.00  0.00    -0.383 N 
HETATM   45  H   UNK N   1      28.697  18.173   9.825  0.00  0.00     0.157 HD
HETATM   46  H   UNK N   1      28.252  17.114   8.637  0.00  0.00     0.157 HD
ENDBRANCH  32  44
ENDBRANCH  26  27
ENDBRANCH   4  26
ENDBRANCH   1   4
TORSDOF 13
ENDMDL
MODEL 4
REMARK VINA RESULT:      -7.8      5.570     11.005
REMARK  13 active torsions:
REMARK  status: ('A' for Active; 'I' for Inactive)
REMARK    1  A    between atoms: C_2  and  O_3 
REMARK    2  A    between atoms: C_2  and  C_4 
REMARK    3  A    between atoms: C_4  and  N_5 
REMARK    4  A    between atoms: C_4  and  C_35 
REMARK       I    between atoms: N_5  and  C_6 
REMARK    5  A    between atoms: C_6  and  C_8 
REMARK    6  A    between atoms: C_11  and  C_14 
REMARK    7  A    between atoms: C_14  and  C_15 
REMARK    8  A    between atoms: C_14  and  C_18 
REMARK    9  A    between atoms: C_18  and  C_19 
REMARK       I    between atoms: C_29  and  N_34 
REMARK   10  A    between atoms: C_32  and  N_33 
REMARK   11  A    between atoms: C_35  and  C_36 
REMARK   12  A    between atoms: C_36  and  C_37 
REMARK   13  A    between atoms: C_37  and  O_39 
ROOT
HETATM    1  C   UNK N   1      27.871  17.497   3.602  0.00  0.00     0.102 C 
HETATM    2  C   UNK N   1      26.863  16.536   3.154  0.00  0.00    -0.117 C 
HETATM    3  C   UNK N   1      26.016  15.762   2.787  0.00  0.00     0.012 C 
ENDROOT
BRANCH   1   4
HETATM    4  C   UNK N   1      27.442  17.992   4.975  0.00  0.00     0.035 C 
BRANCH   4   5
HETATM    5  C   UNK N   1      28.336  17.616   6.113  0.00  0.00    -0.053 A 
HETATM    6  C   UNK N   1      29.160  16.498   5.985  0.00  0.00     0.008 A 
HETATM    7  C   UNK N   1      30.164  16.277   6.906  0.00  0.00     0.017 A 
HETATM    8  C   UNK N   1      30.336  17.147   7.991  0.00  0.00     0.032 A 
HETATM    9  C   UNK N   1      29.434  18.193   8.199  0.00  0.00     0.017 A 
HETATM   10  C   UNK N   1      28.434  18.428   7.257  0.00  0.00     0.008 A 
BRANCH   8  11
HETATM   11  C   UNK N   1      31.673  17.245   8.575  0.00  0.00     0.252 C 
HETATM   12  N   UNK N   1      32.173  16.096   9.078  0.00  0.00    -0.343 N 
HETATM   13  H   UNK N   1      31.548  15.475   9.516  0.00  0.00     0.163 HD
HETATM   14  O   UNK N   1      32.406  18.185   8.302  0.00  0.00    -0.268 OA
BRANCH  12  15
HETATM   15  C   UNK N   1      33.562  15.719   9.017  0.00  0.00     0.183 C 
BRANCH  15  16
HETATM   16  C   UNK N   1      34.186  15.405  10.334  0.00  0.00     0.163 C 
HETATM   17  O   UNK N   1      35.367  15.656  10.508  0.00  0.00    -0.648 OA
BRANCH  16  18
HETATM   18  O   UNK N   1      33.454  14.891  11.339  0.00  0.00    -0.775 OA
HETATM   19  H   UNK N   1      32.774  14.591  11.909  0.00  0.00     0.167 HD
ENDBRANCH  16  18
ENDBRANCH  15  16
BRANCH  15  20
HETATM   20  C   UNK N   1      33.736  14.617   7.965  0.00  0.00     0.046 C 
BRANCH  20  21
HETATM   21  C   UNK N   1      33.546  15.124   6.534  0.00  0.00     0.112 C 
BRANCH  21  22
HETATM   22  C   UNK N   1      34.638  16.052   6.130  0.00  0.00     0.139 C 
HETATM   23  O   UNK N   1      35.698  15.613   5.716  0.00  0.00    -0.650 OA
BRANCH  22  24
HETATM   24  O   UNK N   1      34.442  17.380   6.198  0.00  0.00    -0.776 OA
HETATM   25  H   UNK N   1      34.735  17.870   6.941  0.00  0.00     0.167 HD
ENDBRANCH  22  24
ENDBRANCH  21  22
ENDBRANCH  20  21
ENDBRANCH  15  20
ENDBRANCH  12  15
ENDBRANCH   8  11
ENDBRANCH   4   5
BRANCH   4  26
HETATM   26  C   UNK N   1      27.054  19.460   4.933  0.00  0.00     0.068 C 
BRANCH  26  27
HETATM   27  C   UNK N   1      25.657  19.579   4.433  0.00  0.00     0.026 A 
HETATM   28  N   UNK N   1      24.674  18.826   4.989  0.00  0.00    -0.352 N 
HETATM   29  C   UNK N   1      23.407  18.885   4.499  0.00  0.00     0.122 A 
ATOM     30  HN  UNK N   1      24.886  18.215   5.778  1.00  0.00     0.166 HD
HETATM   31  C   UNK N   1      23.119  19.728   3.412  0.00  0.00     0.151 A 
HETATM   32  C   UNK N   1      22.374  18.122   5.042  0.00  0.00     0.145 A 
HETATM   33  N   UNK N   1      24.100  20.482   2.865  0.00  0.00    -0.348 N 
HETATM   34  N   UNK N   1      21.863  19.785   2.911  0.00  0.00    -0.174 N 
HETATM   35  C   UNK N   1      25.357  20.425   3.353  0.00  0.00     0.114 A 
ATOM     36  HN  UNK N   1      23.888  21.098   2.080  1.00  0.00     0.167 HD
HETATM   37  C   UNK N   1      20.871  19.033   3.452  0.00  0.00     0.679 A 
ATOM     38  HN  UNK N   1      21.661  20.398   2.121  1.00  0.00     0.186 HD
HETATM   39  N   UNK N   1      21.127  18.213   4.507  0.00  0.00    -0.175 N 
HETATM   40  N   UNK N   1      19.572  19.108   2.915  0.00  0.00    -0.234 N 
ATOM     41  HN  UNK N   1      20.371  17.655   4.903  1.00  0.00     0.186 HD
HETATM   42  H   UNK N   1      18.968  18.345   2.766  0.00  0.00     0.174 HD
HETATM   43  H   UNK N   1      19.238  20.000   2.669  0.00  0.00     0.174 HD
BRANCH  32  44
HETATM   44  N   UNK N   1      22.612  17.262   6.133  0.00  0.00    -0.383 N 
HETATM   45  H   UNK N   1      23.405  16.745   6.400  0.00  0.00     0.157 HD
HETATM   46  H   UNK N   1      21.843  17.162   6.741  0.00  0.00     0.157 HD
ENDBRANCH  32  44
ENDBRANCH  26  27
ENDBRANCH   4  26
ENDBRANCH   1   4
TORSDOF 13
ENDMDL
MODEL 5
REMARK VINA RESULT:      -7.7      3.494      4.488
REMARK  13 active torsions:
REMARK  status: ('A' for Active; 'I' for Inactive)
REMARK    1  A    between atoms: C_2  and  O_3 
REMARK    2  A    between atoms: C_2  and  C_4 
REMARK    3  A    between atoms: C_4  and  N_5 
REMARK    4  A    between atoms: C_4  and  C_35 
REMARK       I    between atoms: N_5  and  C_6 
REMARK    5  A    between atoms: C_6  and  C_8 
REMARK    6  A    between atoms: C_11  and  C_14 
REMARK    7  A    between atoms: C_14  and  C_15 
REMARK    8  A    between atoms: C_14  and  C_18 
REMARK    9  A    between atoms: C_18  and  C_19 
REMARK       I    between atoms: C_29  and  N_34 
REMARK   10  A    between atoms: C_32  and  N_33 
REMARK   11  A    between atoms: C_35  and  C_36 
REMARK   12  A    between atoms: C_36  and  C_37 
REMARK   13  A    between atoms: C_37  and  O_39 
ROOT
HETATM    1  C   UNK N   1      27.841  19.799   4.631  0.00  0.00     0.102 C 
HETATM    2  C   UNK N   1      27.433  20.817   5.599  0.00  0.00    -0.117 C 
HETATM    3  C   UNK N   1      27.110  21.644   6.412  0.00  0.00     0.012 C 
ENDROOT
BRANCH   1   4
HETATM    4  C   UNK N   1      27.391  18.452   5.178  0.00  0.00     0.035 C 
BRANCH   4   5
HETATM    5  C   UNK N   1      25.990  18.048   4.849  0.00  0.00    -0.053 A 
HETATM    6  C   UNK N   1      25.479  16.873   5.399  0.00  0.00     0.008 A 
HETATM    7  C   UNK N   1      24.126  16.610   5.318  0.00  0.00     0.017 A 
HETATM    8  C   UNK N   1      23.269  17.496   4.653  0.00  0.00     0.032 A 
HETATM    9  C   UNK N   1      23.792  18.608   3.988  0.00  0.00     0.017 A 
HETATM   10  C   UNK N   1      25.154  18.884   4.088  0.00  0.00     0.008 A 
BRANCH   8  11
HETATM   11  C   UNK N   1      21.867  17.518   5.064  0.00  0.00     0.252 C 
HETATM   12  N   UNK N   1      21.199  16.353   4.918  0.00  0.00    -0.343 N 
HETATM   13  H   UNK N   1      21.419  15.791   4.140  0.00  0.00     0.163 HD
HETATM   14  O   UNK N   1      21.447  18.395   5.806  0.00  0.00    -0.268 OA
BRANCH  12  15
HETATM   15  C   UNK N   1      20.186  15.877   5.824  0.00  0.00     0.183 C 
BRANCH  15  16
HETATM   16  C   UNK N   1      18.852  15.636   5.204  0.00  0.00     0.163 C 
HETATM   17  O   UNK N   1      17.844  15.866   5.851  0.00  0.00    -0.648 OA
BRANCH  16  18
HETATM   18  O   UNK N   1      18.749  15.210   3.932  0.00  0.00    -0.775 OA
HETATM   19  H   UNK N   1      18.469  14.989   3.065  0.00  0.00     0.167 HD
ENDBRANCH  16  18
ENDBRANCH  15  16
BRANCH  15  20
HETATM   20  C   UNK N   1      20.737  14.679   6.606  0.00  0.00     0.046 C 
BRANCH  20  21
HETATM   21  C   UNK N   1      21.411  15.084   7.919  0.00  0.00     0.112 C 
BRANCH  21  22
HETATM   22  C   UNK N   1      20.716  14.497   9.097  0.00  0.00     0.139 C 
HETATM   23  O   UNK N   1      19.499  14.541   9.181  0.00  0.00    -0.650 OA
BRANCH  22  24
HETATM   24  O   UNK N   1      21.433  13.891  10.059  0.00  0.00    -0.776 OA
HETATM   25  H   UNK N   1      22.082  14.364  10.542  0.00  0.00     0.167 HD
ENDBRANCH  22  24
ENDBRANCH  21  22
ENDBRANCH  20  21
ENDBRANCH  15  20
ENDBRANCH  12  15
ENDBRANCH   8  11
ENDBRANCH   4   5
BRANCH   4  26
HETATM   26  C   UNK N   1      28.437  17.379   4.922  0.00  0.00     0.068 C 
BRANCH  26  27
HETATM   27  C   UNK N   1      29.448  17.417   6.012  0.00  0.00     0.026 A 
HETATM   28  N   UNK N   1      30.768  17.302   5.714  0.00  0.00    -0.352 N 
HETATM   29  C   UNK N   1      31.694  17.275   6.709  0.00  0.00     0.122 A 
ATOM     30  HN  UNK N   1      31.066  17.235   4.741  1.00  0.00     0.166 HD
HETATM   31  C   UNK N   1      31.281  17.366   8.050  0.00  0.00     0.151 A 
HETATM   32  C   UNK N   1      33.057  17.153   6.440  0.00  0.00     0.145 A 
HETATM   33  N   UNK N   1      29.965  17.488   8.342  0.00  0.00    -0.348 N 
HETATM   34  N   UNK N   1      32.195  17.330   9.046  0.00  0.00    -0.174 N 
HETATM   35  C   UNK N   1      29.046  17.516   7.355  0.00  0.00     0.114 A 
ATOM     36  HN  UNK N   1      29.667  17.560   9.315  1.00  0.00     0.167 HD
HETATM   37  C   UNK N   1      33.517  17.209   8.764  0.00  0.00     0.679 A 
ATOM     38  HN  UNK N   1      31.888  17.396  10.016  1.00  0.00     0.186 HD
HETATM   39  N   UNK N   1      33.940  17.123   7.474  0.00  0.00    -0.175 N 
HETATM   40  N   UNK N   1      34.451  17.174   9.816  0.00  0.00    -0.234 N 
ATOM     41  HN  UNK N   1      34.937  17.033   7.278  1.00  0.00     0.186 HD
HETATM   42  H   UNK N   1      35.234  16.579   9.870  0.00  0.00     0.174 HD
HETATM   43  H   UNK N   1      34.311  17.799  10.564  0.00  0.00     0.174 HD
BRANCH  32  44
HETATM   44  N   UNK N   1      33.522  17.059   5.113  0.00  0.00    -0.383 N 
HETATM   45  H   UNK N   1      34.159  16.445   4.683  0.00  0.00     0.157 HD
HETATM   46  H   UNK N   1      33.139  17.732   4.504  0.00  0.00     0.157 HD
ENDBRANCH  32  44
ENDBRANCH  26  27
ENDBRANCH   4  26
ENDBRANCH   1   4
TORSDOF 13
ENDMDL
MODEL 6
REMARK VINA RESULT:      -7.6      1.549      2.076
REMARK  13 active torsions:
REMARK  status: ('A' for Active; 'I' for Inactive)
REMARK    1  A    between atoms: C_2  and  O_3 
REMARK    2  A    between atoms: C_2  and  C_4 
REMARK    3  A    between atoms: C_4  and  N_5 
REMARK    4  A    between atoms: C_4  and  C_35 
REMARK       I    between atoms: N_5  and  C_6 
REMARK    5  A    between atoms: C_6  and  C_8 
REMARK    6  A    between atoms: C_11  and  C_14 
REMARK    7  A    between atoms: C_14  and  C_15 
REMARK    8  A    between atoms: C_14  and  C_18 
REMARK    9  A    between atoms: C_18  and  C_19 
REMARK       I    between atoms: C_29  and  N_34 
REMARK   10  A    between atoms: C_32  and  N_33 
REMARK   11  A    between atoms: C_35  and  C_36 
REMARK   12  A    between atoms: C_36  and  C_37 
REMARK   13  A    between atoms: C_37  and  O_39 
ROOT
HETATM    1  C   UNK N   1      29.113  16.671   3.109  0.00  0.00     0.102 C 
HETATM    2  C   UNK N   1      28.226  15.647   2.559  0.00  0.00    -0.117 C 
HETATM    3  C   UNK N   1      27.477  14.819   2.107  0.00  0.00     0.012 C 
ENDROOT
BRANCH   1   4
HETATM    4  C   UNK N   1      28.519  17.117   4.436  0.00  0.00     0.035 C 
BRANCH   4   5
HETATM    5  C   UNK N   1      27.332  18.023   4.349  0.00  0.00    -0.053 A 
HETATM    6  C   UNK N   1      27.523  19.352   3.972  0.00  0.00     0.008 A 
HETATM    7  C   UNK N   1      26.434  20.134   3.643  0.00  0.00     0.017 A 
HETATM    8  C   UNK N   1      25.136  19.613   3.723  0.00  0.00     0.032 A 
HETATM    9  C   UNK N   1      24.928  18.326   4.225  0.00  0.00     0.017 A 
HETATM   10  C   UNK N   1      26.029  17.530   4.537  0.00  0.00     0.008 A 
BRANCH   8  11
HETATM   11  C   UNK N   1      24.115  20.204   2.860  0.00  0.00     0.252 C 
HETATM   12  N   UNK N   1      22.899  19.618   2.913  0.00  0.00    -0.343 N 
HETATM   13  H   UNK N   1      22.864  18.641   3.028  0.00  0.00     0.163 HD
HETATM   14  O   UNK N   1      24.249  21.336   2.418  0.00  0.00    -0.268 OA
BRANCH  12  15
HETATM   15  C   UNK N   1      21.649  20.327   2.811  0.00  0.00     0.183 C 
BRANCH  15  16
HETATM   16  C   UNK N   1      21.066  20.376   1.439  0.00  0.00     0.163 C 
HETATM   17  O   UNK N   1      20.966  21.452   0.873  0.00  0.00    -0.648 OA
BRANCH  16  18
HETATM   18  O   UNK N   1      20.690  19.249   0.809  0.00  0.00    -0.775 OA
HETATM   19  H   UNK N   1      20.537  18.555   0.197  0.00  0.00     0.167 HD
ENDBRANCH  16  18
ENDBRANCH  15  16
BRANCH  15  20
HETATM   20  C   UNK N   1      20.686  19.801   3.881  0.00  0.00     0.046 C 
BRANCH  20  21
HETATM   21  C   UNK N   1      21.104  18.440   4.440  0.00  0.00     0.112 C 
BRANCH  21  22
HETATM   22  C   UNK N   1      20.221  17.348   3.944  0.00  0.00     0.139 C 
HETATM   23  O   UNK N   1      19.573  17.495   2.921  0.00  0.00    -0.650 OA
BRANCH  22  24
HETATM   24  O   UNK N   1      20.161  16.185   4.616  0.00  0.00    -0.776 OA
HETATM   25  H   UNK N   1      20.818  15.529   4.495  0.00  0.00     0.167 HD
ENDBRANCH  22  24
ENDBRANCH  21  22
ENDBRANCH  20  21
ENDBRANCH  15  20
ENDBRANCH  12  15
ENDBRANCH   8  11
ENDBRANCH   4   5
BRANCH   4  26
HETATM   26  C   UNK N   1      28.350  15.942   5.386  0.00  0.00     0.068 C 
BRANCH  26  27
HETATM   27  C   UNK N   1      29.651  15.667   6.054  0.00  0.00     0.026 A 
HETATM   28  N   UNK N   1      30.100  16.498   7.029  0.00  0.00    -0.352 N 
HETATM   29  C   UNK N   1      31.314  16.288   7.602  0.00  0.00     0.122 A 
ATOM     30  HN  UNK N   1      29.523  17.283   7.334  1.00  0.00     0.166 HD
HETATM   31  C   UNK N   1      32.107  15.207   7.181  0.00  0.00     0.151 A 
HETATM   32  C   UNK N   1      31.808  17.124   8.603  0.00  0.00     0.145 A 
HETATM   33  N   UNK N   1      31.653  14.376   6.213  0.00  0.00    -0.348 N 
HETATM   34  N   UNK N   1      33.320  14.996   7.739  0.00  0.00    -0.174 N 
HETATM   35  C   UNK N   1      30.447  14.584   5.645  0.00  0.00     0.114 A 
ATOM     36  HN  UNK N   1      32.227  13.588   5.912  1.00  0.00     0.167 HD
HETATM   37  C   UNK N   1      33.785  15.822   8.710  0.00  0.00     0.679 A 
ATOM     38  HN  UNK N   1      33.891  14.210   7.427  1.00  0.00     0.186 HD
HETATM   39  N   UNK N   1      33.033  16.873   9.136  0.00  0.00    -0.175 N 
HETATM   40  N   UNK N   1      35.051  15.585   9.277  0.00  0.00    -0.234 N 
ATOM     41  HN  UNK N   1      33.396  17.485   9.868  1.00  0.00     0.186 HD
HETATM   42  H   UNK N   1      35.721  16.273   9.496  0.00  0.00     0.174 HD
HETATM   43  H   UNK N   1      35.288  14.650   9.473  0.00  0.00     0.174 HD
BRANCH  32  44
HETATM   44  N   UNK N   1      31.051  18.222   9.062  0.00  0.00    -0.383 N 
HETATM   45  H   UNK N   1      30.111  18.475   8.920  0.00  0.00     0.157 HD
HETATM   46  H   UNK N   1      31.556  18.849   9.629  0.00  0.00     0.157 HD
ENDBRANCH  32  44
ENDBRANCH  26  27
ENDBRANCH   4  26
ENDBRANCH   1   4
TORSDOF 13
ENDMDL
MODEL 7
REMARK VINA RESULT:      -7.5      1.825      3.562
REMARK  13 active torsions:
REMARK  status: ('A' for Active; 'I' for Inactive)
REMARK    1  A    between atoms: C_2  and  O_3 
REMARK    2  A    between atoms: C_2  and  C_4 
REMARK    3  A    between atoms: C_4  and  N_5 
REMARK    4  A    between atoms: C_4  and  C_35 
REMARK       I    between atoms: N_5  and  C_6 
REMARK    5  A    between atoms: C_6  and  C_8 
REMARK    6  A    between atoms: C_11  and  C_14 
REMARK    7  A    between atoms: C_14  and  C_15 
REMARK    8  A    between atoms: C_14  and  C_18 
REMARK    9  A    between atoms: C_18  and  C_19 
REMARK       I    between atoms: C_29  and  N_34 
REMARK   10  A    between atoms: C_32  and  N_33 
REMARK   11  A    between atoms: C_35  and  C_36 
REMARK   12  A    between atoms: C_36  and  C_37 
REMARK   13  A    between atoms: C_37  and  O_39 
ROOT
HETATM    1  C   UNK N   1      27.785  19.782   4.534  0.00  0.00     0.102 C 
HETATM    2  C   UNK N   1      27.546  20.830   5.525  0.00  0.00    -0.117 C 
HETATM    3  C   UNK N   1      27.366  21.684   6.356  0.00  0.00     0.012 C 
ENDROOT
BRANCH   1   4
HETATM    4  C   UNK N   1      27.570  18.446   5.229  0.00  0.00     0.035 C 
BRANCH   4   5
HETATM    5  C   UNK N   1      26.194  17.870   5.126  0.00  0.00    -0.053 A 
HETATM    6  C   UNK N   1      25.191  18.622   4.516  0.00  0.00     0.008 A 
HETATM    7  C   UNK N   1      23.991  18.023   4.185  0.00  0.00     0.017 A 
HETATM    8  C   UNK N   1      23.760  16.677   4.495  0.00  0.00     0.032 A 
HETATM    9  C   UNK N   1      24.709  15.953   5.222  0.00  0.00     0.017 A 
HETATM   10  C   UNK N   1      25.928  16.551   5.537  0.00  0.00     0.008 A 
BRANCH   8  11
HETATM   11  C   UNK N   1      22.804  15.945   3.665  0.00  0.00     0.252 C 
HETATM   12  N   UNK N   1      21.525  16.373   3.737  0.00  0.00    -0.343 N 
HETATM   13  H   UNK N   1      21.195  16.693   4.608  0.00  0.00     0.163 HD
HETATM   14  O   UNK N   1      23.187  15.261   2.727  0.00  0.00    -0.268 OA
BRANCH  12  15
HETATM   15  C   UNK N   1      20.610  16.392   2.625  0.00  0.00     0.183 C 
BRANCH  15  16
HETATM   16  C   UNK N   1      19.700  15.214   2.541  0.00  0.00     0.163 C 
HETATM   17  O   UNK N   1      19.453  14.579   3.552  0.00  0.00    -0.648 OA
BRANCH  16  18
HETATM   18  O   UNK N   1      19.119  14.873   1.376  0.00  0.00    -0.775 OA
HETATM   19  H   UNK N   1      18.789  14.432   0.618  0.00  0.00     0.167 HD
ENDBRANCH  16  18
ENDBRANCH  15  16
BRANCH  15  20
HETATM   20  C   UNK N   1      19.887  17.744   2.595  0.00  0.00     0.046 C 
BRANCH  20  21
HETATM   21  C   UNK N   1      20.849  18.933   2.552  0.00  0.00     0.112 C 
BRANCH  21  22
HETATM   22  C   UNK N   1      20.692  19.810   3.745  0.00  0.00     0.139 C 
HETATM   23  O   UNK N   1      20.253  20.942   3.624  0.00  0.00    -0.650 OA
BRANCH  22  24
HETATM   24  O   UNK N   1      21.009  19.339   4.963  0.00  0.00    -0.776 OA
HETATM   25  H   UNK N   1      20.360  19.273   5.635  0.00  0.00     0.167 HD
ENDBRANCH  22  24
ENDBRANCH  21  22
ENDBRANCH  20  21
ENDBRANCH  15  20
ENDBRANCH  12  15
ENDBRANCH   8  11
ENDBRANCH   4   5
BRANCH   4  26
HETATM   26  C   UNK N   1      28.690  17.472   4.906  0.00  0.00     0.068 C 
BRANCH  26  27
HETATM   27  C   UNK N   1      29.686  17.493   6.011  0.00  0.00     0.026 A 
HETATM   28  N   UNK N   1      30.997  17.263   5.744  0.00  0.00    -0.352 N 
HETATM   29  C   UNK N   1      31.905  17.222   6.756  0.00  0.00     0.122 A 
ATOM     30  HN  UNK N   1      31.303  17.121   4.781  1.00  0.00     0.166 HD
HETATM   31  C   UNK N   1      31.480  17.417   8.081  0.00  0.00     0.151 A 
HETATM   32  C   UNK N   1      33.258  16.984   6.519  0.00  0.00     0.145 A 
HETATM   33  N   UNK N   1      30.174  17.653   8.343  0.00  0.00    -0.348 N 
HETATM   34  N   UNK N   1      32.375  17.368   9.095  0.00  0.00    -0.174 N 
HETATM   35  C   UNK N   1      29.273  17.696   7.338  0.00  0.00     0.114 A 
ATOM     36  HN  UNK N   1      29.868  17.801   9.305  1.00  0.00     0.167 HD
HETATM   37  C   UNK N   1      33.687  17.132   8.845  0.00  0.00     0.679 A 
ATOM     38  HN  UNK N   1      32.060  17.509  10.055  1.00  0.00     0.186 HD
HETATM   39  N   UNK N   1      34.121  16.944   7.568  0.00  0.00    -0.175 N 
HETATM   40  N   UNK N   1      34.601  17.085   9.914  0.00  0.00    -0.234 N 
ATOM     41  HN  UNK N   1      35.111  16.769   7.396  1.00  0.00     0.186 HD
HETATM   42  H   UNK N   1      35.336  16.437  10.013  0.00  0.00     0.174 HD
HETATM   43  H   UNK N   1      34.498  17.759  10.624  0.00  0.00     0.174 HD
BRANCH  32  44
HETATM   44  N   UNK N   1      33.734  16.783   5.207  0.00  0.00    -0.383 N 
HETATM   45  H   UNK N   1      34.480  17.189   4.710  0.00  0.00     0.157 HD
HETATM   46  H   UNK N   1      33.227  16.111   4.694  0.00  0.00     0.157 HD
ENDBRANCH  32  44
ENDBRANCH  26  27
ENDBRANCH   4  26
ENDBRANCH   1   4
TORSDOF 13
ENDMDL
MODEL 8
REMARK VINA RESULT:      -7.5     13.495     17.966
REMARK  13 active torsions:
REMARK  status: ('A' for Active; 'I' for Inactive)
REMARK    1  A    between atoms: C_2  and  O_3 
REMARK    2  A    between atoms: C_2  and  C_4 
REMARK    3  A    between atoms: C_4  and  N_5 
REMARK    4  A    between atoms: C_4  and  C_35 
REMARK       I    between atoms: N_5  and  C_6 
REMARK    5  A    between atoms: C_6  and  C_8 
REMARK    6  A    between atoms: C_11  and  C_14 
REMARK    7  A    between atoms: C_14  and  C_15 
REMARK    8  A    between atoms: C_14  and  C_18 
REMARK    9  A    between atoms: C_18  and  C_19 
REMARK       I    between atoms: C_29  and  N_34 
REMARK   10  A    between atoms: C_32  and  N_33 
REMARK   11  A    between atoms: C_35  and  C_36 
REMARK   12  A    between atoms: C_36  and  C_37 
REMARK   13  A    between atoms: C_37  and  O_39 
ROOT
HETATM    1  C   UNK N   1      33.796  11.101  14.762  0.00  0.00     0.102 C 
HETATM    2  C   UNK N   1      34.363  10.067  13.896  0.00  0.00    -0.117 C 
HETATM    3  C   UNK N   1      34.844   9.210  13.200  0.00  0.00     0.012 C 
ENDROOT
BRANCH   1   4
HETATM    4  C   UNK N   1      34.949  11.969  15.242  0.00  0.00     0.035 C 
BRANCH   4   5
HETATM    5  C   UNK N   1      35.433  11.705  16.632  0.00  0.00    -0.053 A 
HETATM    6  C   UNK N   1      35.074  12.587  17.651  0.00  0.00     0.008 A 
HETATM    7  C   UNK N   1      35.291  12.236  18.969  0.00  0.00     0.017 A 
HETATM    8  C   UNK N   1      35.905  11.018  19.287  0.00  0.00     0.032 A 
HETATM    9  C   UNK N   1      36.385  10.189  18.269  0.00  0.00     0.017 A 
HETATM   10  C   UNK N   1      36.147  10.533  16.940  0.00  0.00     0.008 A 
BRANCH   8  11
HETATM   11  C   UNK N   1      35.604  10.428  20.590  0.00  0.00     0.252 C 
HETATM   12  N   UNK N   1      34.424  10.795  21.136  0.00  0.00    -0.343 N 
HETATM   13  H   UNK N   1      34.119  11.720  20.992  0.00  0.00     0.163 HD
HETATM   14  O   UNK N   1      36.189   9.424  20.972  0.00  0.00    -0.268 OA
BRANCH  12  15
HETATM   15  C   UNK N   1      33.583   9.924  21.915  0.00  0.00     0.183 C 
BRANCH  15  16
HETATM   16  C   UNK N   1      33.587  10.195  23.382  0.00  0.00     0.163 C 
HETATM   17  O   UNK N   1      34.324   9.547  24.105  0.00  0.00    -0.648 OA
BRANCH  16  18
HETATM   18  O   UNK N   1      32.821  11.169  23.905  0.00  0.00    -0.775 OA
HETATM   19  H   UNK N   1      32.464  11.880  24.401  0.00  0.00     0.167 HD
ENDBRANCH  16  18
ENDBRANCH  15  16
BRANCH  15  20
HETATM   20  C   UNK N   1      32.184   9.888  21.290  0.00  0.00     0.046 C 
BRANCH  20  21
HETATM   21  C   UNK N   1      31.813   8.509  20.740  0.00  0.00     0.112 C 
BRANCH  21  22
HETATM   22  C   UNK N   1      32.833   8.009  19.778  0.00  0.00     0.139 C 
HETATM   23  O   UNK N   1      33.257   8.737  18.895  0.00  0.00    -0.650 OA
BRANCH  22  24
HETATM   24  O   UNK N   1      33.307   6.757  19.902  0.00  0.00    -0.776 OA
HETATM   25  H   UNK N   1      33.366   6.192  19.158  0.00  0.00     0.167 HD
ENDBRANCH  22  24
ENDBRANCH  21  22
ENDBRANCH  20  21
ENDBRANCH  15  20
ENDBRANCH  12  15
ENDBRANCH   8  11
ENDBRANCH   4   5
BRANCH   4  26
HETATM   26  C   UNK N   1      36.048  12.052  14.195  0.00  0.00     0.068 C 
BRANCH  26  27
HETATM   27  C   UNK N   1      35.851  13.282  13.380  0.00  0.00     0.026 A 
HETATM   28  N   UNK N   1      35.134  13.222  12.228  0.00  0.00    -0.352 N 
HETATM   29  C   UNK N   1      35.000  14.328  11.448  0.00  0.00     0.122 A 
ATOM     30  HN  UNK N   1      34.695  12.345  11.947  1.00  0.00     0.166 HD
HETATM   31  C   UNK N   1      35.607  15.534  11.838  0.00  0.00     0.151 A 
HETATM   32  C   UNK N   1      34.276  14.302  10.257  0.00  0.00     0.145 A 
HETATM   33  N   UNK N   1      36.314  15.591  12.990  0.00  0.00    -0.348 N 
HETATM   34  N   UNK N   1      35.487  16.636  11.063  0.00  0.00    -0.174 N 
HETATM   35  C   UNK N   1      36.446  14.494  13.765  0.00  0.00     0.114 A 
ATOM     36  HN  UNK N   1      36.749  16.469  13.275  1.00  0.00     0.167 HD
HETATM   37  C   UNK N   1      34.780  16.591   9.906  0.00  0.00     0.679 A 
ATOM     38  HN  UNK N   1      35.931  17.508  11.351  1.00  0.00     0.186 HD
HETATM   39  N   UNK N   1      34.181  15.434   9.511  0.00  0.00    -0.175 N 
HETATM   40  N   UNK N   1      34.667  17.749   9.114  0.00  0.00    -0.234 N 
ATOM     41  HN  UNK N   1      33.651  15.416   8.639  1.00  0.00     0.186 HD
HETATM   42  H   UNK N   1      34.729  17.781   8.132  0.00  0.00     0.174 HD
HETATM   43  H   UNK N   1      34.513  18.601   9.583  0.00  0.00     0.174 HD
BRANCH  32  44
HETATM   44  N   UNK N   1      33.647  13.117   9.823  0.00  0.00    -0.383 N 
HETATM   45  H   UNK N   1      33.364  12.309  10.309  0.00  0.00     0.157 HD
HETATM   46  H   UNK N   1      33.457  13.093   8.857  0.00  0.00     0.157 HD
ENDBRANCH  32  44
ENDBRANCH  26  27
ENDBRANCH   4  26
ENDBRANCH   1   4
TORSDOF 13
ENDMDL
MODEL 9
REMARK VINA RESULT:      -7.5      4.764      6.395
REMARK  13 active torsions:
REMARK  status: ('A' for Active; 'I' for Inactive)
REMARK    1  A    between atoms: C_2  and  O_3 
REMARK    2  A    between atoms: C_2  and  C_4 
REMARK    3  A    between atoms: C_4  and  N_5 
REMARK    4  A    between atoms: C_4  and  C_35 
REMARK       I    between atoms: N_5  and  C_6 
REMARK    5  A    between atoms: C_6  and  C_8 
REMARK    6  A    between atoms: C_11  and  C_14 
REMARK    7  A    between atoms: C_14  and  C_15 
REMARK    8  A    between atoms: C_14  and  C_18 
REMARK    9  A    between atoms: C_18  and  C_19 
REMARK       I    between atoms: C_29  and  N_34 
REMARK   10  A    between atoms: C_32  and  N_33 
REMARK   11  A    between atoms: C_35  and  C_36 
REMARK   12  A    between atoms: C_36  and  C_37 
REMARK   13  A    between atoms: C_37  and  O_39 
ROOT
HETATM    1  C   UNK N   1      27.676  19.065   4.268  0.00  0.00     0.102 C 
HETATM    2  C   UNK N   1      27.607  20.005   5.387  0.00  0.00    -0.117 C 
HETATM    3  C   UNK N   1      27.574  20.774   6.313  0.00  0.00     0.012 C 
ENDROOT
BRANCH   1   4
HETATM    4  C   UNK N   1      28.192  17.745   4.819  0.00  0.00     0.035 C 
BRANCH   4   5
HETATM    5  C   UNK N   1      27.155  16.706   5.103  0.00  0.00    -0.053 A 
HETATM    6  C   UNK N   1      27.100  16.136   6.375  0.00  0.00     0.008 A 
HETATM    7  C   UNK N   1      26.009  15.370   6.736  0.00  0.00     0.017 A 
HETATM    8  C   UNK N   1      24.977  15.129   5.820  0.00  0.00     0.032 A 
HETATM    9  C   UNK N   1      25.087  15.586   4.504  0.00  0.00     0.017 A 
HETATM   10  C   UNK N   1      26.177  16.377   4.147  0.00  0.00     0.008 A 
BRANCH   8  11
HETATM   11  C   UNK N   1      23.646  14.850   6.358  0.00  0.00     0.252 C 
HETATM   12  N   UNK N   1      23.419  13.566   6.711  0.00  0.00    -0.343 N 
HETATM   13  H   UNK N   1      23.827  12.858   6.161  0.00  0.00     0.163 HD
HETATM   14  O   UNK N   1      22.943  15.754   6.786  0.00  0.00    -0.268 OA
BRANCH  12  15
HETATM   15  C   UNK N   1      22.619  13.163   7.839  0.00  0.00     0.183 C 
BRANCH  15  16
HETATM   16  C   UNK N   1      21.161  13.026   7.557  0.00  0.00     0.163 C 
HETATM   17  O   UNK N   1      20.751  12.013   7.016  0.00  0.00    -0.648 OA
BRANCH  16  18
HETATM   18  O   UNK N   1      20.294  13.985   7.929  0.00  0.00    -0.775 OA
HETATM   19  H   UNK N   1      19.681  14.535   8.377  0.00  0.00     0.167 HD
ENDBRANCH  16  18
ENDBRANCH  15  16
BRANCH  15  20
HETATM   20  C   UNK N   1      23.250  11.922   8.482  0.00  0.00     0.046 C 
BRANCH  20  21
HETATM   21  C   UNK N   1      24.312  12.269   9.527  0.00  0.00     0.112 C 
BRANCH  21  22
HETATM   22  C   UNK N   1      23.791  12.117  10.913  0.00  0.00     0.139 C 
HETATM   23  O   UNK N   1      22.633  11.783  11.103  0.00  0.00    -0.650 OA
BRANCH  22  24
HETATM   24  O   UNK N   1      24.610  12.323  11.958  0.00  0.00    -0.776 OA
HETATM   25  H   UNK N   1      24.827  11.623  12.542  0.00  0.00     0.167 HD
ENDBRANCH  22  24
ENDBRANCH  21  22
ENDBRANCH  20  21
ENDBRANCH  15  20
ENDBRANCH  12  15
ENDBRANCH   8  11
ENDBRANCH   4   5
BRANCH   4  26
HETATM   26  C   UNK N   1      29.387  17.246   4.024  0.00  0.00     0.068 C 
BRANCH  26  27
HETATM   27  C   UNK N   1      30.595  17.279   4.891  0.00  0.00     0.026 A 
HETATM   28  N   UNK N   1      30.463  17.186   6.239  0.00  0.00    -0.352 N 
HETATM   29  C   UNK N   1      31.557  17.275   7.041  0.00  0.00     0.122 A 
ATOM     30  HN  UNK N   1      29.540  17.049   6.651  1.00  0.00     0.166 HD
HETATM   31  C   UNK N   1      32.827  17.465   6.471  0.00  0.00     0.151 A 
HETATM   32  C   UNK N   1      31.457  17.189   8.430  0.00  0.00     0.145 A 
HETATM   33  N   UNK N   1      32.956  17.549   5.126  0.00  0.00    -0.348 N 
HETATM   34  N   UNK N   1      33.919  17.564   7.263  0.00  0.00    -0.174 N 
HETATM   35  C   UNK N   1      31.870  17.460   4.329  0.00  0.00     0.114 A 
ATOM     36  HN  UNK N   1      33.879  17.681   4.713  1.00  0.00     0.167 HD
HETATM   37  C   UNK N   1      33.802  17.480   8.612  0.00  0.00     0.679 A 
ATOM     38  HN  UNK N   1      34.838  17.703   6.841  1.00  0.00     0.186 HD
HETATM   39  N   UNK N   1      32.582  17.293   9.186  0.00  0.00    -0.175 N 
HETATM   40  N   UNK N   1      34.952  17.586   9.417  0.00  0.00    -0.234 N 
ATOM     41  HN  UNK N   1      32.511  17.231  10.201  1.00  0.00     0.186 HD
HETATM   42  H   UNK N   1      35.016  18.086  10.263  0.00  0.00     0.174 HD
HETATM   43  H   UNK N   1      35.762  17.120   9.108  0.00  0.00     0.174 HD
BRANCH  32  44
HETATM   44  N   UNK N   1      30.206  16.998   9.051  0.00  0.00    -0.383 N 
HETATM   45  H   UNK N   1      29.537  17.636   9.387  0.00  0.00     0.157 HD
HETATM   46  H   UNK N   1      29.956  16.053   9.168  0.00  0.00     0.157 HD
ENDBRANCH  32  44
ENDBRANCH  26  27
ENDBRANCH   4  26
ENDBRANCH   1   4
TORSDOF 13
ENDMDL
