REMARK  17 active torsions:
REMARK  status: ('A' for Active; 'I' for Inactive)
REMARK    1  A    between atoms: C_3  and  O_50 
REMARK    2  A    between atoms: C_5  and  O_40 
REMARK    3  A    between atoms: C_7  and  O_20 
REMARK    4  A    between atoms: C_11  and  O_23 
REMARK    5  A    between atoms: C_13  and  O_27 
REMARK    6  A    between atoms: C_16  and  O_31 
REMARK    7  A    between atoms: O_27  and  C_28 
REMARK    8  A    between atoms: C_38  and  O_31 
REMARK    9  A    between atoms: C_37  and  C_38 
REMARK   10  A    between atoms: C_47  and  C_45 
REMARK   11  A    between atoms: C_47  and  C_48 
REMARK   12  A    between atoms: C_47  and  N_53 
REMARK   13  A    between atoms: C_48  and  C_49 
REMARK   14  A    between atoms: C_48  and  O_52 
REMARK   15  A    between atoms: C_49  and  O_50 
REMARK       I    between atoms: N_53  and  C_54 
REMARK   16  A    between atoms: C_54  and  O_55 
REMARK   17  A    between atoms: O_55  and  C_56 
ROOT
HETATM    1  C   UNK N   1       1.085   1.831  -0.341  0.00  0.00    -0.029 C 
HETATM    2  C   UNK N   1       0.028   1.629   0.496  0.00  0.00    -0.048 C 
HETATM    3  C   UNK N   1      -0.843   0.408   0.317  0.00  0.00     0.164 C 
HETATM    4  C   UNK N   1       0.078  -0.784   0.076  0.00  0.00     0.078 C 
HETATM    5  C   UNK N   1       1.258  -0.547  -0.928  0.00  0.00     0.098 C 
HETATM    6  C   UNK N   1       1.235   0.886  -1.526  0.00  0.00     0.013 C 
HETATM    7  C   UNK N   1       2.132   2.856  -0.001  0.00  0.00     0.221 C 
HETATM    8  C   UNK N   1       4.285   1.164   0.197  0.00  0.00     0.055 C 
HETATM    9  C   UNK N   1       3.521   2.394  -0.417  0.00  0.00     0.171 C 
HETATM   10  C   UNK N   1      -0.192   2.471   1.721  0.00  0.00     0.046 C 
HETATM   11  C   UNK N   1       5.816   1.465  -0.093  0.00  0.00     0.139 C 
HETATM   12  C   UNK N   1       3.986  -0.339  -0.364  0.00  0.00     0.076 C 
HETATM   13  C   UNK N   1       5.080  -1.377   0.142  0.00  0.00     0.125 C 
HETATM   14  C   UNK N   1       6.521  -0.937   0.346  0.00  0.00     0.161 C 
HETATM   15  C   UNK N   1       6.771   0.529   0.615  0.00  0.00     0.068 C 
HETATM   16  C   UNK N   1       2.537  -1.002  -0.099  0.00  0.00     0.176 C 
HETATM   17  C   UNK N   1       2.389   1.090  -2.502  0.00  0.00     0.023 C 
HETATM   18  C   UNK N   1       0.066   1.115  -2.482  0.00  0.00     0.023 C 
HETATM   19  O   UNK N   1       4.093   3.094  -1.245  0.00  0.00    -0.294 OA
HETATM   20  C   UNK N   1       4.046   1.179   1.710  0.00  0.00     0.027 C 
HETATM   21  O   UNK N   1       6.559  -1.535   1.621  0.00  0.00    -0.380 OA
HETATM   22  C   UNK N   1       5.157  -1.718   1.610  0.00  0.00     0.210 C 
ENDROOT
BRANCH   3  23
HETATM   23  O   UNK N   1      -1.740   0.461  -0.734  0.00  0.00    -0.309 OA
BRANCH  23  24
HETATM   24  C   UNK N   1      -2.913  -0.230  -0.763  0.00  0.00     0.290 C 
HETATM   25  O   UNK N   1      -3.204  -0.859  -1.772  0.00  0.00    -0.262 OA
BRANCH  24  26
HETATM   26  C   UNK N   1      -3.884  -0.168   0.402  0.00  0.00     0.244 C 
BRANCH  26  27
HETATM   27  C   UNK N   1      -5.183  -0.937   0.087  0.00  0.00     0.158 C 
BRANCH  27  28
HETATM   28  C   UNK N   1      -6.325  -0.033  -0.333  0.00  0.00    -0.032 A 
HETATM   29  C   UNK N   1      -7.602  -0.178   0.236  0.00  0.00     0.009 A 
HETATM   30  C   UNK N   1      -8.648   0.667  -0.145  0.00  0.00     0.001 A 
HETATM   31  C   UNK N   1      -8.424   1.676  -1.083  0.00  0.00     0.000 A 
HETATM   32  C   UNK N   1      -7.158   1.833  -1.652  0.00  0.00     0.001 A 
HETATM   33  C   UNK N   1      -6.115   0.976  -1.287  0.00  0.00     0.009 A 
ENDBRANCH  27  28
BRANCH  27  34
HETATM   34  N   UNK N   1      -5.557  -1.773   1.212  0.00  0.00    -0.325 N 
HETATM   35  C   UNK N   1      -5.394  -3.110   1.176  0.00  0.00     0.361 C 
HETATM   36  O   UNK N   1      -5.701  -3.768   2.168  0.00  0.00    -0.238 OA
HETATM   37  H   UNK N   1      -5.939  -1.355   2.018  0.00  0.00     0.165 HD
BRANCH  35  38
HETATM   38  O   UNK N   1      -4.864  -3.718   0.081  0.00  0.00    -0.294 OA
BRANCH  38  39
HETATM   39  C   UNK N   1      -5.024  -5.050  -0.273  0.00  0.00     0.061 C 
HETATM   40  C   UNK N   1      -6.447  -5.292  -0.742  0.00  0.00     0.046 C 
HETATM   41  C   UNK N   1      -4.097  -5.364  -1.427  0.00  0.00     0.046 C 
HETATM   42  C   UNK N   1      -4.697  -6.002   0.870  0.00  0.00     0.046 C 
ENDBRANCH  38  39
ENDBRANCH  35  38
ENDBRANCH  27  34
ENDBRANCH  26  27
BRANCH  26  43
HETATM   43  O   UNK N   1      -3.303  -0.705   1.553  0.00  0.00    -0.383 OA
HETATM   44  H   UNK N   1      -3.424  -1.240   2.353  0.00  0.00     0.210 HD
ENDBRANCH  26  43
ENDBRANCH  24  26
ENDBRANCH  23  24
ENDBRANCH   3  23
BRANCH   5  45
HETATM   45  O   UNK N   1       1.080  -1.417  -2.015  0.00  0.00    -0.386 OA
HETATM   46  H   UNK N   1       0.498  -1.611  -2.767  0.00  0.00     0.210 HD
ENDBRANCH   5  45
BRANCH   7  47
HETATM   47  O   UNK N   1       1.813   4.077  -0.647  0.00  0.00    -0.379 OA
HETATM   48  C   UNK N   1       1.046   4.874   0.220  0.00  0.00     0.202 C 
ENDBRANCH   7  47
BRANCH  16  49
HETATM   49  O   UNK N   1       2.570  -2.383  -0.335  0.00  0.00    -0.308 OA
BRANCH  49  50
HETATM   50  C   UNK N   1       2.301  -3.388   0.545  0.00  0.00     0.293 C 
HETATM   51  O   UNK N   1       3.182  -3.797   1.283  0.00  0.00    -0.259 OA
BRANCH  50  52
HETATM   52  C   UNK N   1       0.992  -4.087   0.518  0.00  0.00     0.039 A 
HETATM   53  C   UNK N   1       0.779  -5.223   1.313  0.00  0.00     0.017 A 
HETATM   54  C   UNK N   1      -0.465  -5.861   1.317  0.00  0.00     0.001 A 
HETATM   55  C   UNK N   1      -1.510  -5.356   0.542  0.00  0.00     0.000 A 
HETATM   56  C   UNK N   1      -1.306  -4.231  -0.258  0.00  0.00     0.001 A 
HETATM   57  C   UNK N   1      -0.056  -3.613  -0.280  0.00  0.00     0.017 A 
ENDBRANCH  50  52
ENDBRANCH  49  50
ENDBRANCH  16  49
BRANCH  13  58
HETATM   58  O   UNK N   1       5.022  -2.534  -0.649  0.00  0.00    -0.305 OA
BRANCH  58  59
HETATM   59  C   UNK N   1       5.619  -3.760  -0.530  0.00  0.00     0.255 C 
HETATM   60  O   UNK N   1       5.298  -4.644  -1.306  0.00  0.00    -0.266 OA
HETATM   61  C   UNK N   1       6.626  -4.083   0.527  0.00  0.00     0.126 C 
ENDBRANCH  58  59
ENDBRANCH  13  58
BRANCH  11  62
HETATM   62  O   UNK N   1       6.217   2.813   0.138  0.00  0.00    -0.389 OA
HETATM   63  C   UNK N   1       6.184   3.136   1.505  0.00  0.00     0.202 C 
ENDBRANCH  11  62
TORSDOF 17
