MODEL 1
REMARK VINA RESULT:      -8.4      0.000      0.000
REMARK  14 active torsions:
REMARK  status: ('A' for Active; 'I' for Inactive)
REMARK    1  A    between atoms: C_15  and  C_19 
REMARK    2  A    between atoms: C_19  and  C_24 
REMARK    3  A    between atoms: C_29  and  C_24 
REMARK    4  A    between atoms: C_32  and  O_38 
REMARK    5  A    between atoms: C_39  and  O_46 
REMARK    6  A    between atoms: C_45  and  O_50 
REMARK    7  A    between atoms: C_47  and  O_52 
REMARK    8  A    between atoms: O_50  and  C_65 
REMARK    9  A    between atoms: C_51  and  O_55 
REMARK   10  A    between atoms: C_65  and  C_66 
REMARK   11  A    between atoms: C_66  and  C_69 
REMARK   12  A    between atoms: C_66  and  C_70 
REMARK   13  A    between atoms: C_69  and  O_72 
REMARK   14  A    between atoms: C_70  and  O_73 
ROOT
HETATM    1  N   UNK N   1      32.720  12.551   1.866  0.00  0.00    -0.331 N 
HETATM    2  C   UNK N   1      32.846  13.254   3.141  0.00  0.00     0.187 C 
HETATM    3  C   UNK N   1      31.496  12.097   1.430  0.00  0.00     0.296 C 
HETATM    4  C   UNK N   1      33.955  12.124   1.216  0.00  0.00     0.127 C 
HETATM    5  C   UNK N   1      31.630  13.285   4.039  0.00  0.00     0.282 C 
HETATM    6  C   UNK N   1      33.859  14.396   3.187  0.00  0.00     0.035 C 
HETATM    7  C   UNK N   1      31.339  10.850   0.633  0.00  0.00     0.278 C 
HETATM    8  O   UNK N   1      30.472  12.640   1.829  0.00  0.00    -0.264 OA
HETATM    9  C   UNK N   1      35.210  12.621   1.945  0.00  0.00     0.020 C 
HETATM   10  O   UNK N   1      30.690  14.250   3.920  0.00  0.00    -0.314 OA
HETATM   11  O   UNK N   1      31.405  12.324   4.754  0.00  0.00    -0.263 OA
HETATM   12  C   UNK N   1      35.085  14.100   2.317  0.00  0.00     0.004 C 
HETATM   13  C   UNK N   1      30.052  10.033   0.793  0.00  0.00     0.238 C 
HETATM   14  O   UNK N   1      32.343  10.286   0.214  0.00  0.00    -0.281 OA
HETATM   15  C   UNK N   1      30.887  15.433   3.247  0.00  0.00     0.142 C 
HETATM   16  O   UNK N   1      28.939  10.921   0.924  0.00  0.00    -0.343 OA
HETATM   17  C   UNK N   1      29.836   9.091  -0.417  0.00  0.00     0.053 C 
HETATM   18  O   UNK N   1      30.188   9.277   1.969  0.00  0.00    -0.359 OA
HETATM   19  C   UNK N   1      29.585  15.901   2.583  0.00  0.00     0.112 C 
HETATM   20  C   UNK N   1      27.694  10.258   1.106  0.00  0.00     0.128 C 
HETATM   21  C   UNK N   1      28.528   8.347  -0.256  0.00  0.00     0.013 C 
HETATM   22  C   UNK N   1      30.941   8.059  -0.588  0.00  0.00     0.016 C 
HETATM   23  C   UNK N   1      28.322  15.853   3.393  0.00  0.00     0.136 C 
HETATM   24  C   UNK N   1      26.611  11.345   1.168  0.00  0.00     0.068 C 
HETATM   25  C   UNK N   1      27.421   9.362  -0.101  0.00  0.00     0.033 C 
HETATM   26  C   UNK N   1      27.908  14.609   4.168  0.00  0.00     0.074 C 
HETATM   27  O   UNK N   1      27.606  16.846   3.396  0.00  0.00    -0.297 OA
HETATM   28  C   UNK N   1      25.135  10.913   1.325  0.00  0.00     0.151 C 
HETATM   29  C   UNK N   1      26.580  14.822   4.851  0.00  0.00    -0.010 C 
HETATM   30  C   UNK N   1      27.902  13.359   3.302  0.00  0.00     0.022 C 
HETATM   31  C   UNK N   1      24.453  11.045   2.681  0.00  0.00    -0.055 C 
HETATM   32  C   UNK N   1      25.413  14.953   4.190  0.00  0.00    -0.056 C 
HETATM   33  C   UNK N   1      23.123  10.909   2.811  0.00  0.00     0.005 C 
HETATM   34  C   UNK N   1      25.252  11.378   3.897  0.00  0.00     0.046 C 
HETATM   35  C   UNK N   1      24.204  15.493   4.916  0.00  0.00     0.183 C 
HETATM   36  C   UNK N   1      25.365  14.830   2.696  0.00  0.00     0.046 C 
HETATM   37  C   UNK N   1      22.238  10.546   1.680  0.00  0.00     0.000 C 
HETATM   38  C   UNK N   1      22.862  14.739   4.835  0.00  0.00     0.223 C 
HETATM   39  C   UNK N   1      20.902  10.588   1.750  0.00  0.00    -0.000 C 
HETATM   40  C   UNK N   1      21.707  15.660   5.234  0.00  0.00     0.162 C 
HETATM   41  C   UNK N   1      20.192  11.124   2.917  0.00  0.00    -0.004 C 
HETATM   42  C   UNK N   1      20.311  15.125   5.460  0.00  0.00     0.055 C 
HETATM   43  O   UNK N   1      21.923  16.856   5.389  0.00  0.00    -0.295 OA
HETATM   44  C   UNK N   1      20.178  12.441   3.106  0.00  0.00    -0.022 C 
HETATM   45  C   UNK N   1      19.729  14.565   4.180  0.00  0.00     0.020 C 
HETATM   46  C   UNK N   1      19.367  16.208   5.963  0.00  0.00     0.018 C 
HETATM   47  C   UNK N   1      19.547  13.069   4.299  0.00  0.00     0.005 C 
HETATM   48  C   UNK N   1      18.064  12.754   4.364  0.00  0.00     0.014 C 
HETATM   49  H   UNK N   1      30.329   8.779   2.788  0.00  0.00     0.213 HD
ENDROOT
BRANCH  28  50
HETATM   50  O   UNK N   1      24.711   9.855   0.491  0.00  0.00    -0.386 OA
HETATM   51  C   UNK N   1      24.146  10.395  -0.675  0.00  0.00     0.202 C 
ENDBRANCH  28  50
BRANCH  15  52
HETATM   52  C   UNK N   1      31.639  16.374   4.197  0.00  0.00     0.012 C 
HETATM   53  C   UNK N   1      32.318  17.547   3.509  0.00  0.00     0.012 C 
BRANCH  52  54
HETATM   54  C   UNK N   1      30.876  16.728   5.470  0.00  0.00     0.011 C 
BRANCH  54  55
HETATM   55  C   UNK N   1      31.400  15.918   6.628  0.00  0.00    -0.012 C 
HETATM   56  C   UNK N   1      32.838  15.443   6.400  0.00  0.00     0.039 C 
HETATM   57  C   UNK N   1      33.392  15.047   7.753  0.00  0.00     0.150 C 
HETATM   58  C   UNK N   1      33.591  16.335   8.558  0.00  0.00     0.161 C 
HETATM   59  C   UNK N   1      32.420  17.325   8.439  0.00  0.00     0.035 C 
HETATM   60  C   UNK N   1      31.155  16.623   7.970  0.00  0.00     0.007 C 
BRANCH  57  61
HETATM   61  O   UNK N   1      34.589  14.345   7.618  0.00  0.00    -0.388 OA
HETATM   62  C   UNK N   1      35.349  15.119   6.739  0.00  0.00     0.202 C 
ENDBRANCH  57  61
BRANCH  58  63
HETATM   63  O   UNK N   1      33.842  16.086   9.880  0.00  0.00    -0.313 OA
BRANCH  63  64
HETATM   64  C   UNK N   1      35.094  16.235  10.356  0.00  0.00     0.272 C 
HETATM   65  O   UNK N   1      35.616  17.342  10.350  0.00  0.00    -0.264 OA
BRANCH  64  66
HETATM   66  C   UNK N   1      35.812  15.045  10.952  0.00  0.00     0.086 C 
HETATM   67  C   UNK N   1      37.067  14.732  10.149  0.00  0.00     0.030 C 
BRANCH  66  68
HETATM   68  C   UNK N   1      36.197  15.290  12.412  0.00  0.00     0.185 C 
BRANCH  68  69
HETATM   69  O   UNK N   1      36.898  14.203  12.941  0.00  0.00    -0.400 OA
HETATM   70  H   UNK N   1      37.803  14.200  13.289  0.00  0.00     0.209 HD
ENDBRANCH  68  69
ENDBRANCH  66  68
BRANCH  66  71
HETATM   71  C   UNK N   1      34.883  13.827  10.946  0.00  0.00     0.185 C 
BRANCH  71  72
HETATM   72  O   UNK N   1      34.125  13.735  12.117  0.00  0.00    -0.400 OA
HETATM   73  H   UNK N   1      34.312  14.202  12.946  0.00  0.00     0.209 HD
ENDBRANCH  71  72
ENDBRANCH  66  71
ENDBRANCH  64  66
ENDBRANCH  63  64
ENDBRANCH  58  63
ENDBRANCH  54  55
ENDBRANCH  52  54
ENDBRANCH  15  52
BRANCH  35  74
HETATM   74  O   UNK N   1      24.490  15.783   6.255  0.00  0.00    -0.388 OA
HETATM   75  H   UNK N   1      25.237  15.975   6.843  0.00  0.00     0.210 HD
ENDBRANCH  35  74
BRANCH  38  76
HETATM   76  O   UNK N   1      22.655  14.051   3.615  0.00  0.00    -0.380 OA
HETATM   77  C   UNK N   1      22.417  14.970   2.578  0.00  0.00     0.202 C 
ENDBRANCH  38  76
TORSDOF 14
ENDMDL
MODEL 2
REMARK VINA RESULT:      -8.3      5.283     11.971
REMARK  14 active torsions:
REMARK  status: ('A' for Active; 'I' for Inactive)
REMARK    1  A    between atoms: C_15  and  C_19 
REMARK    2  A    between atoms: C_19  and  C_24 
REMARK    3  A    between atoms: C_29  and  C_24 
REMARK    4  A    between atoms: C_32  and  O_38 
REMARK    5  A    between atoms: C_39  and  O_46 
REMARK    6  A    between atoms: C_45  and  O_50 
REMARK    7  A    between atoms: C_47  and  O_52 
REMARK    8  A    between atoms: O_50  and  C_65 
REMARK    9  A    between atoms: C_51  and  O_55 
REMARK   10  A    between atoms: C_65  and  C_66 
REMARK   11  A    between atoms: C_66  and  C_69 
REMARK   12  A    between atoms: C_66  and  C_70 
REMARK   13  A    between atoms: C_69  and  O_72 
REMARK   14  A    between atoms: C_70  and  O_73 
ROOT
HETATM    1  N   UNK N   1      34.348  15.860   8.676  0.00  0.00    -0.331 N 
HETATM    2  C   UNK N   1      33.133  15.791   7.865  0.00  0.00     0.187 C 
HETATM    3  C   UNK N   1      34.851  14.734   9.288  0.00  0.00     0.296 C 
HETATM    4  C   UNK N   1      34.842  17.189   9.023  0.00  0.00     0.127 C 
HETATM    5  C   UNK N   1      32.356  14.494   7.890  0.00  0.00     0.282 C 
HETATM    6  C   UNK N   1      33.096  16.680   6.625  0.00  0.00     0.035 C 
HETATM    7  C   UNK N   1      35.546  14.778  10.603  0.00  0.00     0.278 C 
HETATM    8  O   UNK N   1      34.597  13.629   8.824  0.00  0.00    -0.264 OA
HETATM    9  C   UNK N   1      34.047  18.312   8.342  0.00  0.00     0.020 C 
HETATM   10  O   UNK N   1      32.646  13.482   7.040  0.00  0.00    -0.314 OA
HETATM   11  O   UNK N   1      31.582  14.291   8.810  0.00  0.00    -0.263 OA
HETATM   12  C   UNK N   1      33.821  18.010   6.860  0.00  0.00     0.004 C 
HETATM   13  C   UNK N   1      35.433  13.565  11.533  0.00  0.00     0.238 C 
HETATM   14  O   UNK N   1      35.820  15.868  11.091  0.00  0.00    -0.281 OA
HETATM   15  C   UNK N   1      33.400  13.632   5.899  0.00  0.00     0.142 C 
HETATM   16  O   UNK N   1      35.483  12.365  10.758  0.00  0.00    -0.343 OA
HETATM   17  C   UNK N   1      36.569  13.562  12.585  0.00  0.00     0.053 C 
HETATM   18  O   UNK N   1      34.188  13.655  12.176  0.00  0.00    -0.359 OA
HETATM   19  C   UNK N   1      34.219  12.364   5.623  0.00  0.00     0.112 C 
HETATM   20  C   UNK N   1      35.358  11.177  11.529  0.00  0.00     0.128 C 
HETATM   21  C   UNK N   1      36.464  12.321  13.445  0.00  0.00     0.013 C 
HETATM   22  C   UNK N   1      36.547  14.772  13.507  0.00  0.00     0.016 C 
HETATM   23  C   UNK N   1      33.526  11.037   5.737  0.00  0.00     0.136 C 
HETATM   24  C   UNK N   1      35.491   9.995  10.559  0.00  0.00     0.068 C 
HETATM   25  C   UNK N   1      36.501  11.113  12.541  0.00  0.00     0.033 C 
HETATM   26  C   UNK N   1      32.686  10.668   6.952  0.00  0.00     0.074 C 
HETATM   27  O   UNK N   1      33.676  10.232   4.827  0.00  0.00    -0.297 OA
HETATM   28  C   UNK N   1      35.433   8.558  11.127  0.00  0.00     0.151 C 
HETATM   29  C   UNK N   1      32.148   9.265   6.825  0.00  0.00    -0.010 C 
HETATM   30  C   UNK N   1      33.434  10.868   8.260  0.00  0.00     0.022 C 
HETATM   31  C   UNK N   1      34.161   7.735  10.961  0.00  0.00    -0.055 C 
HETATM   32  C   UNK N   1      32.922   8.162   6.868  0.00  0.00    -0.056 C 
HETATM   33  C   UNK N   1      34.142   6.417  11.223  0.00  0.00     0.005 C 
HETATM   34  C   UNK N   1      32.911   8.373  10.452  0.00  0.00     0.046 C 
HETATM   35  C   UNK N   1      32.360   6.841   6.400  0.00  0.00     0.183 C 
HETATM   36  C   UNK N   1      34.398   8.275   7.112  0.00  0.00     0.046 C 
HETATM   37  C   UNK N   1      35.313   5.688  11.763  0.00  0.00     0.000 C 
HETATM   38  C   UNK N   1      32.497   5.591   7.293  0.00  0.00     0.223 C 
HETATM   39  C   UNK N   1      35.369   4.354  11.855  0.00  0.00    -0.000 C 
HETATM   40  C   UNK N   1      32.288   4.320   6.468  0.00  0.00     0.162 C 
HETATM   41  C   UNK N   1      34.324   3.484  11.304  0.00  0.00    -0.004 C 
HETATM   42  C   UNK N   1      32.144   2.966   7.125  0.00  0.00     0.055 C 
HETATM   43  O   UNK N   1      32.220   4.404   5.247  0.00  0.00    -0.295 OA
HETATM   44  C   UNK N   1      34.254   3.325   9.985  0.00  0.00    -0.022 C 
HETATM   45  C   UNK N   1      33.417   2.571   7.841  0.00  0.00     0.020 C 
HETATM   46  C   UNK N   1      31.826   1.877   6.109  0.00  0.00     0.018 C 
HETATM   47  C   UNK N   1      33.184   2.521   9.334  0.00  0.00     0.005 C 
HETATM   48  C   UNK N   1      33.227   1.076   9.794  0.00  0.00     0.014 C 
HETATM   49  H   UNK N   1      33.318  13.760  12.591  0.00  0.00     0.213 HD
ENDROOT
BRANCH  28  50
HETATM   50  O   UNK N   1      36.205   8.322  12.286  0.00  0.00    -0.386 OA
HETATM   51  C   UNK N   1      37.533   8.077  11.904  0.00  0.00     0.202 C 
ENDBRANCH  28  50
BRANCH  15  52
HETATM   52  C   UNK N   1      32.472  14.193   4.813  0.00  0.00     0.012 C 
HETATM   53  C   UNK N   1      33.194  14.877   3.665  0.00  0.00     0.012 C 
BRANCH  52  54
HETATM   54  C   UNK N   1      31.347  13.249   4.396  0.00  0.00     0.011 C 
BRANCH  54  55
HETATM   55  C   UNK N   1      30.018  13.954   4.495  0.00  0.00    -0.012 C 
HETATM   56  C   UNK N   1      29.958  14.913   5.687  0.00  0.00     0.039 C 
HETATM   57  C   UNK N   1      28.802  15.859   5.435  0.00  0.00     0.150 C 
HETATM   58  C   UNK N   1      29.211  16.783   4.285  0.00  0.00     0.161 C 
HETATM   59  C   UNK N   1      29.906  16.053   3.123  0.00  0.00     0.035 C 
HETATM   60  C   UNK N   1      29.599  14.564   3.149  0.00  0.00     0.007 C 
BRANCH  57  61
HETATM   61  O   UNK N   1      28.490  16.586   6.583  0.00  0.00    -0.388 OA
HETATM   62  C   UNK N   1      29.721  17.067   7.034  0.00  0.00     0.202 C 
ENDBRANCH  57  61
BRANCH  58  63
HETATM   63  O   UNK N   1      28.155  17.505   3.799  0.00  0.00    -0.313 OA
BRANCH  63  64
HETATM   64  C   UNK N   1      27.914  18.737   4.289  0.00  0.00     0.272 C 
HETATM   65  O   UNK N   1      28.852  19.473   4.562  0.00  0.00    -0.264 OA
BRANCH  64  66
HETATM   66  C   UNK N   1      26.487  19.218   4.430  0.00  0.00     0.086 C 
HETATM   67  C   UNK N   1      26.128  20.144   3.278  0.00  0.00     0.030 C 
BRANCH  66  68
HETATM   68  C   UNK N   1      25.498  18.051   4.465  0.00  0.00     0.185 C 
BRANCH  68  69
HETATM   69  O   UNK N   1      25.669  17.276   5.614  0.00  0.00    -0.400 OA
HETATM   70  H   UNK N   1      25.518  17.544   6.534  0.00  0.00     0.209 HD
ENDBRANCH  68  69
ENDBRANCH  66  68
BRANCH  66  71
HETATM   71  C   UNK N   1      26.325  19.965   5.758  0.00  0.00     0.185 C 
BRANCH  71  72
HETATM   72  O   UNK N   1      27.063  19.377   6.789  0.00  0.00    -0.400 OA
HETATM   73  H   UNK N   1      28.021  19.228   6.780  0.00  0.00     0.209 HD
ENDBRANCH  71  72
ENDBRANCH  66  71
ENDBRANCH  64  66
ENDBRANCH  63  64
ENDBRANCH  58  63
ENDBRANCH  54  55
ENDBRANCH  52  54
ENDBRANCH  15  52
BRANCH  35  74
HETATM   74  O   UNK N   1      31.031   6.963   5.977  0.00  0.00    -0.388 OA
HETATM   75  H   UNK N   1      30.443   6.704   5.250  0.00  0.00     0.210 HD
ENDBRANCH  35  74
BRANCH  38  76
HETATM   76  O   UNK N   1      33.665   5.574   8.093  0.00  0.00    -0.380 OA
HETATM   77  C   UNK N   1      34.795   5.342   7.290  0.00  0.00     0.202 C 
ENDBRANCH  38  76
TORSDOF 14
ENDMDL
MODEL 3
REMARK VINA RESULT:      -8.1      4.536      8.904
REMARK  14 active torsions:
REMARK  status: ('A' for Active; 'I' for Inactive)
REMARK    1  A    between atoms: C_15  and  C_19 
REMARK    2  A    between atoms: C_19  and  C_24 
REMARK    3  A    between atoms: C_29  and  C_24 
REMARK    4  A    between atoms: C_32  and  O_38 
REMARK    5  A    between atoms: C_39  and  O_46 
REMARK    6  A    between atoms: C_45  and  O_50 
REMARK    7  A    between atoms: C_47  and  O_52 
REMARK    8  A    between atoms: O_50  and  C_65 
REMARK    9  A    between atoms: C_51  and  O_55 
REMARK   10  A    between atoms: C_65  and  C_66 
REMARK   11  A    between atoms: C_66  and  C_69 
REMARK   12  A    between atoms: C_66  and  C_70 
REMARK   13  A    between atoms: C_69  and  O_72 
REMARK   14  A    between atoms: C_70  and  O_73 
ROOT
HETATM    1  N   UNK N   1      26.616  17.388   3.858  0.00  0.00    -0.331 N 
HETATM    2  C   UNK N   1      25.539  17.618   4.820  0.00  0.00     0.187 C 
HETATM    3  C   UNK N   1      26.837  16.134   3.335  0.00  0.00     0.296 C 
HETATM    4  C   UNK N   1      27.594  18.458   3.685  0.00  0.00     0.127 C 
HETATM    5  C   UNK N   1      24.818  16.402   5.356  0.00  0.00     0.282 C 
HETATM    6  C   UNK N   1      24.808  18.953   4.709  0.00  0.00     0.035 C 
HETATM    7  C   UNK N   1      28.196  15.638   2.985  0.00  0.00     0.278 C 
HETATM    8  O   UNK N   1      25.915  15.327   3.287  0.00  0.00    -0.264 OA
HETATM    9  C   UNK N   1      27.229  19.725   4.471  0.00  0.00     0.020 C 
HETATM   10  O   UNK N   1      23.752  15.873   4.712  0.00  0.00    -0.314 OA
HETATM   11  O   UNK N   1      25.317  15.784   6.280  0.00  0.00    -0.263 OA
HETATM   12  C   UNK N   1      25.753  20.084   4.289  0.00  0.00     0.004 C 
HETATM   13  C   UNK N   1      28.485  14.138   3.114  0.00  0.00     0.238 C 
HETATM   14  O   UNK N   1      29.138  16.421   3.017  0.00  0.00    -0.281 OA
HETATM   15  C   UNK N   1      23.033  16.538   3.746  0.00  0.00     0.142 C 
HETATM   16  O   UNK N   1      27.340  13.395   2.686  0.00  0.00    -0.343 OA
HETATM   17  C   UNK N   1      29.721  13.735   2.272  0.00  0.00     0.053 C 
HETATM   18  O   UNK N   1      28.727  13.880   4.472  0.00  0.00    -0.359 OA
HETATM   19  C   UNK N   1      22.513  15.555   2.688  0.00  0.00     0.112 C 
HETATM   20  C   UNK N   1      27.497  11.987   2.792  0.00  0.00     0.128 C 
HETATM   21  C   UNK N   1      29.939  12.240   2.371  0.00  0.00     0.013 C 
HETATM   22  C   UNK N   1      31.004  14.424   2.709  0.00  0.00     0.016 C 
HETATM   23  C   UNK N   1      21.881  14.278   3.160  0.00  0.00     0.136 C 
HETATM   24  C   UNK N   1      26.214  11.348   2.241  0.00  0.00     0.068 C 
HETATM   25  C   UNK N   1      28.675  11.546   1.924  0.00  0.00     0.033 C 
HETATM   26  C   UNK N   1      22.552  13.380   4.191  0.00  0.00     0.074 C 
HETATM   27  O   UNK N   1      20.807  13.955   2.670  0.00  0.00    -0.297 OA
HETATM   28  C   UNK N   1      26.112   9.806   2.194  0.00  0.00     0.151 C 
HETATM   29  C   UNK N   1      21.724  12.145   4.445  0.00  0.00    -0.010 C 
HETATM   30  C   UNK N   1      23.983  13.030   3.814  0.00  0.00     0.022 C 
HETATM   31  C   UNK N   1      25.276   9.076   3.238  0.00  0.00    -0.055 C 
HETATM   32  C   UNK N   1      21.536  11.171   3.532  0.00  0.00    -0.056 C 
HETATM   33  C   UNK N   1      24.968   7.775   3.102  0.00  0.00     0.005 C 
HETATM   34  C   UNK N   1      24.737   9.810   4.420  0.00  0.00     0.046 C 
HETATM   35  C   UNK N   1      20.436  10.158   3.743  0.00  0.00     0.183 C 
HETATM   36  C   UNK N   1      22.211  11.239   2.195  0.00  0.00     0.046 C 
HETATM   37  C   UNK N   1      25.475   6.942   1.987  0.00  0.00     0.000 C 
HETATM   38  C   UNK N   1      20.749   8.653   3.617  0.00  0.00     0.223 C 
HETATM   39  C   UNK N   1      25.033   5.704   1.735  0.00  0.00    -0.000 C 
HETATM   40  C   UNK N   1      19.459   7.856   3.413  0.00  0.00     0.162 C 
HETATM   41  C   UNK N   1      23.907   5.108   2.464  0.00  0.00    -0.004 C 
HETATM   42  C   UNK N   1      19.444   6.345   3.483  0.00  0.00     0.055 C 
HETATM   43  O   UNK N   1      18.412   8.456   3.205  0.00  0.00    -0.295 OA
HETATM   44  C   UNK N   1      22.676   5.533   2.194  0.00  0.00    -0.022 C 
HETATM   45  C   UNK N   1      20.268   5.741   2.367  0.00  0.00     0.020 C 
HETATM   46  C   UNK N   1      18.031   5.789   3.369  0.00  0.00     0.018 C 
HETATM   47  C   UNK N   1      21.482   5.039   2.934  0.00  0.00     0.005 C 
HETATM   48  C   UNK N   1      21.312   3.541   2.763  0.00  0.00     0.014 C 
HETATM   49  H   UNK N   1      28.885  13.753   5.420  0.00  0.00     0.213 HD
ENDROOT
BRANCH  28  50
HETATM   50  O   UNK N   1      27.245   9.130   1.689  0.00  0.00    -0.386 OA
HETATM   51  C   UNK N   1      27.187   9.134   0.287  0.00  0.00     0.202 C 
ENDBRANCH  28  50
BRANCH  15  52
HETATM   52  C   UNK N   1      22.051  17.468   4.472  0.00  0.00     0.012 C 
HETATM   53  C   UNK N   1      21.752  18.762   3.733  0.00  0.00     0.012 C 
BRANCH  52  54
HETATM   54  C   UNK N   1      20.831  16.763   5.057  0.00  0.00     0.011 C 
BRANCH  54  55
HETATM   55  C   UNK N   1      20.918  16.743   6.562  0.00  0.00    -0.012 C 
HETATM   56  C   UNK N   1      19.617  16.262   7.211  0.00  0.00     0.039 C 
HETATM   57  C   UNK N   1      19.954  15.865   8.634  0.00  0.00     0.150 C 
HETATM   58  C   UNK N   1      20.786  14.581   8.565  0.00  0.00     0.161 C 
HETATM   59  C   UNK N   1      21.866  14.604   7.471  0.00  0.00     0.035 C 
HETATM   60  C   UNK N   1      22.188  16.027   7.047  0.00  0.00     0.007 C 
BRANCH  57  61
HETATM   61  O   UNK N   1      18.797  15.680   9.389  0.00  0.00    -0.388 OA
HETATM   62  C   UNK N   1      18.053  16.842   9.178  0.00  0.00     0.202 C 
ENDBRANCH  57  61
BRANCH  58  63
HETATM   63  O   UNK N   1      21.363  14.272   9.767  0.00  0.00    -0.313 OA
BRANCH  63  64
HETATM   64  C   UNK N   1      21.435  12.984  10.154  0.00  0.00     0.272 C 
HETATM   65  O   UNK N   1      20.426  12.409  10.536  0.00  0.00    -0.264 OA
BRANCH  64  66
HETATM   66  C   UNK N   1      22.751  12.246  10.047  0.00  0.00     0.086 C 
HETATM   67  C   UNK N   1      22.784  11.411   8.775  0.00  0.00     0.030 C 
BRANCH  66  68
HETATM   68  C   UNK N   1      23.941  13.207  10.049  0.00  0.00     0.185 C 
BRANCH  68  69
HETATM   69  O   UNK N   1      24.934  12.783  10.936  0.00  0.00    -0.400 OA
HETATM   70  H   UNK N   1      25.036  13.032  11.868  0.00  0.00     0.209 HD
ENDBRANCH  68  69
ENDBRANCH  66  68
BRANCH  66  71
HETATM   71  C   UNK N   1      22.929  11.331  11.264  0.00  0.00     0.185 C 
BRANCH  71  72
HETATM   72  O   UNK N   1      22.370  11.879  12.422  0.00  0.00    -0.400 OA
HETATM   73  H   UNK N   1      22.463  12.800  12.710  0.00  0.00     0.209 HD
ENDBRANCH  71  72
ENDBRANCH  66  71
ENDBRANCH  64  66
ENDBRANCH  63  64
ENDBRANCH  58  63
ENDBRANCH  54  55
ENDBRANCH  52  54
ENDBRANCH  15  52
BRANCH  35  74
HETATM   74  O   UNK N   1      19.742  10.386   4.937  0.00  0.00    -0.388 OA
HETATM   75  H   UNK N   1      19.821  10.865   5.776  0.00  0.00     0.210 HD
ENDBRANCH  35  74
BRANCH  38  76
HETATM   76  O   UNK N   1      21.769   8.348   2.683  0.00  0.00    -0.380 OA
HETATM   77  C   UNK N   1      21.300   8.552   1.374  0.00  0.00     0.202 C 
ENDBRANCH  38  76
TORSDOF 14
ENDMDL
MODEL 4
REMARK VINA RESULT:      -8.1      3.515      8.081
REMARK  14 active torsions:
REMARK  status: ('A' for Active; 'I' for Inactive)
REMARK    1  A    between atoms: C_15  and  C_19 
REMARK    2  A    between atoms: C_19  and  C_24 
REMARK    3  A    between atoms: C_29  and  C_24 
REMARK    4  A    between atoms: C_32  and  O_38 
REMARK    5  A    between atoms: C_39  and  O_46 
REMARK    6  A    between atoms: C_45  and  O_50 
REMARK    7  A    between atoms: C_47  and  O_52 
REMARK    8  A    between atoms: O_50  and  C_65 
REMARK    9  A    between atoms: C_51  and  O_55 
REMARK   10  A    between atoms: C_65  and  C_66 
REMARK   11  A    between atoms: C_66  and  C_69 
REMARK   12  A    between atoms: C_66  and  C_70 
REMARK   13  A    between atoms: C_69  and  O_72 
REMARK   14  A    between atoms: C_70  and  O_73 
ROOT
HETATM    1  N   UNK N   1      29.941  16.058   5.017  0.00  0.00    -0.331 N 
HETATM    2  C   UNK N   1      30.687  15.170   4.127  0.00  0.00     0.187 C 
HETATM    3  C   UNK N   1      28.571  16.160   4.924  0.00  0.00     0.296 C 
HETATM    4  C   UNK N   1      30.714  17.012   5.808  0.00  0.00     0.127 C 
HETATM    5  C   UNK N   1      29.925  14.530   2.989  0.00  0.00     0.282 C 
HETATM    6  C   UNK N   1      31.891  14.457   4.737  0.00  0.00     0.035 C 
HETATM    7  C   UNK N   1      27.840  17.427   5.197  0.00  0.00     0.278 C 
HETATM    8  O   UNK N   1      27.925  15.229   4.457  0.00  0.00    -0.264 OA
HETATM    9  C   UNK N   1      32.228  16.815   5.656  0.00  0.00     0.020 C 
HETATM   10  O   UNK N   1      29.269  13.358   3.151  0.00  0.00    -0.314 OA
HETATM   11  O   UNK N   1      29.749  15.171   1.967  0.00  0.00    -0.263 OA
HETATM   12  C   UNK N   1      32.608  15.337   5.767  0.00  0.00     0.004 C 
HETATM   13  C   UNK N   1      26.541  17.704   4.430  0.00  0.00     0.238 C 
HETATM   14  O   UNK N   1      28.455  18.375   5.670  0.00  0.00    -0.281 OA
HETATM   15  C   UNK N   1      29.489  12.495   4.199  0.00  0.00     0.142 C 
HETATM   16  O   UNK N   1      25.802  16.488   4.293  0.00  0.00    -0.343 OA
HETATM   17  C   UNK N   1      25.681  18.766   5.158  0.00  0.00     0.053 C 
HETATM   18  O   UNK N   1      26.907  18.175   3.159  0.00  0.00    -0.359 OA
HETATM   19  C   UNK N   1      28.189  11.779   4.591  0.00  0.00     0.112 C 
HETATM   20  C   UNK N   1      24.587  16.633   3.569  0.00  0.00     0.128 C 
HETATM   21  C   UNK N   1      24.381  18.969   4.410  0.00  0.00     0.013 C 
HETATM   22  C   UNK N   1      26.363  20.120   5.283  0.00  0.00     0.016 C 
HETATM   23  C   UNK N   1      27.335  11.214   3.494  0.00  0.00     0.136 C 
HETATM   24  C   UNK N   1      23.898  15.262   3.566  0.00  0.00     0.068 C 
HETATM   25  C   UNK N   1      23.687  17.633   4.293  0.00  0.00     0.033 C 
HETATM   26  C   UNK N   1      26.942  12.037   2.274  0.00  0.00     0.074 C 
HETATM   27  O   UNK N   1      26.932  10.065   3.615  0.00  0.00    -0.297 OA
HETATM   28  C   UNK N   1      22.521  15.124   2.876  0.00  0.00     0.151 C 
HETATM   29  C   UNK N   1      26.046  11.241   1.358  0.00  0.00    -0.010 C 
HETATM   30  C   UNK N   1      26.321  13.373   2.648  0.00  0.00     0.022 C 
HETATM   31  C   UNK N   1      22.431  14.468   1.504  0.00  0.00    -0.055 C 
HETATM   32  C   UNK N   1      24.787  10.878   1.676  0.00  0.00    -0.056 C 
HETATM   33  C   UNK N   1      21.247  14.115   0.974  0.00  0.00     0.005 C 
HETATM   34  C   UNK N   1      23.671  14.158   0.734  0.00  0.00     0.046 C 
HETATM   35  C   UNK N   1      24.093   9.813   0.861  0.00  0.00     0.183 C 
HETATM   36  C   UNK N   1      24.173  11.311   2.974  0.00  0.00     0.046 C 
HETATM   37  C   UNK N   1      19.953  14.404   1.635  0.00  0.00     0.000 C 
HETATM   38  C   UNK N   1      22.673  10.068   0.318  0.00  0.00     0.223 C 
HETATM   39  C   UNK N   1      18.786  13.900   1.215  0.00  0.00    -0.000 C 
HETATM   40  C   UNK N   1      22.001   8.748  -0.063  0.00  0.00     0.162 C 
HETATM   41  C   UNK N   1      18.700  12.907   0.139  0.00  0.00    -0.004 C 
HETATM   42  C   UNK N   1      20.697   8.715  -0.828  0.00  0.00     0.055 C 
HETATM   43  O   UNK N   1      22.541   7.692   0.246  0.00  0.00    -0.295 OA
HETATM   44  C   UNK N   1      19.075  11.656   0.392  0.00  0.00    -0.022 C 
HETATM   45  C   UNK N   1      19.574   9.321  -0.013  0.00  0.00     0.020 C 
HETATM   46  C   UNK N   1      20.291   7.294  -1.192  0.00  0.00     0.018 C 
HETATM   47  C   UNK N   1      19.091  10.600  -0.658  0.00  0.00     0.005 C 
HETATM   48  C   UNK N   1      17.704  10.374  -1.229  0.00  0.00     0.014 C 
HETATM   49  H   UNK N   1      27.209  18.494   2.295  0.00  0.00     0.213 HD
ENDROOT
BRANCH  28  50
HETATM   50  O   UNK N   1      21.582  16.137   3.169  0.00  0.00    -0.386 OA
HETATM   51  C   UNK N   1      20.958  15.838   4.390  0.00  0.00     0.202 C 
ENDBRANCH  28  50
BRANCH  15  52
HETATM   52  C   UNK N   1      30.738  11.673   3.854  0.00  0.00     0.012 C 
HETATM   53  C   UNK N   1      31.160  10.691   4.934  0.00  0.00     0.012 C 
BRANCH  52  54
HETATM   54  C   UNK N   1      30.753  11.114   2.434  0.00  0.00     0.011 C 
BRANCH  54  55
HETATM   55  C   UNK N   1      32.174  10.913   1.972  0.00  0.00    -0.012 C 
HETATM   56  C   UNK N   1      32.271  10.741   0.454  0.00  0.00     0.039 C 
HETATM   57  C   UNK N   1      33.716  10.990   0.073  0.00  0.00     0.150 C 
HETATM   58  C   UNK N   1      33.984  12.487   0.256  0.00  0.00     0.161 C 
HETATM   59  C   UNK N   1      33.394  13.066   1.553  0.00  0.00     0.035 C 
HETATM   60  C   UNK N   1      33.119  11.967   2.567  0.00  0.00     0.007 C 
BRANCH  57  61
HETATM   61  O   UNK N   1      33.965  10.588  -1.239  0.00  0.00    -0.388 OA
HETATM   62  C   UNK N   1      32.888  11.095  -1.968  0.00  0.00     0.202 C 
ENDBRANCH  57  61
BRANCH  58  63
HETATM   63  O   UNK N   1      35.318  12.787   0.190  0.00  0.00    -0.313 OA
BRANCH  63  64
HETATM   64  C   UNK N   1      35.724  13.842  -0.542  0.00  0.00     0.272 C 
HETATM   65  O   UNK N   1      35.657  14.968  -0.070  0.00  0.00    -0.264 OA
BRANCH  64  66
HETATM   66  C   UNK N   1      36.319  13.613  -1.914  0.00  0.00     0.086 C 
HETATM   67  C   UNK N   1      36.943  12.226  -1.991  0.00  0.00     0.030 C 
BRANCH  66  68
HETATM   68  C   UNK N   1      35.270  13.754  -3.018  0.00  0.00     0.185 C 
BRANCH  68  69
HETATM   69  O   UNK N   1      34.213  14.571  -2.610  0.00  0.00    -0.400 OA
HETATM   70  H   UNK N   1      33.658  15.137  -3.168  0.00  0.00     0.209 HD
ENDBRANCH  68  69
ENDBRANCH  66  68
BRANCH  66  71
HETATM   71  C   UNK N   1      37.391  14.671  -2.193  0.00  0.00     0.185 C 
BRANCH  71  72
HETATM   72  O   UNK N   1      36.837  15.883  -2.617  0.00  0.00    -0.400 OA
HETATM   73  H   UNK N   1      36.329  16.015  -3.432  0.00  0.00     0.209 HD
ENDBRANCH  71  72
ENDBRANCH  66  71
ENDBRANCH  64  66
ENDBRANCH  63  64
ENDBRANCH  58  63
ENDBRANCH  54  55
ENDBRANCH  52  54
ENDBRANCH  15  52
BRANCH  35  74
HETATM   74  O   UNK N   1      24.906   9.341  -0.177  0.00  0.00    -0.388 OA
HETATM   75  H   UNK N   1      24.928   9.265  -1.143  0.00  0.00     0.210 HD
ENDBRANCH  35  74
BRANCH  38  76
HETATM   76  O   UNK N   1      21.878  10.904   1.140  0.00  0.00    -0.380 OA
HETATM   77  C   UNK N   1      21.511  10.218   2.311  0.00  0.00     0.202 C 
ENDBRANCH  38  76
TORSDOF 14
ENDMDL
MODEL 5
REMARK VINA RESULT:      -8.0      3.840     11.249
REMARK  14 active torsions:
REMARK  status: ('A' for Active; 'I' for Inactive)
REMARK    1  A    between atoms: C_15  and  C_19 
REMARK    2  A    between atoms: C_19  and  C_24 
REMARK    3  A    between atoms: C_29  and  C_24 
REMARK    4  A    between atoms: C_32  and  O_38 
REMARK    5  A    between atoms: C_39  and  O_46 
REMARK    6  A    between atoms: C_45  and  O_50 
REMARK    7  A    between atoms: C_47  and  O_52 
REMARK    8  A    between atoms: O_50  and  C_65 
REMARK    9  A    between atoms: C_51  and  O_55 
REMARK   10  A    between atoms: C_65  and  C_66 
REMARK   11  A    between atoms: C_66  and  C_69 
REMARK   12  A    between atoms: C_66  and  C_70 
REMARK   13  A    between atoms: C_69  and  O_72 
REMARK   14  A    between atoms: C_70  and  O_73 
ROOT
HETATM    1  N   UNK N   1      22.904  17.853   3.730  0.00  0.00    -0.331 N 
HETATM    2  C   UNK N   1      22.132  16.639   3.990  0.00  0.00     0.187 C 
HETATM    3  C   UNK N   1      24.278  17.810   3.656  0.00  0.00     0.296 C 
HETATM    4  C   UNK N   1      22.195  19.126   3.818  0.00  0.00     0.127 C 
HETATM    5  C   UNK N   1      22.903  15.394   4.365  0.00  0.00     0.282 C 
HETATM    6  C   UNK N   1      20.795  16.520   3.263  0.00  0.00     0.035 C 
HETATM    7  C   UNK N   1      25.142  18.935   4.109  0.00  0.00     0.278 C 
HETATM    8  O   UNK N   1      24.836  16.762   3.350  0.00  0.00    -0.264 OA
HETATM    9  C   UNK N   1      20.688  18.948   4.045  0.00  0.00     0.020 C 
HETATM   10  O   UNK N   1      23.383  14.551   3.423  0.00  0.00    -0.314 OA
HETATM   11  O   UNK N   1      23.253  15.248   5.524  0.00  0.00    -0.263 OA
HETATM   12  C   UNK N   1      20.109  17.882   3.112  0.00  0.00     0.004 C 
HETATM   13  C   UNK N   1      26.530  18.612   4.676  0.00  0.00     0.238 C 
HETATM   14  O   UNK N   1      24.616  19.998   4.416  0.00  0.00    -0.281 OA
HETATM   15  C   UNK N   1      22.957  14.542   2.115  0.00  0.00     0.142 C 
HETATM   16  O   UNK N   1      27.113  17.543   3.926  0.00  0.00    -0.343 OA
HETATM   17  C   UNK N   1      27.453  19.854   4.630  0.00  0.00     0.053 C 
HETATM   18  O   UNK N   1      26.345  18.202   6.006  0.00  0.00    -0.359 OA
HETATM   19  C   UNK N   1      24.112  14.168   1.175  0.00  0.00     0.112 C 
HETATM   20  C   UNK N   1      28.396  17.148   4.392  0.00  0.00     0.128 C 
HETATM   21  C   UNK N   1      28.830  19.484   5.138  0.00  0.00     0.013 C 
HETATM   22  C   UNK N   1      26.945  21.019   5.466  0.00  0.00     0.016 C 
HETATM   23  C   UNK N   1      24.980  13.003   1.550  0.00  0.00     0.136 C 
HETATM   24  C   UNK N   1      28.897  16.045   3.450  0.00  0.00     0.068 C 
HETATM   25  C   UNK N   1      29.350  18.338   4.305  0.00  0.00     0.033 C 
HETATM   26  C   UNK N   1      25.586  12.865   2.941  0.00  0.00     0.074 C 
HETATM   27  O   UNK N   1      25.217  12.164   0.691  0.00  0.00    -0.297 OA
HETATM   28  C   UNK N   1      30.301  15.442   3.691  0.00  0.00     0.151 C 
HETATM   29  C   UNK N   1      26.449  11.631   3.028  0.00  0.00    -0.010 C 
HETATM   30  C   UNK N   1      26.340  14.112   3.374  0.00  0.00     0.022 C 
HETATM   31  C   UNK N   1      30.427  14.070   4.341  0.00  0.00    -0.055 C 
HETATM   32  C   UNK N   1      27.615  11.487   2.368  0.00  0.00    -0.056 C 
HETATM   33  C   UNK N   1      31.597  13.409   4.356  0.00  0.00     0.005 C 
HETATM   34  C   UNK N   1      29.231  13.404   4.937  0.00  0.00     0.046 C 
HETATM   35  C   UNK N   1      28.234  10.116   2.243  0.00  0.00     0.183 C 
HETATM   36  C   UNK N   1      28.161  12.607   1.532  0.00  0.00     0.046 C 
HETATM   37  C   UNK N   1      32.853  13.986   3.823  0.00  0.00     0.000 C 
HETATM   38  C   UNK N   1      29.719   9.910   2.605  0.00  0.00     0.223 C 
HETATM   39  C   UNK N   1      33.977  13.277   3.663  0.00  0.00    -0.000 C 
HETATM   40  C   UNK N   1      30.243   8.611   1.989  0.00  0.00     0.162 C 
HETATM   41  C   UNK N   1      34.029  11.827   3.878  0.00  0.00    -0.004 C 
HETATM   42  C   UNK N   1      31.595   8.048   2.365  0.00  0.00     0.055 C 
HETATM   43  O   UNK N   1      29.544   8.006   1.186  0.00  0.00    -0.295 OA
HETATM   44  C   UNK N   1      33.472  11.027   2.972  0.00  0.00    -0.022 C 
HETATM   45  C   UNK N   1      32.710   8.976   1.933  0.00  0.00     0.020 C 
HETATM   46  C   UNK N   1      31.843   6.693   1.716  0.00  0.00     0.018 C 
HETATM   47  C   UNK N   1      33.413   9.549   3.143  0.00  0.00     0.005 C 
HETATM   48  C   UNK N   1      34.804   8.951   3.236  0.00  0.00     0.014 C 
HETATM   49  H   UNK N   1      26.165  17.925   6.918  0.00  0.00     0.213 HD
ENDROOT
BRANCH  28  50
HETATM   50  O   UNK N   1      31.334  16.371   3.942  0.00  0.00    -0.386 OA
HETATM   51  C   UNK N   1      31.855  16.811   2.715  0.00  0.00     0.202 C 
ENDBRANCH  28  50
BRANCH  15  52
HETATM   52  C   UNK N   1      21.648  13.744   2.069  0.00  0.00     0.012 C 
HETATM   53  C   UNK N   1      20.549  14.390   1.242  0.00  0.00     0.012 C 
BRANCH  52  54
HETATM   54  C   UNK N   1      21.830  12.246   1.842  0.00  0.00     0.011 C 
BRANCH  54  55
HETATM   55  C   UNK N   1      21.523  11.490   3.109  0.00  0.00    -0.012 C 
HETATM   56  C   UNK N   1      22.777  11.234   3.949  0.00  0.00     0.039 C 
HETATM   57  C   UNK N   1      22.309  10.887   5.348  0.00  0.00     0.150 C 
HETATM   58  C   UNK N   1      21.747  12.168   5.971  0.00  0.00     0.161 C 
HETATM   59  C   UNK N   1      20.857  12.981   5.016  0.00  0.00     0.035 C 
HETATM   60  C   UNK N   1      20.348  12.117   3.874  0.00  0.00     0.007 C 
BRANCH  57  61
HETATM   61  O   UNK N   1      23.354  10.368   6.111  0.00  0.00    -0.388 OA
HETATM   62  C   UNK N   1      23.149   8.987   6.087  0.00  0.00     0.202 C 
ENDBRANCH  57  61
BRANCH  58  63
HETATM   63  O   UNK N   1      21.062  11.923   7.131  0.00  0.00    -0.313 OA
BRANCH  63  64
HETATM   64  C   UNK N   1      21.063  12.849   8.108  0.00  0.00     0.272 C 
HETATM   65  O   UNK N   1      20.313  13.812   8.030  0.00  0.00    -0.264 OA
BRANCH  64  66
HETATM   66  C   UNK N   1      21.943  12.652   9.323  0.00  0.00     0.086 C 
HETATM   67  C   UNK N   1      21.124  12.809  10.596  0.00  0.00     0.030 C 
BRANCH  66  68
HETATM   68  C   UNK N   1      22.609  11.275   9.320  0.00  0.00     0.185 C 
BRANCH  68  69
HETATM   69  O   UNK N   1      23.850  11.313   8.681  0.00  0.00    -0.400 OA
HETATM   70  H   UNK N   1      24.045  11.657   7.795  0.00  0.00     0.209 HD
ENDBRANCH  68  69
ENDBRANCH  66  68
BRANCH  66  71
HETATM   71  C   UNK N   1      23.075  13.683   9.311  0.00  0.00     0.185 C 
BRANCH  71  72
HETATM   72  O   UNK N   1      23.362  14.138   8.021  0.00  0.00    -0.400 OA
HETATM   73  H   UNK N   1      22.929  13.835   7.209  0.00  0.00     0.209 HD
ENDBRANCH  71  72
ENDBRANCH  66  71
ENDBRANCH  64  66
ENDBRANCH  63  64
ENDBRANCH  58  63
ENDBRANCH  54  55
ENDBRANCH  52  54
ENDBRANCH  15  52
BRANCH  35  74
HETATM   74  O   UNK N   1      27.463   9.138   2.883  0.00  0.00    -0.388 OA
HETATM   75  H   UNK N   1      27.329   8.733   3.754  0.00  0.00     0.210 HD
ENDBRANCH  35  74
BRANCH  38  76
HETATM   76  O   UNK N   1      30.538  11.038   2.357  0.00  0.00    -0.380 OA
HETATM   77  C   UNK N   1      30.703  11.219   0.973  0.00  0.00     0.202 C 
ENDBRANCH  38  76
TORSDOF 14
ENDMDL
MODEL 6
REMARK VINA RESULT:      -8.0      3.548      8.859
REMARK  14 active torsions:
REMARK  status: ('A' for Active; 'I' for Inactive)
REMARK    1  A    between atoms: C_15  and  C_19 
REMARK    2  A    between atoms: C_19  and  C_24 
REMARK    3  A    between atoms: C_29  and  C_24 
REMARK    4  A    between atoms: C_32  and  O_38 
REMARK    5  A    between atoms: C_39  and  O_46 
REMARK    6  A    between atoms: C_45  and  O_50 
REMARK    7  A    between atoms: C_47  and  O_52 
REMARK    8  A    between atoms: O_50  and  C_65 
REMARK    9  A    between atoms: C_51  and  O_55 
REMARK   10  A    between atoms: C_65  and  C_66 
REMARK   11  A    between atoms: C_66  and  C_69 
REMARK   12  A    between atoms: C_66  and  C_70 
REMARK   13  A    between atoms: C_69  and  O_72 
REMARK   14  A    between atoms: C_70  and  O_73 
ROOT
HETATM    1  N   UNK N   1      29.898  16.277   5.001  0.00  0.00    -0.331 N 
HETATM    2  C   UNK N   1      30.664  15.425   4.093  0.00  0.00     0.187 C 
HETATM    3  C   UNK N   1      28.525  16.336   4.922  0.00  0.00     0.296 C 
HETATM    4  C   UNK N   1      30.648  17.246   5.796  0.00  0.00     0.127 C 
HETATM    5  C   UNK N   1      29.912  14.774   2.955  0.00  0.00     0.282 C 
HETATM    6  C   UNK N   1      31.896  14.744   4.683  0.00  0.00     0.035 C 
HETATM    7  C   UNK N   1      27.756  17.575   5.217  0.00  0.00     0.278 C 
HETATM    8  O   UNK N   1      27.905  15.390   4.450  0.00  0.00    -0.264 OA
HETATM    9  C   UNK N   1      32.166  17.100   5.628  0.00  0.00     0.020 C 
HETATM   10  O   UNK N   1      29.295  13.580   3.108  0.00  0.00    -0.314 OA
HETATM   11  O   UNK N   1      29.704  15.421   1.942  0.00  0.00    -0.263 OA
HETATM   12  C   UNK N   1      32.594  15.634   5.717  0.00  0.00     0.004 C 
HETATM   13  C   UNK N   1      26.441  17.819   4.466  0.00  0.00     0.238 C 
HETATM   14  O   UNK N   1      28.345  18.537   5.696  0.00  0.00    -0.281 OA
HETATM   15  C   UNK N   1      29.554  12.711   4.143  0.00  0.00     0.142 C 
HETATM   16  O   UNK N   1      25.740  16.582   4.321  0.00  0.00    -0.343 OA
HETATM   17  C   UNK N   1      25.554  18.844   5.215  0.00  0.00     0.053 C 
HETATM   18  O   UNK N   1      26.779  18.317   3.198  0.00  0.00    -0.359 OA
HETATM   19  C   UNK N   1      28.281  11.949   4.539  0.00  0.00     0.112 C 
HETATM   20  C   UNK N   1      24.515  16.696   3.610  0.00  0.00     0.128 C 
HETATM   21  C   UNK N   1      24.242  19.014   4.481  0.00  0.00     0.013 C 
HETATM   22  C   UNK N   1      26.194  20.217   5.350  0.00  0.00     0.016 C 
HETATM   23  C   UNK N   1      27.434  11.370   3.443  0.00  0.00     0.136 C 
HETATM   24  C   UNK N   1      23.870  15.303   3.597  0.00  0.00     0.068 C 
HETATM   25  C   UNK N   1      23.590  17.658   4.355  0.00  0.00     0.033 C 
HETATM   26  C   UNK N   1      27.003  12.195   2.237  0.00  0.00     0.074 C 
HETATM   27  O   UNK N   1      27.070  10.207   3.554  0.00  0.00    -0.297 OA
HETATM   28  C   UNK N   1      22.491  15.129   2.919  0.00  0.00     0.151 C 
HETATM   29  C   UNK N   1      26.124  11.381   1.320  0.00  0.00    -0.010 C 
HETATM   30  C   UNK N   1      26.343  13.505   2.634  0.00  0.00     0.022 C 
HETATM   31  C   UNK N   1      22.409  14.487   1.539  0.00  0.00    -0.055 C 
HETATM   32  C   UNK N   1      24.881  10.973   1.645  0.00  0.00    -0.056 C 
HETATM   33  C   UNK N   1      21.232  14.102   1.016  0.00  0.00     0.005 C 
HETATM   34  C   UNK N   1      23.651  14.226   0.753  0.00  0.00     0.046 C 
HETATM   35  C   UNK N   1      24.214   9.896   0.824  0.00  0.00     0.183 C 
HETATM   36  C   UNK N   1      24.267  11.371   2.954  0.00  0.00     0.046 C 
HETATM   37  C   UNK N   1      19.936  14.341   1.693  0.00  0.00     0.000 C 
HETATM   38  C   UNK N   1      22.781  10.112   0.297  0.00  0.00     0.223 C 
HETATM   39  C   UNK N   1      18.782  13.805   1.278  0.00  0.00    -0.000 C 
HETATM   40  C   UNK N   1      22.148   8.775  -0.093  0.00  0.00     0.162 C 
HETATM   41  C   UNK N   1      18.717  12.823   0.190  0.00  0.00    -0.004 C 
HETATM   42  C   UNK N   1      20.839   8.710  -0.846  0.00  0.00     0.055 C 
HETATM   43  O   UNK N   1      22.725   7.734   0.197  0.00  0.00    -0.295 OA
HETATM   44  C   UNK N   1      19.134  11.582   0.424  0.00  0.00    -0.022 C 
HETATM   45  C   UNK N   1      19.705   9.269  -0.014  0.00  0.00     0.020 C 
HETATM   46  C   UNK N   1      20.475   7.281  -1.224  0.00  0.00     0.018 C 
HETATM   47  C   UNK N   1      19.175  10.540  -0.638  0.00  0.00     0.005 C 
HETATM   48  C   UNK N   1      17.790  10.275  -1.199  0.00  0.00     0.014 C 
HETATM   49  H   UNK N   1      27.063  18.655   2.335  0.00  0.00     0.213 HD
ENDROOT
BRANCH  28  50
HETATM   50  O   UNK N   1      21.523  16.107   3.232  0.00  0.00    -0.386 OA
HETATM   51  C   UNK N   1      20.913  15.768   4.450  0.00  0.00     0.202 C 
ENDBRANCH  28  50
BRANCH  15  52
HETATM   52  C   UNK N   1      30.825  11.935   3.776  0.00  0.00     0.012 C 
HETATM   53  C   UNK N   1      31.475  11.210   4.943  0.00  0.00     0.012 C 
BRANCH  52  54
HETATM   54  C   UNK N   1      30.717  11.119   2.491  0.00  0.00     0.011 C 
BRANCH  54  55
HETATM   55  C   UNK N   1      31.354  11.868   1.349  0.00  0.00    -0.012 C 
HETATM   56  C   UNK N   1      32.749  11.332   1.011  0.00  0.00     0.039 C 
HETATM   57  C   UNK N   1      33.089  11.832  -0.378  0.00  0.00     0.150 C 
HETATM   58  C   UNK N   1      32.195  11.079  -1.366  0.00  0.00     0.161 C 
HETATM   59  C   UNK N   1      30.733  10.954  -0.905  0.00  0.00     0.035 C 
HETATM   60  C   UNK N   1      30.401  11.996   0.151  0.00  0.00     0.007 C 
BRANCH  57  61
HETATM   61  O   UNK N   1      34.439  11.634  -0.664  0.00  0.00    -0.388 OA
HETATM   62  C   UNK N   1      34.998  12.913  -0.608  0.00  0.00     0.202 C 
ENDBRANCH  57  61
BRANCH  58  63
HETATM   63  O   UNK N   1      32.229  11.628  -2.620  0.00  0.00    -0.313 OA
BRANCH  63  64
HETATM   64  C   UNK N   1      32.248  10.819  -3.697  0.00  0.00     0.272 C 
HETATM   65  O   UNK N   1      31.199  10.535  -4.259  0.00  0.00    -0.264 OA
BRANCH  64  66
HETATM   66  C   UNK N   1      33.572  10.326  -4.237  0.00  0.00     0.086 C 
HETATM   67  C   UNK N   1      34.016   9.080  -3.484  0.00  0.00     0.030 C 
BRANCH  66  68
HETATM   68  C   UNK N   1      33.491  10.010  -5.731  0.00  0.00     0.185 C 
BRANCH  68  69
HETATM   69  O   UNK N   1      34.411  10.767  -6.460  0.00  0.00    -0.400 OA
HETATM   70  H   UNK N   1      34.276  11.647  -6.844  0.00  0.00     0.209 HD
ENDBRANCH  68  69
ENDBRANCH  66  68
BRANCH  66  71
HETATM   71  C   UNK N   1      34.631  11.422  -4.081  0.00  0.00     0.185 C 
BRANCH  71  72
HETATM   72  O   UNK N   1      34.117  12.695  -4.347  0.00  0.00    -0.400 OA
HETATM   73  H   UNK N   1      33.790  13.320  -3.682  0.00  0.00     0.209 HD
ENDBRANCH  71  72
ENDBRANCH  66  71
ENDBRANCH  64  66
ENDBRANCH  63  64
ENDBRANCH  58  63
ENDBRANCH  54  55
ENDBRANCH  52  54
ENDBRANCH  15  52
BRANCH  35  74
HETATM   74  O   UNK N   1      25.032   9.464  -0.228  0.00  0.00    -0.388 OA
HETATM   75  H   UNK N   1      25.527   9.805  -0.988  0.00  0.00     0.210 HD
ENDBRANCH  35  74
BRANCH  38  76
HETATM   76  O   UNK N   1      21.968  10.912   1.137  0.00  0.00    -0.380 OA
HETATM   77  C   UNK N   1      21.634  10.200   2.302  0.00  0.00     0.202 C 
ENDBRANCH  38  76
TORSDOF 14
ENDMDL
MODEL 7
REMARK VINA RESULT:      -8.0      3.747     11.638
REMARK  14 active torsions:
REMARK  status: ('A' for Active; 'I' for Inactive)
REMARK    1  A    between atoms: C_15  and  C_19 
REMARK    2  A    between atoms: C_19  and  C_24 
REMARK    3  A    between atoms: C_29  and  C_24 
REMARK    4  A    between atoms: C_32  and  O_38 
REMARK    5  A    between atoms: C_39  and  O_46 
REMARK    6  A    between atoms: C_45  and  O_50 
REMARK    7  A    between atoms: C_47  and  O_52 
REMARK    8  A    between atoms: O_50  and  C_65 
REMARK    9  A    between atoms: C_51  and  O_55 
REMARK   10  A    between atoms: C_65  and  C_66 
REMARK   11  A    between atoms: C_66  and  C_69 
REMARK   12  A    between atoms: C_66  and  C_70 
REMARK   13  A    between atoms: C_69  and  O_72 
REMARK   14  A    between atoms: C_70  and  O_73 
ROOT
HETATM    1  N   UNK N   1      20.331  13.882   1.479  0.00  0.00    -0.331 N 
HETATM    2  C   UNK N   1      20.393  12.447   1.753  0.00  0.00     0.187 C 
HETATM    3  C   UNK N   1      21.342  14.721   1.890  0.00  0.00     0.296 C 
HETATM    4  C   UNK N   1      19.058  14.415   1.003  0.00  0.00     0.127 C 
HETATM    5  C   UNK N   1      21.498  11.962   2.663  0.00  0.00     0.282 C 
HETATM    6  C   UNK N   1      19.838  11.528   0.668  0.00  0.00     0.035 C 
HETATM    7  C   UNK N   1      21.096  16.126   2.317  0.00  0.00     0.278 C 
HETATM    8  O   UNK N   1      22.470  14.272   2.062  0.00  0.00    -0.264 OA
HETATM    9  C   UNK N   1      18.019  13.318   0.740  0.00  0.00     0.020 C 
HETATM   10  O   UNK N   1      22.719  11.639   2.180  0.00  0.00    -0.314 OA
HETATM   11  O   UNK N   1      21.340  12.040   3.870  0.00  0.00    -0.263 OA
HETATM   12  C   UNK N   1      18.630  12.152  -0.040  0.00  0.00     0.004 C 
HETATM   13  C   UNK N   1      22.011  16.739   3.384  0.00  0.00     0.238 C 
HETATM   14  O   UNK N   1      19.981  16.607   2.154  0.00  0.00    -0.281 OA
HETATM   15  C   UNK N   1      22.978  11.398   0.851  0.00  0.00     0.142 C 
HETATM   16  O   UNK N   1      23.355  16.302   3.166  0.00  0.00    -0.343 OA
HETATM   17  C   UNK N   1      21.947  18.286   3.349  0.00  0.00     0.053 C 
HETATM   18  O   UNK N   1      21.563  16.270   4.629  0.00  0.00    -0.359 OA
HETATM   19  C   UNK N   1      24.393  11.865   0.483  0.00  0.00     0.112 C 
HETATM   20  C   UNK N   1      24.282  16.796   4.123  0.00  0.00     0.128 C 
HETATM   21  C   UNK N   1      22.907  18.858   4.370  0.00  0.00     0.013 C 
HETATM   22  C   UNK N   1      20.563  18.843   3.647  0.00  0.00     0.016 C 
HETATM   23  C   UNK N   1      25.519  11.504   1.407  0.00  0.00     0.136 C 
HETATM   24  C   UNK N   1      25.670  16.286   3.711  0.00  0.00     0.068 C 
HETATM   25  C   UNK N   1      24.287  18.324   4.075  0.00  0.00     0.033 C 
HETATM   26  C   UNK N   1      25.437  11.743   2.909  0.00  0.00     0.074 C 
HETATM   27  O   UNK N   1      26.534  11.027   0.916  0.00  0.00    -0.297 OA
HETATM   28  C   UNK N   1      26.896  16.702   4.557  0.00  0.00     0.151 C 
HETATM   29  C   UNK N   1      26.720  11.333   3.587  0.00  0.00    -0.010 C 
HETATM   30  C   UNK N   1      25.052  13.174   3.250  0.00  0.00     0.022 C 
HETATM   31  C   UNK N   1      27.512  15.703   5.529  0.00  0.00    -0.055 C 
HETATM   32  C   UNK N   1      27.892  11.978   3.420  0.00  0.00    -0.056 C 
HETATM   33  C   UNK N   1      28.704  15.932   6.104  0.00  0.00     0.005 C 
HETATM   34  C   UNK N   1      26.818  14.415   5.827  0.00  0.00     0.046 C 
HETATM   35  C   UNK N   1      29.175  11.312   3.856  0.00  0.00     0.183 C 
HETATM   36  C   UNK N   1      27.969  13.212   2.571  0.00  0.00     0.046 C 
HETATM   37  C   UNK N   1      29.464  17.188   5.906  0.00  0.00     0.000 C 
HETATM   38  C   UNK N   1      30.176  12.083   4.741  0.00  0.00     0.223 C 
HETATM   39  C   UNK N   1      30.726  17.356   6.318  0.00  0.00    -0.000 C 
HETATM   40  C   UNK N   1      31.557  11.427   4.682  0.00  0.00     0.162 C 
HETATM   41  C   UNK N   1      31.519  16.261   6.889  0.00  0.00    -0.004 C 
HETATM   42  C   UNK N   1      32.668  11.837   5.622  0.00  0.00     0.055 C 
HETATM   43  O   UNK N   1      31.761  10.538   3.865  0.00  0.00    -0.295 OA
HETATM   44  C   UNK N   1      31.979  15.314   6.076  0.00  0.00    -0.022 C 
HETATM   45  C   UNK N   1      33.082  13.273   5.380  0.00  0.00     0.020 C 
HETATM   46  C   UNK N   1      33.902  10.964   5.452  0.00  0.00     0.018 C 
HETATM   47  C   UNK N   1      32.728  14.129   6.575  0.00  0.00     0.005 C 
HETATM   48  C   UNK N   1      34.005  14.544   7.281  0.00  0.00     0.014 C 
HETATM   49  H   UNK N   1      21.218  15.918   5.463  0.00  0.00     0.213 HD
ENDROOT
BRANCH  28  50
HETATM   50  O   UNK N   1      26.967  18.068   4.907  0.00  0.00    -0.386 OA
HETATM   51  C   UNK N   1      27.519  18.783   3.832  0.00  0.00     0.202 C 
ENDBRANCH  28  50
BRANCH  15  52
HETATM   52  C   UNK N   1      22.552   9.953   0.561  0.00  0.00     0.012 C 
HETATM   53  C   UNK N   1      23.524   9.176  -0.312  0.00  0.00     0.012 C 
BRANCH  52  54
HETATM   54  C   UNK N   1      22.030   9.193   1.777  0.00  0.00     0.011 C 
BRANCH  54  55
HETATM   55  C   UNK N   1      23.149   8.414   2.419  0.00  0.00    -0.012 C 
HETATM   56  C   UNK N   1      23.690   9.104   3.674  0.00  0.00     0.039 C 
HETATM   57  C   UNK N   1      24.462   8.060   4.455  0.00  0.00     0.150 C 
HETATM   58  C   UNK N   1      23.440   7.075   5.031  0.00  0.00     0.161 C 
HETATM   59  C   UNK N   1      22.343   6.669   4.033  0.00  0.00     0.035 C 
HETATM   60  C   UNK N   1      22.779   6.934   2.602  0.00  0.00     0.007 C 
BRANCH  57  61
HETATM   61  O   UNK N   1      25.222   8.649   5.464  0.00  0.00    -0.388 OA
HETATM   62  C   UNK N   1      24.374   9.607   6.024  0.00  0.00     0.202 C 
ENDBRANCH  57  61
BRANCH  58  63
HETATM   63  O   UNK N   1      24.033   5.950   5.537  0.00  0.00    -0.313 OA
BRANCH  63  64
HETATM   64  C   UNK N   1      24.095   5.777   6.871  0.00  0.00     0.272 C 
HETATM   65  O   UNK N   1      23.206   6.223   7.582  0.00  0.00    -0.264 OA
BRANCH  64  66
HETATM   66  C   UNK N   1      25.231   4.974   7.467  0.00  0.00     0.086 C 
HETATM   67  C   UNK N   1      25.410   5.328   8.936  0.00  0.00     0.030 C 
BRANCH  66  68
HETATM   68  C   UNK N   1      24.989   3.469   7.338  0.00  0.00     0.185 C 
BRANCH  68  69
HETATM   69  O   UNK N   1      23.630   3.186   7.182  0.00  0.00    -0.400 OA
HETATM   70  H   UNK N   1      22.963   3.098   7.880  0.00  0.00     0.209 HD
ENDBRANCH  68  69
ENDBRANCH  66  68
BRANCH  66  71
HETATM   71  C   UNK N   1      26.527   5.273   6.706  0.00  0.00     0.185 C 
BRANCH  71  72
HETATM   72  O   UNK N   1      26.801   6.643   6.649  0.00  0.00    -0.400 OA
HETATM   73  H   UNK N   1      26.150   7.352   6.763  0.00  0.00     0.209 HD
ENDBRANCH  71  72
ENDBRANCH  66  71
ENDBRANCH  64  66
ENDBRANCH  63  64
ENDBRANCH  58  63
ENDBRANCH  54  55
ENDBRANCH  52  54
ENDBRANCH  15  52
BRANCH  35  74
HETATM   74  O   UNK N   1      28.941  10.050   4.416  0.00  0.00    -0.388 OA
HETATM   75  H   UNK N   1      29.243   9.477   5.138  0.00  0.00     0.210 HD
ENDBRANCH  35  74
BRANCH  38  76
HETATM   76  O   UNK N   1      30.191  13.481   4.516  0.00  0.00    -0.380 OA
HETATM   77  C   UNK N   1      30.779  13.762   3.271  0.00  0.00     0.202 C 
ENDBRANCH  38  76
TORSDOF 14
ENDMDL
MODEL 8
REMARK VINA RESULT:      -7.9      3.864     11.634
REMARK  14 active torsions:
REMARK  status: ('A' for Active; 'I' for Inactive)
REMARK    1  A    between atoms: C_15  and  C_19 
REMARK    2  A    between atoms: C_19  and  C_24 
REMARK    3  A    between atoms: C_29  and  C_24 
REMARK    4  A    between atoms: C_32  and  O_38 
REMARK    5  A    between atoms: C_39  and  O_46 
REMARK    6  A    between atoms: C_45  and  O_50 
REMARK    7  A    between atoms: C_47  and  O_52 
REMARK    8  A    between atoms: O_50  and  C_65 
REMARK    9  A    between atoms: C_51  and  O_55 
REMARK   10  A    between atoms: C_65  and  C_66 
REMARK   11  A    between atoms: C_66  and  C_69 
REMARK   12  A    between atoms: C_66  and  C_70 
REMARK   13  A    between atoms: C_69  and  O_72 
REMARK   14  A    between atoms: C_70  and  O_73 
ROOT
HETATM    1  N   UNK N   1      22.737  17.799   3.558  0.00  0.00    -0.331 N 
HETATM    2  C   UNK N   1      21.940  16.597   3.795  0.00  0.00     0.187 C 
HETATM    3  C   UNK N   1      24.112  17.739   3.531  0.00  0.00     0.296 C 
HETATM    4  C   UNK N   1      22.042  19.082   3.618  0.00  0.00     0.127 C 
HETATM    5  C   UNK N   1      22.681  15.343   4.200  0.00  0.00     0.282 C 
HETATM    6  C   UNK N   1      20.627  16.493   3.023  0.00  0.00     0.035 C 
HETATM    7  C   UNK N   1      24.974  18.853   4.010  0.00  0.00     0.278 C 
HETATM    8  O   UNK N   1      24.666  16.683   3.247  0.00  0.00    -0.264 OA
HETATM    9  C   UNK N   1      20.525  18.924   3.794  0.00  0.00     0.020 C 
HETATM   10  O   UNK N   1      23.182  14.490   3.277  0.00  0.00    -0.314 OA
HETATM   11  O   UNK N   1      22.990  15.196   5.370  0.00  0.00    -0.263 OA
HETATM   12  C   UNK N   1      19.965  17.863   2.845  0.00  0.00     0.004 C 
HETATM   13  C   UNK N   1      26.337  18.514   4.625  0.00  0.00     0.238 C 
HETATM   14  O   UNK N   1      24.452  19.924   4.296  0.00  0.00    -0.281 OA
HETATM   15  C   UNK N   1      22.802  14.483   1.955  0.00  0.00     0.142 C 
HETATM   16  O   UNK N   1      26.932  17.436   3.898  0.00  0.00    -0.343 OA
HETATM   17  C   UNK N   1      27.277  19.745   4.607  0.00  0.00     0.053 C 
HETATM   18  O   UNK N   1      26.102  18.112   5.949  0.00  0.00    -0.359 OA
HETATM   19  C   UNK N   1      23.983  14.091   1.055  0.00  0.00     0.112 C 
HETATM   20  C   UNK N   1      28.193  17.026   4.409  0.00  0.00     0.128 C 
HETATM   21  C   UNK N   1      28.631  19.359   5.163  0.00  0.00     0.013 C 
HETATM   22  C   UNK N   1      26.756  20.919   5.422  0.00  0.00     0.016 C 
HETATM   23  C   UNK N   1      24.823  12.916   1.464  0.00  0.00     0.136 C 
HETATM   24  C   UNK N   1      28.712  15.913   3.487  0.00  0.00     0.068 C 
HETATM   25  C   UNK N   1      29.165  18.203   4.351  0.00  0.00     0.033 C 
HETATM   26  C   UNK N   1      25.379  12.775   2.875  0.00  0.00     0.074 C 
HETATM   27  O   UNK N   1      25.077  12.071   0.616  0.00  0.00    -0.297 OA
HETATM   28  C   UNK N   1      30.098  15.293   3.778  0.00  0.00     0.151 C 
HETATM   29  C   UNK N   1      26.222  11.530   2.995  0.00  0.00    -0.010 C 
HETATM   30  C   UNK N   1      26.134  14.013   3.330  0.00  0.00     0.022 C 
HETATM   31  C   UNK N   1      30.185  13.921   4.435  0.00  0.00    -0.055 C 
HETATM   32  C   UNK N   1      27.408  11.369   2.375  0.00  0.00    -0.056 C 
HETATM   33  C   UNK N   1      31.345  13.245   4.493  0.00  0.00     0.005 C 
HETATM   34  C   UNK N   1      28.961  13.274   4.993  0.00  0.00     0.046 C 
HETATM   35  C   UNK N   1      28.013   9.989   2.275  0.00  0.00     0.183 C 
HETATM   36  C   UNK N   1      27.997  12.479   1.555  0.00  0.00     0.046 C 
HETATM   37  C   UNK N   1      32.625  13.805   4.002  0.00  0.00     0.000 C 
HETATM   38  C   UNK N   1      29.482   9.765   2.688  0.00  0.00     0.223 C 
HETATM   39  C   UNK N   1      33.745  13.081   3.882  0.00  0.00    -0.000 C 
HETATM   40  C   UNK N   1      30.010   8.458   2.094  0.00  0.00     0.162 C 
HETATM   41  C   UNK N   1      33.771  11.630   4.102  0.00  0.00    -0.004 C 
HETATM   42  C   UNK N   1      31.341   7.879   2.517  0.00  0.00     0.055 C 
HETATM   43  O   UNK N   1      29.331   7.859   1.269  0.00  0.00    -0.295 OA
HETATM   44  C   UNK N   1      33.235  10.835   3.180  0.00  0.00    -0.022 C 
HETATM   45  C   UNK N   1      32.482   8.791   2.121  0.00  0.00     0.020 C 
HETATM   46  C   UNK N   1      31.593   6.519   1.881  0.00  0.00     0.018 C 
HETATM   47  C   UNK N   1      33.150   9.359   3.353  0.00  0.00     0.005 C 
HETATM   48  C   UNK N   1      34.529   8.743   3.495  0.00  0.00     0.014 C 
HETATM   49  H   UNK N   1      25.888  17.840   6.855  0.00  0.00     0.213 HD
ENDROOT
BRANCH  28  50
HETATM   50  O   UNK N   1      31.135  16.209   4.061  0.00  0.00    -0.386 OA
HETATM   51  C   UNK N   1      31.678  16.668   2.851  0.00  0.00     0.202 C 
ENDBRANCH  28  50
BRANCH  15  52
HETATM   52  C   UNK N   1      21.484  13.702   1.867  0.00  0.00     0.012 C 
HETATM   53  C   UNK N   1      20.526  14.207   0.801  0.00  0.00     0.012 C 
BRANCH  52  54
HETATM   54  C   UNK N   1      21.646  12.185   1.921  0.00  0.00     0.011 C 
BRANCH  54  55
HETATM   55  C   UNK N   1      21.307  11.679   3.300  0.00  0.00    -0.012 C 
HETATM   56  C   UNK N   1      20.376  10.464   3.259  0.00  0.00     0.039 C 
HETATM   57  C   UNK N   1      20.465   9.792   4.614  0.00  0.00     0.150 C 
HETATM   58  C   UNK N   1      21.850   9.146   4.712  0.00  0.00     0.161 C 
HETATM   59  C   UNK N   1      22.988  10.042   4.194  0.00  0.00     0.035 C 
HETATM   60  C   UNK N   1      22.565  11.502   4.164  0.00  0.00     0.007 C 
BRANCH  57  61
HETATM   61  O   UNK N   1      19.453   8.847   4.772  0.00  0.00    -0.388 OA
HETATM   62  C   UNK N   1      19.386   8.199   3.537  0.00  0.00     0.202 C 
ENDBRANCH  57  61
BRANCH  58  63
HETATM   63  O   UNK N   1      22.141   8.734   5.984  0.00  0.00    -0.313 OA
BRANCH  63  64
HETATM   64  C   UNK N   1      22.348   7.424   6.224  0.00  0.00     0.272 C 
HETATM   65  O   UNK N   1      21.392   6.687   6.421  0.00  0.00    -0.264 OA
BRANCH  64  66
HETATM   66  C   UNK N   1      23.755   6.871   6.180  0.00  0.00     0.086 C 
HETATM   67  C   UNK N   1      24.154   6.564   4.744  0.00  0.00     0.030 C 
BRANCH  66  68
HETATM   68  C   UNK N   1      24.766   7.847   6.785  0.00  0.00     0.185 C 
BRANCH  68  69
HETATM   69  O   UNK N   1      25.821   7.168   7.399  0.00  0.00    -0.400 OA
HETATM   70  H   UNK N   1      25.760   6.449   8.047  0.00  0.00     0.209 HD
ENDBRANCH  68  69
ENDBRANCH  66  68
BRANCH  66  71
HETATM   71  C   UNK N   1      23.831   5.591   7.017  0.00  0.00     0.185 C 
BRANCH  71  72
HETATM   72  O   UNK N   1      23.461   5.807   8.348  0.00  0.00    -0.400 OA
HETATM   73  H   UNK N   1      23.675   5.225   9.093  0.00  0.00     0.209 HD
ENDBRANCH  71  72
ENDBRANCH  66  71
ENDBRANCH  64  66
ENDBRANCH  63  64
ENDBRANCH  58  63
ENDBRANCH  54  55
ENDBRANCH  52  54
ENDBRANCH  15  52
BRANCH  35  74
HETATM   74  O   UNK N   1      27.208   9.024   2.891  0.00  0.00    -0.388 OA
HETATM   75  H   UNK N   1      27.053   8.067   2.904  0.00  0.00     0.210 HD
ENDBRANCH  35  74
BRANCH  38  76
HETATM   76  O   UNK N   1      30.324  10.882   2.465  0.00  0.00    -0.380 OA
HETATM   77  C   UNK N   1      30.530  11.062   1.086  0.00  0.00     0.202 C 
ENDBRANCH  38  76
TORSDOF 14
ENDMDL
MODEL 9
REMARK VINA RESULT:      -7.8      2.609      8.533
REMARK  14 active torsions:
REMARK  status: ('A' for Active; 'I' for Inactive)
REMARK    1  A    between atoms: C_15  and  C_19 
REMARK    2  A    between atoms: C_19  and  C_24 
REMARK    3  A    between atoms: C_29  and  C_24 
REMARK    4  A    between atoms: C_32  and  O_38 
REMARK    5  A    between atoms: C_39  and  O_46 
REMARK    6  A    between atoms: C_45  and  O_50 
REMARK    7  A    between atoms: C_47  and  O_52 
REMARK    8  A    between atoms: O_50  and  C_65 
REMARK    9  A    between atoms: C_51  and  O_55 
REMARK   10  A    between atoms: C_65  and  C_66 
REMARK   11  A    between atoms: C_66  and  C_69 
REMARK   12  A    between atoms: C_66  and  C_70 
REMARK   13  A    between atoms: C_69  and  O_72 
REMARK   14  A    between atoms: C_70  and  O_73 
ROOT
HETATM    1  N   UNK N   1      28.621  15.887   5.860  0.00  0.00    -0.331 N 
HETATM    2  C   UNK N   1      29.840  16.648   5.590  0.00  0.00     0.187 C 
HETATM    3  C   UNK N   1      28.281  14.803   5.082  0.00  0.00     0.296 C 
HETATM    4  C   UNK N   1      27.665  16.470   6.796  0.00  0.00     0.127 C 
HETATM    5  C   UNK N   1      30.593  16.322   4.321  0.00  0.00     0.282 C 
HETATM    6  C   UNK N   1      30.590  17.178   6.809  0.00  0.00     0.035 C 
HETATM    7  C   UNK N   1      26.869  14.443   4.780  0.00  0.00     0.278 C 
HETATM    8  O   UNK N   1      29.157  14.189   4.483  0.00  0.00    -0.264 OA
HETATM    9  C   UNK N   1      28.187  17.756   7.451  0.00  0.00     0.020 C 
HETATM   10  O   UNK N   1      31.529  15.347   4.287  0.00  0.00    -0.314 OA
HETATM   11  O   UNK N   1      30.221  16.822   3.273  0.00  0.00    -0.263 OA
HETATM   12  C   UNK N   1      29.630  17.586   7.932  0.00  0.00     0.004 C 
HETATM   13  C   UNK N   1      26.553  13.773   3.438  0.00  0.00     0.238 C 
HETATM   14  O   UNK N   1      25.969  15.034   5.366  0.00  0.00    -0.281 OA
HETATM   15  C   UNK N   1      32.114  14.807   5.409  0.00  0.00     0.142 C 
HETATM   16  O   UNK N   1      27.593  12.848   3.112  0.00  0.00    -0.343 OA
HETATM   17  C   UNK N   1      25.190  13.040   3.489  0.00  0.00     0.053 C 
HETATM   18  O   UNK N   1      26.512  14.790   2.470  0.00  0.00    -0.359 OA
HETATM   19  C   UNK N   1      32.433  13.321   5.189  0.00  0.00     0.112 C 
HETATM   20  C   UNK N   1      27.407  12.191   1.866  0.00  0.00     0.128 C 
HETATM   21  C   UNK N   1      24.939  12.339   2.171  0.00  0.00     0.013 C 
HETATM   22  C   UNK N   1      24.012  13.965   3.756  0.00  0.00     0.016 C 
HETATM   23  C   UNK N   1      33.086  12.922   3.898  0.00  0.00     0.136 C 
HETATM   24  C   UNK N   1      28.568  11.200   1.701  0.00  0.00     0.068 C 
HETATM   25  C   UNK N   1      26.096  11.407   1.902  0.00  0.00     0.033 C 
HETATM   26  C   UNK N   1      32.551  13.381   2.548  0.00  0.00     0.074 C 
HETATM   27  O   UNK N   1      34.061  12.184   3.954  0.00  0.00    -0.297 OA
HETATM   28  C   UNK N   1      28.610  10.306   0.441  0.00  0.00     0.151 C 
HETATM   29  C   UNK N   1      33.367  12.797   1.422  0.00  0.00    -0.010 C 
HETATM   30  C   UNK N   1      31.068  13.089   2.380  0.00  0.00     0.022 C 
HETATM   31  C   UNK N   1      29.571  10.647  -0.691  0.00  0.00    -0.055 C 
HETATM   32  C   UNK N   1      33.381  11.484   1.113  0.00  0.00    -0.056 C 
HETATM   33  C   UNK N   1      29.811   9.780  -1.690  0.00  0.00     0.005 C 
HETATM   34  C   UNK N   1      30.309  11.945  -0.688  0.00  0.00     0.046 C 
HETATM   35  C   UNK N   1      34.464  10.945   0.211  0.00  0.00     0.183 C 
HETATM   36  C   UNK N   1      32.511  10.517   1.859  0.00  0.00     0.046 C 
HETATM   37  C   UNK N   1      29.112   8.480  -1.810  0.00  0.00     0.000 C 
HETATM   38  C   UNK N   1      34.086  10.066  -0.999  0.00  0.00     0.223 C 
HETATM   39  C   UNK N   1      29.469   7.533  -2.686  0.00  0.00    -0.000 C 
HETATM   40  C   UNK N   1      35.302   9.275  -1.484  0.00  0.00     0.162 C 
HETATM   41  C   UNK N   1      30.672   7.644  -3.518  0.00  0.00    -0.004 C 
HETATM   42  C   UNK N   1      35.277   8.507  -2.787  0.00  0.00     0.055 C 
HETATM   43  O   UNK N   1      36.325   9.277  -0.810  0.00  0.00    -0.295 OA
HETATM   44  C   UNK N   1      31.861   7.473  -2.947  0.00  0.00    -0.022 C 
HETATM   45  C   UNK N   1      34.272   7.378  -2.733  0.00  0.00     0.020 C 
HETATM   46  C   UNK N   1      36.636   7.903  -3.112  0.00  0.00     0.018 C 
HETATM   47  C   UNK N   1      33.137   7.640  -3.696  0.00  0.00     0.005 C 
HETATM   48  C   UNK N   1      33.228   6.658  -4.848  0.00  0.00     0.014 C 
HETATM   49  H   UNK N   1      26.497  15.527   1.840  0.00  0.00     0.213 HD
ENDROOT
BRANCH  28  50
HETATM   50  O   UNK N   1      27.392   9.686   0.086  0.00  0.00    -0.386 OA
HETATM   51  C   UNK N   1      27.239   8.517   0.847  0.00  0.00     0.202 C 
ENDBRANCH  28  50
BRANCH  15  52
HETATM   52  C   UNK N   1      33.226  15.768   5.848  0.00  0.00     0.012 C 
HETATM   53  C   UNK N   1      33.474  16.920   4.888  0.00  0.00     0.012 C 
BRANCH  52  54
HETATM   54  C   UNK N   1      33.176  16.158   7.323  0.00  0.00     0.011 C 
BRANCH  54  55
HETATM   55  C   UNK N   1      33.522  14.969   8.183  0.00  0.00    -0.012 C 
HETATM   56  C   UNK N   1      35.031  14.841   8.415  0.00  0.00     0.039 C 
HETATM   57  C   UNK N   1      35.218  13.926   9.608  0.00  0.00     0.150 C 
HETATM   58  C   UNK N   1      34.755  14.694  10.849  0.00  0.00     0.161 C 
HETATM   59  C   UNK N   1      33.442  15.469  10.641  0.00  0.00     0.035 C 
HETATM   60  C   UNK N   1      32.665  14.921   9.456  0.00  0.00     0.007 C 
BRANCH  57  61
HETATM   61  O   UNK N   1      36.548  13.525   9.727  0.00  0.00    -0.388 OA
HETATM   62  C   UNK N   1      37.104  13.788   8.473  0.00  0.00     0.202 C 
ENDBRANCH  57  61
BRANCH  58  63
HETATM   63  O   UNK N   1      34.635  13.884  11.945  0.00  0.00    -0.313 OA
BRANCH  63  64
HETATM   64  C   UNK N   1      35.566  13.944  12.917  0.00  0.00     0.272 C 
HETATM   65  O   UNK N   1      36.107  15.011  13.173  0.00  0.00    -0.264 OA
BRANCH  64  66
HETATM   66  C   UNK N   1      35.882  12.705  13.725  0.00  0.00     0.086 C 
HETATM   67  C   UNK N   1      34.645  11.825  13.843  0.00  0.00     0.030 C 
BRANCH  66  68
HETATM   68  C   UNK N   1      37.017  11.894  13.098  0.00  0.00     0.185 C 
BRANCH  68  69
HETATM   69  O   UNK N   1      37.798  12.685  12.252  0.00  0.00    -0.400 OA
HETATM   70  H   UNK N   1      38.054  13.611  12.383  0.00  0.00     0.209 HD
ENDBRANCH  68  69
ENDBRANCH  66  68
BRANCH  66  71
HETATM   71  C   UNK N   1      36.357  13.109  15.124  0.00  0.00     0.185 C 
BRANCH  71  72
HETATM   72  O   UNK N   1      37.612  13.724  15.098  0.00  0.00    -0.400 OA
HETATM   73  H   UNK N   1      38.457  13.284  15.280  0.00  0.00     0.209 HD
ENDBRANCH  71  72
ENDBRANCH  66  71
ENDBRANCH  64  66
ENDBRANCH  63  64
ENDBRANCH  58  63
ENDBRANCH  54  55
ENDBRANCH  52  54
ENDBRANCH  15  52
BRANCH  35  74
HETATM   74  O   UNK N   1      35.341  11.954  -0.208  0.00  0.00    -0.388 OA
HETATM   75  H   UNK N   1      36.237  12.288  -0.050  0.00  0.00     0.210 HD
ENDBRANCH  35  74
BRANCH  38  76
HETATM   76  O   UNK N   1      32.926   9.279  -0.804  0.00  0.00    -0.380 OA
HETATM   77  C   UNK N   1      33.194   8.244   0.109  0.00  0.00     0.202 C 
ENDBRANCH  38  76
TORSDOF 14
ENDMDL
