REMARK  5 active torsions:
REMARK  status: ('A' for Active; 'I' for Inactive)
REMARK    1  A    between atoms: N_1  and  C_2 
REMARK    2  A    between atoms: C_9  and  C_10 
REMARK    3  A    between atoms: C_10  and  N_11 
REMARK    4  A    between atoms: C_12  and  N_11 
REMARK    5  A    between atoms: C_15  and  O_16 
ROOT
HETATM    1  C   UNK N   1       2.556   0.468   0.174  0.00  0.00     0.051 A 
HETATM    2  C   UNK N   1       3.845  -0.041  -0.065  0.00  0.00     0.039 A 
HETATM    3 Br   UNK N   1       5.354   1.124  -0.213  0.00  0.00    -0.049 Br
HETATM    4  C   UNK N   1       4.042  -1.420  -0.176  0.00  0.00     0.040 A 
HETATM    5  C   UNK N   1       2.962  -2.296  -0.058  0.00  0.00     0.013 A 
HETATM    6 Br   UNK N   1       3.248  -4.176  -0.178  0.00  0.00    -0.051 Br
HETATM    7  C   UNK N   1       1.679  -1.796   0.179  0.00  0.00     0.030 A 
HETATM    8  C   UNK N   1       1.467  -0.417   0.295  0.00  0.00    -0.012 A 
ENDROOT
BRANCH   8   9
HETATM    9  C   UNK N   1       0.088   0.070   0.617  0.00  0.00     0.155 C 
BRANCH   9  10
HETATM   10  N   UNK N   1      -0.402   1.024  -0.368  0.00  0.00    -0.413 N 
HETATM   11  H   UNK N   1       0.074   1.333  -1.215  0.00  0.00     0.153 HD
BRANCH  10  12
HETATM   12  C   UNK N   1      -1.711   1.446   0.106  0.00  0.00     0.077 C 
HETATM   13  C   UNK N   1      -2.792   0.524  -0.456  0.00  0.00     0.027 C 
HETATM   14  C   UNK N   1      -4.160   0.948   0.068  0.00  0.00     0.034 C 
HETATM   15  C   UNK N   1      -4.448   2.393  -0.329  0.00  0.00     0.118 C 
HETATM   16  C   UNK N   1      -3.364   3.319   0.220  0.00  0.00     0.034 C 
HETATM   17  C   UNK N   1      -1.990   2.892  -0.300  0.00  0.00     0.027 C 
BRANCH  15  18
HETATM   18  O   UNK N   1      -5.691   2.773   0.176  0.00  0.00    -0.396 OA
HETATM   19  H   UNK N   1      -5.894   3.655   0.527  0.00  0.00     0.210 HD
ENDBRANCH  15  18
ENDBRANCH  10  12
ENDBRANCH   9  10
ENDBRANCH   8   9
BRANCH   1  20
HETATM   20  N   UNK N   1       2.362   1.861   0.306  0.00  0.00    -0.398 N 
HETATM   21  H   UNK N   1       3.135   2.464   0.397  0.00  0.00     0.156 HD
HETATM   22  H   UNK N   1       1.449   2.231   0.306  0.00  0.00     0.156 HD
ENDBRANCH   1  20
TORSDOF 5
