MODEL 1
REMARK VINA RESULT:     -10.1      0.000      0.000
REMARK  4 active torsions:
REMARK  status: ('A' for Active; 'I' for Inactive)
REMARK    1  A    between atoms: C_3  and  C_7 
REMARK    2  A    between atoms: C_5  and  C_33 
REMARK    3  A    between atoms: N_21  and  C_25 
REMARK    4  A    between atoms: C_33  and  O_34 
ROOT
HETATM    1  C   UNK N   1      32.516  16.642   6.923  0.00  0.00     0.010 A 
HETATM    2  C   UNK N   1      32.709  16.788   5.540  0.00  0.00     0.015 A 
HETATM    3  C   UNK N   1      33.869  16.300   4.921  0.00  0.00     0.003 A 
HETATM    4  C   UNK N   1      34.868  15.659   5.668  0.00  0.00     0.034 A 
HETATM    5  C   UNK N   1      34.712  15.497   7.045  0.00  0.00     0.082 A 
HETATM    6  C   UNK N   1      33.519  15.992   7.670  0.00  0.00     0.104 A 
HETATM    7  O   UNK N   1      33.336  15.845   8.994  0.00  0.00    -0.357 OA
HETATM    8  N   UNK N   1      35.734  14.855   7.826  0.00  0.00    -0.297 N 
HETATM    9  N   UNK N   1      35.490  14.811   9.167  0.00  0.00    -0.293 N 
ATOM     10  HN  UNK N   1      34.625  15.282   9.433  1.00  0.00     0.187 HD
HETATM   11  C   UNK N   1      36.109  14.309  10.159  0.00  0.00     0.142 A 
HETATM   12  C   UNK N   1      37.352  13.555  10.410  0.00  0.00     0.056 A 
HETATM   13  N   UNK N   1      37.426  13.296  11.684  0.00  0.00    -0.293 N 
ATOM     14  HN  UNK N   1      38.187  12.787  12.134  1.00  0.00     0.187 HD
HETATM   15  N   UNK N   1      36.321  13.814  12.336  0.00  0.00    -0.218 N 
HETATM   16  C   UNK N   1      35.529  14.423  11.449  0.00  0.00     0.297 A 
HETATM   17  C   UNK N   1      38.379  13.139   9.413  0.00  0.00     0.072 C 
HETATM   18  O   UNK N   1      34.468  14.979  11.703  0.00  0.00    -0.264 OA
HETATM   19  H   UNK N   1      33.985  15.410   9.511  0.00  0.00     0.217 HD
HETATM   20  H   UNK N   1      36.547  14.475   7.423  0.00  0.00     0.187 HD
ENDROOT
BRANCH  15  21
HETATM   21  C   UNK N   1      36.029  13.717  13.733  0.00  0.00     0.060 A 
HETATM   22  C   UNK N   1      36.700  14.563  14.634  0.00  0.00     0.039 A 
HETATM   23  C   UNK N   1      36.460  14.523  15.997  0.00  0.00    -0.054 A 
HETATM   24  C   UNK N   1      35.522  13.612  16.499  0.00  0.00    -0.056 A 
HETATM   25  C   UNK N   1      37.214  15.457  16.885  0.00  0.00     0.049 C 
HETATM   26  C   UNK N   1      34.840  12.759  15.616  0.00  0.00     0.009 A 
HETATM   27  C   UNK N   1      35.240  13.538  17.961  0.00  0.00     0.049 C 
HETATM   28  C   UNK N   1      35.089  12.809  14.233  0.00  0.00     0.032 A 
ENDBRANCH  15  21
BRANCH   1  29
HETATM   29  C   UNK N   1      31.269  17.176   7.586  0.00  0.00    -0.022 A 
HETATM   30  C   UNK N   1      31.349  18.026   8.698  0.00  0.00     0.012 A 
HETATM   31  C   UNK N   1      30.183  18.511   9.309  0.00  0.00     0.002 A 
HETATM   32  C   UNK N   1      28.922  18.151   8.818  0.00  0.00     0.018 A 
HETATM   33  C   UNK N   1      28.818  17.305   7.711  0.00  0.00     0.038 A 
HETATM   34  C   UNK N   1      29.986  16.829   7.112  0.00  0.00     0.030 A 
BRANCH  33  35
HETATM   35  C   UNK N   1      27.494  16.911   7.177  0.00  0.00     0.176 C 
HETATM   36  O   UNK N   1      27.137  17.288   6.070  0.00  0.00    -0.646 OA
BRANCH  35  37
HETATM   37  O   UNK N   1      26.670  16.134   7.908  0.00  0.00    -0.773 OA
HETATM   38  H   UNK N   1      25.776  16.388   8.034  0.00  0.00     0.167 HD
ENDBRANCH  35  37
ENDBRANCH  33  35
ENDBRANCH   1  29
TORSDOF 4
ENDMDL
MODEL 2
REMARK VINA RESULT:      -9.7      6.925     10.958
REMARK  4 active torsions:
REMARK  status: ('A' for Active; 'I' for Inactive)
REMARK    1  A    between atoms: C_3  and  C_7 
REMARK    2  A    between atoms: C_5  and  C_33 
REMARK    3  A    between atoms: N_21  and  C_25 
REMARK    4  A    between atoms: C_33  and  O_34 
ROOT
HETATM    1  C   UNK N   1      22.573  14.750   6.833  0.00  0.00     0.010 A 
HETATM    2  C   UNK N   1      21.217  15.090   6.713  0.00  0.00     0.015 A 
HETATM    3  C   UNK N   1      20.829  16.299   6.115  0.00  0.00     0.003 A 
HETATM    4  C   UNK N   1      21.788  17.198   5.626  0.00  0.00     0.034 A 
HETATM    5  C   UNK N   1      23.146  16.895   5.730  0.00  0.00     0.082 A 
HETATM    6  C   UNK N   1      23.533  15.654   6.336  0.00  0.00     0.104 A 
HETATM    7  O   UNK N   1      24.833  15.329   6.443  0.00  0.00    -0.357 OA
HETATM    8  N   UNK N   1      24.139  17.815   5.246  0.00  0.00    -0.297 N 
HETATM    9  N   UNK N   1      25.430  17.429   5.459  0.00  0.00    -0.293 N 
ATOM     10  HN  UNK N   1      25.507  16.552   5.973  1.00  0.00     0.187 HD
HETATM   11  C   UNK N   1      26.560  17.929   5.155  0.00  0.00     0.142 A 
HETATM   12  C   UNK N   1      27.082  19.122   4.461  0.00  0.00     0.056 A 
HETATM   13  N   UNK N   1      28.382  19.056   4.449  0.00  0.00    -0.293 N 
ATOM     14  HN  UNK N   1      29.000  19.753   4.033  1.00  0.00     0.187 HD
HETATM   15  N   UNK N   1      28.801  17.899   5.083  0.00  0.00    -0.218 N 
HETATM   16  C   UNK N   1      27.735  17.218   5.513  0.00  0.00     0.297 A 
HETATM   17  C   UNK N   1      26.298  20.239   3.862  0.00  0.00     0.072 C 
HETATM   18  O   UNK N   1      27.763  16.150   6.108  0.00  0.00    -0.264 OA
HETATM   19  H   UNK N   1      25.490  15.910   6.114  0.00  0.00     0.217 HD
HETATM   20  H   UNK N   1      23.905  18.657   4.796  0.00  0.00     0.187 HD
ENDROOT
BRANCH  15  21
HETATM   21  C   UNK N   1      30.151  17.459   5.254  0.00  0.00     0.060 A 
HETATM   22  C   UNK N   1      30.932  17.182   4.116  0.00  0.00     0.039 A 
HETATM   23  C   UNK N   1      32.246  16.758   4.214  0.00  0.00    -0.054 A 
HETATM   24  C   UNK N   1      32.820  16.594   5.481  0.00  0.00    -0.056 A 
HETATM   25  C   UNK N   1      33.006  16.488   2.957  0.00  0.00     0.049 C 
HETATM   26  C   UNK N   1      32.058  16.866   6.629  0.00  0.00     0.009 A 
HETATM   27  C   UNK N   1      34.231  16.135   5.624  0.00  0.00     0.049 C 
HETATM   28  C   UNK N   1      30.725  17.299   6.520  0.00  0.00     0.032 A 
ENDBRANCH  15  21
BRANCH   1  29
HETATM   29  C   UNK N   1      22.985  13.451   7.485  0.00  0.00    -0.022 A 
HETATM   30  C   UNK N   1      23.060  12.263   6.743  0.00  0.00     0.012 A 
HETATM   31  C   UNK N   1      23.438  11.061   7.361  0.00  0.00     0.002 A 
HETATM   32  C   UNK N   1      23.746  11.032   8.726  0.00  0.00     0.018 A 
HETATM   33  C   UNK N   1      23.678  12.203   9.485  0.00  0.00     0.038 A 
HETATM   34  C   UNK N   1      23.300  13.392   8.858  0.00  0.00     0.030 A 
BRANCH  33  35
HETATM   35  C   UNK N   1      23.998  12.193  10.931  0.00  0.00     0.176 C 
HETATM   36  O   UNK N   1      23.161  11.833  11.746  0.00  0.00    -0.646 OA
BRANCH  35  37
HETATM   37  O   UNK N   1      25.215  12.581  11.361  0.00  0.00    -0.773 OA
HETATM   38  H   UNK N   1      25.666  12.076  12.009  0.00  0.00     0.167 HD
ENDBRANCH  35  37
ENDBRANCH  33  35
ENDBRANCH   1  29
TORSDOF 4
ENDMDL
MODEL 3
REMARK VINA RESULT:      -8.9      3.208      4.253
REMARK  4 active torsions:
REMARK  status: ('A' for Active; 'I' for Inactive)
REMARK    1  A    between atoms: C_3  and  C_7 
REMARK    2  A    between atoms: C_5  and  C_33 
REMARK    3  A    between atoms: N_21  and  C_25 
REMARK    4  A    between atoms: C_33  and  O_34 
ROOT
HETATM    1  C   UNK N   1      33.104  13.373   7.440  0.00  0.00     0.010 A 
HETATM    2  C   UNK N   1      32.881  12.611   6.284  0.00  0.00     0.015 A 
HETATM    3  C   UNK N   1      33.063  11.220   6.294  0.00  0.00     0.003 A 
HETATM    4  C   UNK N   1      33.479  10.558   7.458  0.00  0.00     0.034 A 
HETATM    5  C   UNK N   1      33.712  11.283   8.627  0.00  0.00     0.082 A 
HETATM    6  C   UNK N   1      33.516  12.704   8.611  0.00  0.00     0.104 A 
HETATM    7  O   UNK N   1      33.725  13.430   9.723  0.00  0.00    -0.357 OA
HETATM    8  N   UNK N   1      34.152  10.619   9.824  0.00  0.00    -0.297 N 
HETATM    9  N   UNK N   1      34.401  11.445  10.880  0.00  0.00    -0.293 N 
ATOM     10  HN  UNK N   1      34.278  12.432  10.655  1.00  0.00     0.187 HD
HETATM   11  C   UNK N   1      34.756  11.249  12.086  0.00  0.00     0.142 A 
HETATM   12  C   UNK N   1      35.084  10.109  12.963  0.00  0.00     0.056 A 
HETATM   13  N   UNK N   1      35.359  10.568  14.150  0.00  0.00    -0.293 N 
ATOM     14  HN  UNK N   1      35.622   9.996  14.953  1.00  0.00     0.187 HD
HETATM   15  N   UNK N   1      35.243  11.947  14.161  0.00  0.00    -0.218 N 
HETATM   16  C   UNK N   1      34.890  12.372  12.944  0.00  0.00     0.297 A 
HETATM   17  C   UNK N   1      35.112   8.664  12.601  0.00  0.00     0.072 C 
HETATM   18  O   UNK N   1      34.700  13.537  12.623  0.00  0.00    -0.264 OA
HETATM   19  H   UNK N   1      33.992  13.007  10.515  0.00  0.00     0.217 HD
HETATM   20  H   UNK N   1      34.263   9.643   9.876  0.00  0.00     0.187 HD
ENDROOT
BRANCH  15  21
HETATM   21  C   UNK N   1      35.443  12.813  15.282  0.00  0.00     0.060 A 
HETATM   22  C   UNK N   1      36.355  13.878  15.171  0.00  0.00     0.039 A 
HETATM   23  C   UNK N   1      36.590  14.755  16.217  0.00  0.00    -0.054 A 
HETATM   24  C   UNK N   1      35.905  14.578  17.425  0.00  0.00    -0.056 A 
HETATM   25  C   UNK N   1      37.573  15.861  16.015  0.00  0.00     0.049 C 
HETATM   26  C   UNK N   1      34.989  13.521  17.556  0.00  0.00     0.009 A 
HETATM   27  C   UNK N   1      36.135  15.500  18.573  0.00  0.00     0.049 C 
HETATM   28  C   UNK N   1      34.755  12.638  16.487  0.00  0.00     0.032 A 
ENDBRANCH  15  21
BRANCH   1  29
HETATM   29  C   UNK N   1      32.913  14.872   7.423  0.00  0.00    -0.022 A 
HETATM   30  C   UNK N   1      31.806  15.451   6.787  0.00  0.00     0.012 A 
HETATM   31  C   UNK N   1      31.642  16.844   6.772  0.00  0.00     0.002 A 
HETATM   32  C   UNK N   1      32.583  17.676   7.392  0.00  0.00     0.018 A 
HETATM   33  C   UNK N   1      33.694  17.120   8.032  0.00  0.00     0.038 A 
HETATM   34  C   UNK N   1      33.845  15.732   8.039  0.00  0.00     0.030 A 
BRANCH  33  35
HETATM   35  C   UNK N   1      34.702  17.983   8.692  0.00  0.00     0.176 C 
HETATM   36  O   UNK N   1      34.973  19.081   8.230  0.00  0.00    -0.646 OA
BRANCH  35  37
HETATM   37  O   UNK N   1      35.329  17.562   9.808  0.00  0.00    -0.773 OA
HETATM   38  H   UNK N   1      36.068  18.036  10.137  0.00  0.00     0.167 HD
ENDBRANCH  35  37
ENDBRANCH  33  35
ENDBRANCH   1  29
TORSDOF 4
ENDMDL
MODEL 4
REMARK VINA RESULT:      -8.9      6.423     10.565
REMARK  4 active torsions:
REMARK  status: ('A' for Active; 'I' for Inactive)
REMARK    1  A    between atoms: C_3  and  C_7 
REMARK    2  A    between atoms: C_5  and  C_33 
REMARK    3  A    between atoms: N_21  and  C_25 
REMARK    4  A    between atoms: C_33  and  O_34 
ROOT
HETATM    1  C   UNK N   1      29.836  16.589   5.043  0.00  0.00     0.010 A 
HETATM    2  C   UNK N   1      30.563  16.845   3.870  0.00  0.00     0.015 A 
HETATM    3  C   UNK N   1      30.143  16.323   2.637  0.00  0.00     0.003 A 
HETATM    4  C   UNK N   1      28.989  15.530   2.548  0.00  0.00     0.034 A 
HETATM    5  C   UNK N   1      28.243  15.254   3.693  0.00  0.00     0.082 A 
HETATM    6  C   UNK N   1      28.675  15.797   4.949  0.00  0.00     0.104 A 
HETATM    7  O   UNK N   1      27.972  15.556   6.070  0.00  0.00    -0.357 OA
HETATM    8  N   UNK N   1      27.066  14.431   3.618  0.00  0.00    -0.297 N 
HETATM    9  N   UNK N   1      26.458  14.187   4.815  0.00  0.00    -0.293 N 
ATOM     10  HN  UNK N   1      26.955  14.595   5.607  1.00  0.00     0.187 HD
HETATM   11  C   UNK N   1      25.406  13.559   5.156  0.00  0.00     0.142 A 
HETATM   12  C   UNK N   1      24.329  12.788   4.508  0.00  0.00     0.056 A 
HETATM   13  N   UNK N   1      23.489  12.402   5.424  0.00  0.00    -0.293 N 
ATOM     14  HN  UNK N   1      22.649  11.849   5.254  1.00  0.00     0.187 HD
HETATM   15  N   UNK N   1      23.904  12.854   6.665  0.00  0.00    -0.218 N 
HETATM   16  C   UNK N   1      25.043  13.539   6.528  0.00  0.00     0.297 A 
HETATM   17  C   UNK N   1      24.182  12.475   3.058  0.00  0.00     0.072 C 
HETATM   18  O   UNK N   1      25.667  14.074   7.434  0.00  0.00    -0.264 OA
HETATM   19  H   UNK N   1      27.193  15.038   6.031  0.00  0.00     0.217 HD
HETATM   20  H   UNK N   1      26.725  14.072   2.768  0.00  0.00     0.187 HD
ENDROOT
BRANCH  15  21
HETATM   21  C   UNK N   1      23.239  12.654   7.915  0.00  0.00     0.060 A 
HETATM   22  C   UNK N   1      22.131  13.459   8.239  0.00  0.00     0.039 A 
HETATM   23  C   UNK N   1      21.441  13.313   9.430  0.00  0.00    -0.054 A 
HETATM   24  C   UNK N   1      21.855  12.337  10.345  0.00  0.00    -0.056 A 
HETATM   25  C   UNK N   1      20.274  14.207   9.695  0.00  0.00     0.049 C 
HETATM   26  C   UNK N   1      22.957  11.522  10.041  0.00  0.00     0.009 A 
HETATM   27  C   UNK N   1      21.137  12.153  11.639  0.00  0.00     0.049 C 
HETATM   28  C   UNK N   1      23.650  11.676   8.827  0.00  0.00     0.032 A 
ENDBRANCH  15  21
BRANCH   1  29
HETATM   29  C   UNK N   1      30.297  17.147   6.370  0.00  0.00    -0.022 A 
HETATM   30  C   UNK N   1      29.373  17.604   7.321  0.00  0.00     0.012 A 
HETATM   31  C   UNK N   1      29.814  18.125   8.547  0.00  0.00     0.002 A 
HETATM   32  C   UNK N   1      31.181  18.197   8.837  0.00  0.00     0.018 A 
HETATM   33  C   UNK N   1      32.120  17.747   7.904  0.00  0.00     0.038 A 
HETATM   34  C   UNK N   1      31.668  17.231   6.688  0.00  0.00     0.030 A 
BRANCH  33  35
HETATM   35  C   UNK N   1      33.571  17.816   8.192  0.00  0.00     0.176 C 
HETATM   36  O   UNK N   1      34.365  18.090   7.303  0.00  0.00    -0.646 OA
BRANCH  35  37
HETATM   37  O   UNK N   1      34.029  17.576   9.436  0.00  0.00    -0.773 OA
HETATM   38  H   UNK N   1      34.874  17.187   9.558  0.00  0.00     0.167 HD
ENDBRANCH  35  37
ENDBRANCH  33  35
ENDBRANCH   1  29
TORSDOF 4
ENDMDL
MODEL 5
REMARK VINA RESULT:      -8.9      6.845     11.671
REMARK  4 active torsions:
REMARK  status: ('A' for Active; 'I' for Inactive)
REMARK    1  A    between atoms: C_3  and  C_7 
REMARK    2  A    between atoms: C_5  and  C_33 
REMARK    3  A    between atoms: N_21  and  C_25 
REMARK    4  A    between atoms: C_33  and  O_34 
ROOT
HETATM    1  C   UNK N   1      21.094  15.958   4.925  0.00  0.00     0.010 A 
HETATM    2  C   UNK N   1      19.875  16.361   4.360  0.00  0.00     0.015 A 
HETATM    3  C   UNK N   1      19.798  17.513   3.562  0.00  0.00     0.003 A 
HETATM    4  C   UNK N   1      20.937  18.292   3.314  0.00  0.00     0.034 A 
HETATM    5  C   UNK N   1      22.167  17.924   3.861  0.00  0.00     0.082 A 
HETATM    6  C   UNK N   1      22.238  16.741   4.669  0.00  0.00     0.104 A 
HETATM    7  O   UNK N   1      23.410  16.355   5.203  0.00  0.00    -0.357 OA
HETATM    8  N   UNK N   1      23.340  18.721   3.626  0.00  0.00    -0.297 N 
HETATM    9  N   UNK N   1      24.466  18.288   4.262  0.00  0.00    -0.293 N 
ATOM     10  HN  UNK N   1      24.303  17.473   4.854  1.00  0.00     0.187 HD
HETATM   11  C   UNK N   1      25.675  18.682   4.278  0.00  0.00     0.142 A 
HETATM   12  C   UNK N   1      26.489  19.754   3.673  0.00  0.00     0.056 A 
HETATM   13  N   UNK N   1      27.720  19.611   4.070  0.00  0.00    -0.293 N 
ATOM     14  HN  UNK N   1      28.496  20.218   3.804  1.00  0.00     0.187 HD
HETATM   15  N   UNK N   1      27.821  18.513   4.906  0.00  0.00    -0.218 N 
HETATM   16  C   UNK N   1      26.617  17.950   5.046  0.00  0.00     0.297 A 
HETATM   17  C   UNK N   1      26.028  20.838   2.760  0.00  0.00     0.072 C 
HETATM   18  O   UNK N   1      26.367  16.958   5.717  0.00  0.00    -0.264 OA
HETATM   19  H   UNK N   1      24.186  16.854   5.041  0.00  0.00     0.217 HD
HETATM   20  H   UNK N   1      23.330  19.519   3.049  0.00  0.00     0.187 HD
ENDROOT
BRANCH  15  21
HETATM   21  C   UNK N   1      29.011  18.017   5.527  0.00  0.00     0.060 A 
HETATM   22  C   UNK N   1      29.099  18.007   6.931  0.00  0.00     0.039 A 
HETATM   23  C   UNK N   1      30.220  17.536   7.593  0.00  0.00    -0.054 A 
HETATM   24  C   UNK N   1      31.303  17.057   6.847  0.00  0.00    -0.056 A 
HETATM   25  C   UNK N   1      30.231  17.558   9.086  0.00  0.00     0.049 C 
HETATM   26  C   UNK N   1      31.236  17.057   5.444  0.00  0.00     0.009 A 
HETATM   27  C   UNK N   1      32.528  16.545   7.525  0.00  0.00     0.049 C 
HETATM   28  C   UNK N   1      30.092  17.535   4.781  0.00  0.00     0.032 A 
ENDBRANCH  15  21
BRANCH   1  29
HETATM   29  C   UNK N   1      21.170  14.721   5.789  0.00  0.00    -0.022 A 
HETATM   30  C   UNK N   1      21.490  13.473   5.236  0.00  0.00     0.012 A 
HETATM   31  C   UNK N   1      21.551  12.331   6.048  0.00  0.00     0.002 A 
HETATM   32  C   UNK N   1      21.295  12.421   7.422  0.00  0.00     0.018 A 
HETATM   33  C   UNK N   1      20.975  13.655   7.994  0.00  0.00     0.038 A 
HETATM   34  C   UNK N   1      20.916  14.784   7.175  0.00  0.00     0.030 A 
BRANCH  33  35
HETATM   35  C   UNK N   1      20.698  13.772   9.445  0.00  0.00     0.176 C 
HETATM   36  O   UNK N   1      21.585  13.569  10.261  0.00  0.00    -0.646 OA
BRANCH  35  37
HETATM   37  O   UNK N   1      19.465  14.101   9.877  0.00  0.00    -0.773 OA
HETATM   38  H   UNK N   1      18.984  14.781   9.446  0.00  0.00     0.167 HD
ENDBRANCH  35  37
ENDBRANCH  33  35
ENDBRANCH   1  29
TORSDOF 4
ENDMDL
MODEL 6
REMARK VINA RESULT:      -8.8      1.814      2.867
REMARK  4 active torsions:
REMARK  status: ('A' for Active; 'I' for Inactive)
REMARK    1  A    between atoms: C_3  and  C_7 
REMARK    2  A    between atoms: C_5  and  C_33 
REMARK    3  A    between atoms: N_21  and  C_25 
REMARK    4  A    between atoms: C_33  and  O_34 
ROOT
HETATM    1  C   UNK N   1      31.334  16.034   5.185  0.00  0.00     0.010 A 
HETATM    2  C   UNK N   1      31.451  16.346   3.822  0.00  0.00     0.015 A 
HETATM    3  C   UNK N   1      32.671  16.182   3.149  0.00  0.00     0.003 A 
HETATM    4  C   UNK N   1      33.805  15.706   3.824  0.00  0.00     0.034 A 
HETATM    5  C   UNK N   1      33.727  15.388   5.180  0.00  0.00     0.082 A 
HETATM    6  C   UNK N   1      32.474  15.551   5.858  0.00  0.00     0.104 A 
HETATM    7  O   UNK N   1      32.364  15.246   7.163  0.00  0.00    -0.357 OA
HETATM    8  N   UNK N   1      34.886  14.913   5.887  0.00  0.00    -0.297 N 
HETATM    9  N   UNK N   1      34.695  14.693   7.220  0.00  0.00    -0.293 N 
ATOM     10  HN  UNK N   1      33.757  14.938   7.536  1.00  0.00     0.187 HD
HETATM   11  C   UNK N   1      35.435  14.248   8.154  0.00  0.00     0.142 A 
HETATM   12  C   UNK N   1      36.818  13.763   8.322  0.00  0.00     0.056 A 
HETATM   13  N   UNK N   1      36.983  13.409   9.564  0.00  0.00    -0.293 N 
ATOM     14  HN  UNK N   1      37.847  13.037   9.957  1.00  0.00     0.187 HD
HETATM   15  N   UNK N   1      35.810  13.611  10.271  0.00  0.00    -0.218 N 
HETATM   16  C   UNK N   1      34.881  14.113   9.453  0.00  0.00     0.297 A 
HETATM   17  C   UNK N   1      37.882  13.674   7.281  0.00  0.00     0.072 C 
HETATM   18  O   UNK N   1      33.733  14.399   9.767  0.00  0.00    -0.264 OA
HETATM   19  H   UNK N   1      33.106  14.916   7.631  0.00  0.00     0.217 HD
HETATM   20  H   UNK N   1      35.750  14.759   5.443  0.00  0.00     0.187 HD
ENDROOT
BRANCH  15  21
HETATM   21  C   UNK N   1      35.586  13.324  11.654  0.00  0.00     0.060 A 
HETATM   22  C   UNK N   1      34.918  12.138  12.008  0.00  0.00     0.039 A 
HETATM   23  C   UNK N   1      34.674  11.799  13.329  0.00  0.00    -0.054 A 
HETATM   24  C   UNK N   1      35.099  12.663  14.346  0.00  0.00    -0.056 A 
HETATM   25  C   UNK N   1      33.961  10.520  13.619  0.00  0.00     0.049 C 
HETATM   26  C   UNK N   1      35.768  13.852  14.013  0.00  0.00     0.009 A 
HETATM   27  C   UNK N   1      34.851  12.333  15.778  0.00  0.00     0.049 C 
HETATM   28  C   UNK N   1      36.014  14.185  12.670  0.00  0.00     0.032 A 
ENDBRANCH  15  21
BRANCH   1  29
HETATM   29  C   UNK N   1      30.020  16.220   5.906  0.00  0.00    -0.022 A 
HETATM   30  C   UNK N   1      28.868  15.531   5.498  0.00  0.00     0.012 A 
HETATM   31  C   UNK N   1      27.652  15.717   6.172  0.00  0.00     0.002 A 
HETATM   32  C   UNK N   1      27.571  16.592   7.262  0.00  0.00     0.018 A 
HETATM   33  C   UNK N   1      28.706  17.289   7.687  0.00  0.00     0.038 A 
HETATM   34  C   UNK N   1      29.910  17.096   7.006  0.00  0.00     0.030 A 
BRANCH  33  35
HETATM   35  C   UNK N   1      28.640  18.221   8.836  0.00  0.00     0.176 C 
HETATM   36  O   UNK N   1      29.650  18.781   9.235  0.00  0.00    -0.646 OA
BRANCH  35  37
HETATM   37  O   UNK N   1      27.466  18.457   9.453  0.00  0.00    -0.773 OA
HETATM   38  H   UNK N   1      26.953  17.741   9.775  0.00  0.00     0.167 HD
ENDBRANCH  35  37
ENDBRANCH  33  35
ENDBRANCH   1  29
TORSDOF 4
ENDMDL
MODEL 7
REMARK VINA RESULT:      -8.7     16.322     20.646
REMARK  4 active torsions:
REMARK  status: ('A' for Active; 'I' for Inactive)
REMARK    1  A    between atoms: C_3  and  C_7 
REMARK    2  A    between atoms: C_5  and  C_33 
REMARK    3  A    between atoms: N_21  and  C_25 
REMARK    4  A    between atoms: C_33  and  O_34 
ROOT
HETATM    1  C   UNK N   1      30.473  20.389  -6.523  0.00  0.00     0.010 A 
HETATM    2  C   UNK N   1      30.518  19.221  -7.299  0.00  0.00     0.015 A 
HETATM    3  C   UNK N   1      29.650  19.049  -8.388  0.00  0.00     0.003 A 
HETATM    4  C   UNK N   1      28.714  20.037  -8.725  0.00  0.00     0.034 A 
HETATM    5  C   UNK N   1      28.639  21.211  -7.974  0.00  0.00     0.082 A 
HETATM    6  C   UNK N   1      29.535  21.383  -6.867  0.00  0.00     0.104 A 
HETATM    7  O   UNK N   1      29.494  22.506  -6.130  0.00  0.00    -0.357 OA
HETATM    8  N   UNK N   1      27.675  22.226  -8.299  0.00  0.00    -0.297 N 
HETATM    9  N   UNK N   1      27.662  23.298  -7.456  0.00  0.00    -0.293 N 
ATOM     10  HN  UNK N   1      28.320  23.206  -6.682  1.00  0.00     0.187 HD
HETATM   11  C   UNK N   1      27.007  24.388  -7.426  0.00  0.00     0.142 A 
HETATM   12  C   UNK N   1      25.960  25.061  -8.217  0.00  0.00     0.056 A 
HETATM   13  N   UNK N   1      25.710  26.216  -7.672  0.00  0.00    -0.293 N 
ATOM     14  HN  UNK N   1      25.024  26.890  -8.015  1.00  0.00     0.187 HD
HETATM   15  N   UNK N   1      26.512  26.396  -6.558  0.00  0.00    -0.218 N 
HETATM   16  C   UNK N   1      27.286  25.319  -6.392  0.00  0.00     0.297 A 
HETATM   17  C   UNK N   1      25.273  24.549  -9.437  0.00  0.00     0.072 C 
HETATM   18  O   UNK N   1      28.112  25.165  -5.502  0.00  0.00    -0.264 OA
HETATM   19  H   UNK N   1      28.884  23.184  -6.343  0.00  0.00     0.217 HD
HETATM   20  H   UNK N   1      27.070  22.153  -9.071  0.00  0.00     0.187 HD
ENDROOT
BRANCH  15  21
HETATM   21  C   UNK N   1      26.548  27.544  -5.706  0.00  0.00     0.060 A 
HETATM   22  C   UNK N   1      27.399  28.615  -6.034  0.00  0.00     0.039 A 
HETATM   23  C   UNK N   1      27.476  29.756  -5.254  0.00  0.00    -0.054 A 
HETATM   24  C   UNK N   1      26.689  29.850  -4.100  0.00  0.00    -0.056 A 
HETATM   25  C   UNK N   1      28.403  30.849  -5.674  0.00  0.00     0.049 C 
HETATM   26  C   UNK N   1      25.832  28.792  -3.755  0.00  0.00     0.009 A 
HETATM   27  C   UNK N   1      26.749  31.062  -3.234  0.00  0.00     0.049 C 
HETATM   28  C   UNK N   1      25.758  27.639  -4.555  0.00  0.00     0.032 A 
ENDBRANCH  15  21
BRANCH   1  29
HETATM   29  C   UNK N   1      31.405  20.567  -5.347  0.00  0.00    -0.022 A 
HETATM   30  C   UNK N   1      30.962  21.165  -4.159  0.00  0.00     0.012 A 
HETATM   31  C   UNK N   1      31.838  21.330  -3.075  0.00  0.00     0.002 A 
HETATM   32  C   UNK N   1      33.167  20.900  -3.166  0.00  0.00     0.018 A 
HETATM   33  C   UNK N   1      33.631  20.301  -4.341  0.00  0.00     0.038 A 
HETATM   34  C   UNK N   1      32.749  20.143  -5.411  0.00  0.00     0.030 A 
BRANCH  33  35
HETATM   35  C   UNK N   1      35.034  19.841  -4.458  0.00  0.00     0.176 C 
HETATM   36  O   UNK N   1      35.937  20.648  -4.619  0.00  0.00    -0.646 OA
BRANCH  35  37
HETATM   37  O   UNK N   1      35.326  18.527  -4.388  0.00  0.00    -0.773 OA
HETATM   38  H   UNK N   1      34.658  17.910  -4.165  0.00  0.00     0.167 HD
ENDBRANCH  35  37
ENDBRANCH  33  35
ENDBRANCH   1  29
TORSDOF 4
ENDMDL
MODEL 8
REMARK VINA RESULT:      -8.6      2.340      8.962
REMARK  4 active torsions:
REMARK  status: ('A' for Active; 'I' for Inactive)
REMARK    1  A    between atoms: C_3  and  C_7 
REMARK    2  A    between atoms: C_5  and  C_33 
REMARK    3  A    between atoms: N_21  and  C_25 
REMARK    4  A    between atoms: C_33  and  O_34 
ROOT
HETATM    1  C   UNK N   1      36.346  11.570  11.962  0.00  0.00     0.010 A 
HETATM    2  C   UNK N   1      37.492  10.767  11.855  0.00  0.00     0.015 A 
HETATM    3  C   UNK N   1      38.238  10.734  10.667  0.00  0.00     0.003 A 
HETATM    4  C   UNK N   1      37.853  11.497   9.556  0.00  0.00     0.034 A 
HETATM    5  C   UNK N   1      36.718  12.306   9.624  0.00  0.00     0.082 A 
HETATM    6  C   UNK N   1      35.966  12.341  10.845  0.00  0.00     0.104 A 
HETATM    7  O   UNK N   1      34.871  13.116  10.945  0.00  0.00    -0.357 OA
HETATM    8  N   UNK N   1      36.305  13.083   8.487  0.00  0.00    -0.297 N 
HETATM    9  N   UNK N   1      35.149  13.785   8.661  0.00  0.00    -0.293 N 
ATOM     10  HN  UNK N   1      34.715  13.624   9.571  1.00  0.00     0.187 HD
HETATM   11  C   UNK N   1      34.493  14.597   7.933  0.00  0.00     0.142 A 
HETATM   12  C   UNK N   1      34.593  15.191   6.587  0.00  0.00     0.056 A 
HETATM   13  N   UNK N   1      33.590  16.003   6.419  0.00  0.00    -0.293 N 
ATOM     14  HN  UNK N   1      33.412  16.547   5.575  1.00  0.00     0.187 HD
HETATM   15  N   UNK N   1      32.799  16.018   7.555  0.00  0.00    -0.218 N 
HETATM   16  C   UNK N   1      33.316  15.186   8.465  0.00  0.00     0.297 A 
HETATM   17  C   UNK N   1      35.642  14.938   5.559  0.00  0.00     0.072 C 
HETATM   18  O   UNK N   1      32.859  14.974   9.580  0.00  0.00    -0.264 OA
HETATM   19  H   UNK N   1      34.603  13.643  10.219  0.00  0.00     0.217 HD
HETATM   20  H   UNK N   1      36.818  13.107   7.648  0.00  0.00     0.187 HD
ENDROOT
BRANCH  15  21
HETATM   21  C   UNK N   1      31.620  16.798   7.767  0.00  0.00     0.060 A 
HETATM   22  C   UNK N   1      30.458  16.498   7.033  0.00  0.00     0.039 A 
HETATM   23  C   UNK N   1      29.283  17.213   7.194  0.00  0.00    -0.054 A 
HETATM   24  C   UNK N   1      29.246  18.269   8.113  0.00  0.00    -0.056 A 
HETATM   25  C   UNK N   1      28.094  16.828   6.378  0.00  0.00     0.049 C 
HETATM   26  C   UNK N   1      30.395  18.585   8.856  0.00  0.00     0.009 A 
HETATM   27  C   UNK N   1      27.999  19.062   8.311  0.00  0.00     0.049 C 
HETATM   28  C   UNK N   1      31.582  17.851   8.687  0.00  0.00     0.032 A 
ENDBRANCH  15  21
BRANCH   1  29
HETATM   29  C   UNK N   1      35.542  11.597  13.241  0.00  0.00    -0.022 A 
HETATM   30  C   UNK N   1      34.425  10.766  13.409  0.00  0.00     0.012 A 
HETATM   31  C   UNK N   1      33.683  10.805  14.599  0.00  0.00     0.002 A 
HETATM   32  C   UNK N   1      34.047  11.673  15.635  0.00  0.00     0.018 A 
HETATM   33  C   UNK N   1      35.157  12.510  15.489  0.00  0.00     0.038 A 
HETATM   34  C   UNK N   1      35.886  12.462  14.299  0.00  0.00     0.030 A 
BRANCH  33  35
HETATM   35  C   UNK N   1      35.557  13.438  16.572  0.00  0.00     0.176 C 
HETATM   36  O   UNK N   1      36.438  14.264  16.383  0.00  0.00    -0.646 OA
BRANCH  35  37
HETATM   37  O   UNK N   1      34.955  13.377  17.776  0.00  0.00    -0.773 OA
HETATM   38  H   UNK N   1      34.873  12.554  18.218  0.00  0.00     0.167 HD
ENDBRANCH  35  37
ENDBRANCH  33  35
ENDBRANCH   1  29
TORSDOF 4
ENDMDL
MODEL 9
REMARK VINA RESULT:      -8.5      2.863      3.797
REMARK  4 active torsions:
REMARK  status: ('A' for Active; 'I' for Inactive)
REMARK    1  A    between atoms: C_3  and  C_7 
REMARK    2  A    between atoms: C_5  and  C_33 
REMARK    3  A    between atoms: N_21  and  C_25 
REMARK    4  A    between atoms: C_33  and  O_34 
ROOT
HETATM    1  C   UNK N   1      33.286  13.935   7.659  0.00  0.00     0.010 A 
HETATM    2  C   UNK N   1      33.154  13.452   6.348  0.00  0.00     0.015 A 
HETATM    3  C   UNK N   1      33.312  12.087   6.066  0.00  0.00     0.003 A 
HETATM    4  C   UNK N   1      33.611  11.172   7.086  0.00  0.00     0.034 A 
HETATM    5  C   UNK N   1      33.751  11.615   8.401  0.00  0.00     0.082 A 
HETATM    6  C   UNK N   1      33.580  13.012   8.683  0.00  0.00     0.104 A 
HETATM    7  O   UNK N   1      33.701  13.469   9.941  0.00  0.00    -0.357 OA
HETATM    8  N   UNK N   1      34.071  10.691   9.455  0.00  0.00    -0.297 N 
HETATM    9  N   UNK N   1      34.239  11.256  10.684  0.00  0.00    -0.293 N 
ATOM     10  HN  UNK N   1      34.152  12.272  10.673  1.00  0.00     0.187 HD
HETATM   11  C   UNK N   1      34.481  10.790  11.843  0.00  0.00     0.142 A 
HETATM   12  C   UNK N   1      34.710   9.475  12.471  0.00  0.00     0.056 A 
HETATM   13  N   UNK N   1      34.886   9.653  13.748  0.00  0.00    -0.293 N 
ATOM     14  HN  UNK N   1      35.067   8.910  14.424  1.00  0.00     0.187 HD
HETATM   15  N   UNK N   1      34.792  11.000  14.054  0.00  0.00    -0.218 N 
HETATM   16  C   UNK N   1      34.556  11.692  12.936  0.00  0.00     0.297 A 
HETATM   17  C   UNK N   1      34.746   8.143  11.802  0.00  0.00     0.072 C 
HETATM   18  O   UNK N   1      34.415  12.905  12.864  0.00  0.00    -0.264 OA
HETATM   19  H   UNK N   1      33.889  12.875  10.640  0.00  0.00     0.217 HD
HETATM   20  H   UNK N   1      34.161   9.723   9.300  0.00  0.00     0.187 HD
ENDROOT
BRANCH  15  21
HETATM   21  C   UNK N   1      34.906  11.592  15.350  0.00  0.00     0.060 A 
HETATM   22  C   UNK N   1      35.105  10.762  16.469  0.00  0.00     0.039 A 
HETATM   23  C   UNK N   1      35.228  11.274  17.750  0.00  0.00    -0.054 A 
HETATM   24  C   UNK N   1      35.148  12.658  17.944  0.00  0.00    -0.056 A 
HETATM   25  C   UNK N   1      35.442  10.324  18.882  0.00  0.00     0.049 C 
HETATM   26  C   UNK N   1      34.950  13.504  16.840  0.00  0.00     0.009 A 
HETATM   27  C   UNK N   1      35.273  13.244  19.309  0.00  0.00     0.049 C 
HETATM   28  C   UNK N   1      34.829  12.976  15.543  0.00  0.00     0.032 A 
ENDBRANCH  15  21
BRANCH   1  29
HETATM   29  C   UNK N   1      33.122  15.407   7.957  0.00  0.00    -0.022 A 
HETATM   30  C   UNK N   1      34.227  16.270   7.961  0.00  0.00     0.012 A 
HETATM   31  C   UNK N   1      34.063  17.634   8.245  0.00  0.00     0.002 A 
HETATM   32  C   UNK N   1      32.793  18.152   8.528  0.00  0.00     0.018 A 
HETATM   33  C   UNK N   1      31.678  17.311   8.529  0.00  0.00     0.038 A 
HETATM   34  C   UNK N   1      31.855  15.955   8.246  0.00  0.00     0.030 A 
BRANCH  33  35
HETATM   35  C   UNK N   1      30.327  17.839   8.828  0.00  0.00     0.176 C 
HETATM   36  O   UNK N   1      29.343  17.370   8.273  0.00  0.00    -0.646 OA
BRANCH  35  37
HETATM   37  O   UNK N   1      30.170  18.843   9.713  0.00  0.00    -0.773 OA
HETATM   38  H   UNK N   1      29.585  19.549   9.522  0.00  0.00     0.167 HD
ENDBRANCH  35  37
ENDBRANCH  33  35
ENDBRANCH   1  29
TORSDOF 4
ENDMDL
