MODEL 1
REMARK VINA RESULT:      -6.5      0.000      0.000
REMARK  9 active torsions:
REMARK  status: ('A' for Active; 'I' for Inactive)
REMARK    1  A    between atoms: C_9  and  C_8 
REMARK    2  A    between atoms: C_14  and  C_8 
REMARK    3  A    between atoms: C_16  and  C_9 
REMARK    4  A    between atoms: N_20  and  C_14 
REMARK    5  A    between atoms: C_19  and  C_15 
REMARK    6  A    between atoms: N_20  and  C_15 
REMARK    7  A    between atoms: C_19  and  C_17 
REMARK    8  A    between atoms: O_21  and  C_18 
REMARK    9  A    between atoms: O_22  and  C_19 
ROOT
HETATM    1  C   UNK N   1      29.155  23.475  -8.735  0.00  0.00     0.035 C 
HETATM    2  C   UNK N   1      28.605  22.657  -7.567  0.00  0.00     0.106 C 
ENDROOT
BRANCH   2   3
HETATM    3  C   UNK N   1      29.648  21.777  -6.869  0.00  0.00     0.173 C 
BRANCH   3   4
HETATM    4  C   UNK N   1      29.808  22.107  -5.420  0.00  0.00    -0.028 A 
HETATM    5  C   UNK N   1      29.351  23.326  -4.896  0.00  0.00     0.012 A 
HETATM    6  C   UNK N   1      29.557  23.625  -3.547  0.00  0.00     0.037 A 
HETATM    7  C   UNK N   1      30.218  22.709  -2.718  0.00  0.00     0.065 A 
HETATM    8  C   UNK N   1      30.666  21.492  -3.241  0.00  0.00     0.037 A 
HETATM    9  C   UNK N   1      30.463  21.194  -4.589  0.00  0.00     0.012 A 
BRANCH   7  10
HETATM   10  O   UNK N   1      30.423  22.999  -1.427  0.00  0.00    -0.361 OA
HETATM   11  H   UNK N   1      29.863  23.587  -0.959  0.00  0.00     0.217 HD
ENDBRANCH   7  10
ENDBRANCH   3   4
BRANCH   3  12
HETATM   12  O   UNK N   1      29.306  20.431  -7.020  0.00  0.00    -0.389 OA
HETATM   13  H   UNK N   1      28.579  20.121  -7.581  0.00  0.00     0.210 HD
ENDBRANCH   3  12
ENDBRANCH   2   3
BRANCH   2  14
HETATM   14  N   UNK N   1      27.412  21.871  -7.920  0.00  0.00    -0.411 N 
HETATM   15  H   UNK N   1      27.444  21.134  -8.626  0.00  0.00     0.154 HD
BRANCH  14  16
HETATM   16  C   UNK N   1      26.166  22.205  -7.200  0.00  0.00     0.073 C 
HETATM   17  C   UNK N   1      24.895  21.764  -7.911  0.00  0.00     0.031 C 
BRANCH  16  18
HETATM   18  C   UNK N   1      26.103  23.676  -6.777  0.00  0.00     0.029 C 
BRANCH  18  19
HETATM   19  C   UNK N   1      25.916  23.821  -5.267  0.00  0.00     0.040 C 
BRANCH  19  20
HETATM   20  C   UNK N   1      25.808  25.254  -4.867  0.00  0.00    -0.058 A 
HETATM   21  C   UNK N   1      25.117  26.149  -5.692  0.00  0.00     0.007 A 
HETATM   22  C   UNK N   1      25.035  27.499  -5.345  0.00  0.00     0.001 A 
HETATM   23  C   UNK N   1      25.641  27.957  -4.170  0.00  0.00     0.000 A 
HETATM   24  C   UNK N   1      26.327  27.063  -3.342  0.00  0.00     0.001 A 
HETATM   25  C   UNK N   1      26.414  25.712  -3.691  0.00  0.00     0.007 A 
ENDBRANCH  19  20
ENDBRANCH  18  19
ENDBRANCH  16  18
ENDBRANCH  14  16
ENDBRANCH   2  14
TORSDOF 9
ENDMDL
MODEL 2
REMARK VINA RESULT:      -6.4     12.203     14.932
REMARK  9 active torsions:
REMARK  status: ('A' for Active; 'I' for Inactive)
REMARK    1  A    between atoms: C_9  and  C_8 
REMARK    2  A    between atoms: C_14  and  C_8 
REMARK    3  A    between atoms: C_16  and  C_9 
REMARK    4  A    between atoms: N_20  and  C_14 
REMARK    5  A    between atoms: C_19  and  C_15 
REMARK    6  A    between atoms: N_20  and  C_15 
REMARK    7  A    between atoms: C_19  and  C_17 
REMARK    8  A    between atoms: O_21  and  C_18 
REMARK    9  A    between atoms: O_22  and  C_19 
ROOT
HETATM    1  C   UNK N   1      30.040  14.929   4.367  0.00  0.00     0.035 C 
HETATM    2  C   UNK N   1      30.400  16.405   4.542  0.00  0.00     0.106 C 
ENDROOT
BRANCH   2   3
HETATM    3  C   UNK N   1      29.252  17.274   5.068  0.00  0.00     0.173 C 
BRANCH   3   4
HETATM    4  C   UNK N   1      29.413  17.637   6.508  0.00  0.00    -0.028 A 
HETATM    5  C   UNK N   1      30.538  17.229   7.241  0.00  0.00     0.012 A 
HETATM    6  C   UNK N   1      30.637  17.545   8.599  0.00  0.00     0.037 A 
HETATM    7  C   UNK N   1      29.616  18.268   9.227  0.00  0.00     0.065 A 
HETATM    8  C   UNK N   1      28.500  18.681   8.493  0.00  0.00     0.037 A 
HETATM    9  C   UNK N   1      28.398  18.363   7.138  0.00  0.00     0.012 A 
BRANCH   7  10
HETATM   10  O   UNK N   1      29.707  18.564  10.531  0.00  0.00    -0.361 OA
HETATM   11  H   UNK N   1      29.056  18.284  11.145  0.00  0.00     0.217 HD
ENDBRANCH   7  10
ENDBRANCH   3   4
BRANCH   3  12
HETATM   12  O   UNK N   1      29.143  18.430   4.290  0.00  0.00    -0.389 OA
HETATM   13  H   UNK N   1      29.869  19.057   4.154  0.00  0.00     0.210 HD
ENDBRANCH   3  12
ENDBRANCH   2   3
BRANCH   2  14
HETATM   14  N   UNK N   1      30.998  17.002   3.339  0.00  0.00    -0.411 N 
HETATM   15  H   UNK N   1      30.428  17.302   2.547  0.00  0.00     0.154 HD
BRANCH  14  16
HETATM   16  C   UNK N   1      32.469  17.144   3.335  0.00  0.00     0.073 C 
HETATM   17  C   UNK N   1      33.210  15.973   2.705  0.00  0.00     0.031 C 
BRANCH  16  18
HETATM   18  C   UNK N   1      33.033  17.502   4.713  0.00  0.00     0.029 C 
BRANCH  18  19
HETATM   19  C   UNK N   1      33.889  16.372   5.284  0.00  0.00     0.040 C 
BRANCH  19  20
HETATM   20  C   UNK N   1      34.200  16.601   6.725  0.00  0.00    -0.058 A 
HETATM   21  C   UNK N   1      34.525  15.510   7.540  0.00  0.00     0.007 A 
HETATM   22  C   UNK N   1      34.789  15.706   8.898  0.00  0.00     0.001 A 
HETATM   23  C   UNK N   1      34.733  16.993   9.442  0.00  0.00     0.000 A 
HETATM   24  C   UNK N   1      34.414  18.084   8.628  0.00  0.00     0.001 A 
HETATM   25  C   UNK N   1      34.144  17.889   7.270  0.00  0.00     0.007 A 
ENDBRANCH  19  20
ENDBRANCH  18  19
ENDBRANCH  16  18
ENDBRANCH  14  16
ENDBRANCH   2  14
TORSDOF 9
ENDMDL
MODEL 3
REMARK VINA RESULT:      -6.3      3.094      4.682
REMARK  9 active torsions:
REMARK  status: ('A' for Active; 'I' for Inactive)
REMARK    1  A    between atoms: C_9  and  C_8 
REMARK    2  A    between atoms: C_14  and  C_8 
REMARK    3  A    between atoms: C_16  and  C_9 
REMARK    4  A    between atoms: N_20  and  C_14 
REMARK    5  A    between atoms: C_19  and  C_15 
REMARK    6  A    between atoms: N_20  and  C_15 
REMARK    7  A    between atoms: C_19  and  C_17 
REMARK    8  A    between atoms: O_21  and  C_18 
REMARK    9  A    between atoms: O_22  and  C_19 
ROOT
HETATM    1  C   UNK N   1      28.540  22.668  -6.293  0.00  0.00     0.035 C 
HETATM    2  C   UNK N   1      27.472  23.699  -6.658  0.00  0.00     0.106 C 
ENDROOT
BRANCH   2   3
HETATM    3  C   UNK N   1      26.256  23.702  -5.726  0.00  0.00     0.173 C 
BRANCH   3   4
HETATM    4  C   UNK N   1      25.993  25.043  -5.121  0.00  0.00    -0.028 A 
HETATM    5  C   UNK N   1      25.249  26.018  -5.803  0.00  0.00     0.012 A 
HETATM    6  C   UNK N   1      25.060  27.278  -5.231  0.00  0.00     0.037 A 
HETATM    7  C   UNK N   1      25.611  27.569  -3.978  0.00  0.00     0.065 A 
HETATM    8  C   UNK N   1      26.346  26.594  -3.295  0.00  0.00     0.037 A 
HETATM    9  C   UNK N   1      26.538  25.336  -3.867  0.00  0.00     0.012 A 
BRANCH   7  10
HETATM   10  O   UNK N   1      25.437  28.780  -3.432  0.00  0.00    -0.361 OA
HETATM   11  H   UNK N   1      24.612  29.046  -3.076  0.00  0.00     0.217 HD
ENDBRANCH   7  10
ENDBRANCH   3   4
BRANCH   3  12
HETATM   12  O   UNK N   1      25.128  23.260  -6.421  0.00  0.00    -0.389 OA
HETATM   13  H   UNK N   1      24.442  23.852  -6.765  0.00  0.00     0.210 HD
ENDBRANCH   3  12
ENDBRANCH   2   3
BRANCH   2  14
HETATM   14  N   UNK N   1      27.050  23.623  -8.065  0.00  0.00    -0.411 N 
HETATM   15  H   UNK N   1      26.784  22.739  -8.500  0.00  0.00     0.154 HD
BRANCH  14  16
HETATM   16  C   UNK N   1      27.033  24.894  -8.818  0.00  0.00     0.073 C 
HETATM   17  C   UNK N   1      26.809  24.734 -10.315  0.00  0.00     0.031 C 
BRANCH  16  18
HETATM   18  C   UNK N   1      28.245  25.780  -8.513  0.00  0.00     0.029 C 
BRANCH  18  19
HETATM   19  C   UNK N   1      27.845  27.244  -8.336  0.00  0.00     0.040 C 
BRANCH  19  20
HETATM   20  C   UNK N   1      28.275  27.768  -7.007  0.00  0.00    -0.058 A 
HETATM   21  C   UNK N   1      27.927  29.072  -6.636  0.00  0.00     0.007 A 
HETATM   22  C   UNK N   1      28.350  29.586  -5.409  0.00  0.00     0.001 A 
HETATM   23  C   UNK N   1      29.118  28.797  -4.547  0.00  0.00     0.000 A 
HETATM   24  C   UNK N   1      29.462  27.492  -4.914  0.00  0.00     0.001 A 
HETATM   25  C   UNK N   1      29.044  26.978  -6.145  0.00  0.00     0.007 A 
ENDBRANCH  19  20
ENDBRANCH  18  19
ENDBRANCH  16  18
ENDBRANCH  14  16
ENDBRANCH   2  14
TORSDOF 9
ENDMDL
MODEL 4
REMARK VINA RESULT:      -6.2     11.293     13.505
REMARK  9 active torsions:
REMARK  status: ('A' for Active; 'I' for Inactive)
REMARK    1  A    between atoms: C_9  and  C_8 
REMARK    2  A    between atoms: C_14  and  C_8 
REMARK    3  A    between atoms: C_16  and  C_9 
REMARK    4  A    between atoms: N_20  and  C_14 
REMARK    5  A    between atoms: C_19  and  C_15 
REMARK    6  A    between atoms: N_20  and  C_15 
REMARK    7  A    between atoms: C_19  and  C_17 
REMARK    8  A    between atoms: O_21  and  C_18 
REMARK    9  A    between atoms: O_22  and  C_19 
ROOT
HETATM    1  C   UNK N   1      27.218  16.529   7.018  0.00  0.00     0.035 C 
HETATM    2  C   UNK N   1      28.139  17.735   7.203  0.00  0.00     0.106 C 
ENDROOT
BRANCH   2   3
HETATM    3  C   UNK N   1      29.216  17.545   8.277  0.00  0.00     0.173 C 
BRANCH   3   4
HETATM    4  C   UNK N   1      30.602  17.586   7.721  0.00  0.00    -0.028 A 
HETATM    5  C   UNK N   1      30.872  17.178   6.405  0.00  0.00     0.012 A 
HETATM    6  C   UNK N   1      32.186  17.184   5.930  0.00  0.00     0.037 A 
HETATM    7  C   UNK N   1      33.232  17.597   6.763  0.00  0.00     0.065 A 
HETATM    8  C   UNK N   1      32.960  18.011   8.071  0.00  0.00     0.037 A 
HETATM    9  C   UNK N   1      31.649  18.002   8.548  0.00  0.00     0.012 A 
BRANCH   7  10
HETATM   10  O   UNK N   1      34.493  17.594   6.310  0.00  0.00    -0.361 OA
HETATM   11  H   UNK N   1      34.865  18.342   5.885  0.00  0.00     0.217 HD
ENDBRANCH   7  10
ENDBRANCH   3   4
BRANCH   3  12
HETATM   12  O   UNK N   1      29.068  18.517   9.269  0.00  0.00    -0.389 OA
HETATM   13  H   UNK N   1      28.547  19.327   9.156  0.00  0.00     0.210 HD
ENDBRANCH   3  12
ENDBRANCH   2   3
BRANCH   2  14
HETATM   14  N   UNK N   1      27.409  18.995   7.413  0.00  0.00    -0.411 N 
HETATM   15  H   UNK N   1      26.728  19.102   8.165  0.00  0.00     0.154 HD
BRANCH  14  16
HETATM   16  C   UNK N   1      27.713  20.096   6.477  0.00  0.00     0.073 C 
HETATM   17  C   UNK N   1      26.597  21.121   6.331  0.00  0.00     0.031 C 
BRANCH  16  18
HETATM   18  C   UNK N   1      28.212  19.597   5.117  0.00  0.00     0.029 C 
BRANCH  18  19
HETATM   19  C   UNK N   1      27.114  19.655   4.056  0.00  0.00     0.040 C 
BRANCH  19  20
HETATM   20  C   UNK N   1      26.488  18.317   3.847  0.00  0.00    -0.058 A 
HETATM   21  C   UNK N   1      27.281  17.246   3.421  0.00  0.00     0.007 A 
HETATM   22  C   UNK N   1      26.702  15.996   3.192  0.00  0.00     0.001 A 
HETATM   23  C   UNK N   1      25.331  15.813   3.393  0.00  0.00     0.000 A 
HETATM   24  C   UNK N   1      24.538  16.881   3.825  0.00  0.00     0.001 A 
HETATM   25  C   UNK N   1      25.115  18.134   4.049  0.00  0.00     0.007 A 
ENDBRANCH  19  20
ENDBRANCH  18  19
ENDBRANCH  16  18
ENDBRANCH  14  16
ENDBRANCH   2  14
TORSDOF 9
ENDMDL
MODEL 5
REMARK VINA RESULT:      -6.1     12.261     14.812
REMARK  9 active torsions:
REMARK  status: ('A' for Active; 'I' for Inactive)
REMARK    1  A    between atoms: C_9  and  C_8 
REMARK    2  A    between atoms: C_14  and  C_8 
REMARK    3  A    between atoms: C_16  and  C_9 
REMARK    4  A    between atoms: N_20  and  C_14 
REMARK    5  A    between atoms: C_19  and  C_15 
REMARK    6  A    between atoms: N_20  and  C_15 
REMARK    7  A    between atoms: C_19  and  C_17 
REMARK    8  A    between atoms: O_21  and  C_18 
REMARK    9  A    between atoms: O_22  and  C_19 
ROOT
HETATM    1  C   UNK N   1      32.405  15.373   9.363  0.00  0.00     0.035 C 
HETATM    2  C   UNK N   1      32.262  16.543   8.390  0.00  0.00     0.106 C 
ENDROOT
BRANCH   2   3
HETATM    3  C   UNK N   1      33.549  16.896   7.638  0.00  0.00     0.173 C 
BRANCH   3   4
HETATM    4  C   UNK N   1      33.496  16.524   6.191  0.00  0.00    -0.028 A 
HETATM    5  C   UNK N   1      33.821  15.229   5.759  0.00  0.00     0.012 A 
HETATM    6  C   UNK N   1      33.805  14.925   4.396  0.00  0.00     0.037 A 
HETATM    7  C   UNK N   1      33.465  15.910   3.461  0.00  0.00     0.065 A 
HETATM    8  C   UNK N   1      33.133  17.198   3.894  0.00  0.00     0.037 A 
HETATM    9  C   UNK N   1      33.151  17.504   5.255  0.00  0.00     0.012 A 
BRANCH   7  10
HETATM   10  O   UNK N   1      33.459  15.621   2.153  0.00  0.00    -0.361 OA
HETATM   11  H   UNK N   1      32.910  14.949   1.800  0.00  0.00     0.217 HD
ENDBRANCH   7  10
ENDBRANCH   3   4
BRANCH   3  12
HETATM   12  O   UNK N   1      33.815  18.261   7.773  0.00  0.00    -0.389 OA
HETATM   13  H   UNK N   1      33.127  18.935   7.882  0.00  0.00     0.210 HD
ENDBRANCH   3  12
ENDBRANCH   2   3
BRANCH   2  14
HETATM   14  N   UNK N   1      31.674  17.742   9.008  0.00  0.00    -0.411 N 
HETATM   15  H   UNK N   1      32.188  18.304   9.687  0.00  0.00     0.154 HD
BRANCH  14  16
HETATM   16  C   UNK N   1      30.299  18.088   8.595  0.00  0.00     0.073 C 
HETATM   17  C   UNK N   1      29.368  18.440   9.747  0.00  0.00     0.031 C 
BRANCH  16  18
HETATM   18  C   UNK N   1      29.680  17.045   7.659  0.00  0.00     0.029 C 
BRANCH  18  19
HETATM   19  C   UNK N   1      29.510  17.588   6.241  0.00  0.00     0.040 C 
BRANCH  19  20
HETATM   20  C   UNK N   1      29.707  16.518   5.221  0.00  0.00    -0.058 A 
HETATM   21  C   UNK N   1      29.520  16.816   3.866  0.00  0.00     0.007 A 
HETATM   22  C   UNK N   1      29.671  15.815   2.904  0.00  0.00     0.001 A 
HETATM   23  C   UNK N   1      30.013  14.516   3.292  0.00  0.00     0.000 A 
HETATM   24  C   UNK N   1      30.206  14.219   4.645  0.00  0.00     0.001 A 
HETATM   25  C   UNK N   1      30.049  15.218   5.611  0.00  0.00     0.007 A 
ENDBRANCH  19  20
ENDBRANCH  18  19
ENDBRANCH  16  18
ENDBRANCH  14  16
ENDBRANCH   2  14
TORSDOF 9
ENDMDL
MODEL 6
REMARK VINA RESULT:      -6.1      2.880      6.545
REMARK  9 active torsions:
REMARK  status: ('A' for Active; 'I' for Inactive)
REMARK    1  A    between atoms: C_9  and  C_8 
REMARK    2  A    between atoms: C_14  and  C_8 
REMARK    3  A    between atoms: C_16  and  C_9 
REMARK    4  A    between atoms: N_20  and  C_14 
REMARK    5  A    between atoms: C_19  and  C_15 
REMARK    6  A    between atoms: N_20  and  C_15 
REMARK    7  A    between atoms: C_19  and  C_17 
REMARK    8  A    between atoms: O_21  and  C_18 
REMARK    9  A    between atoms: O_22  and  C_19 
ROOT
HETATM    1  C   UNK N   1      26.670  30.280  -4.107  0.00  0.00     0.035 C 
HETATM    2  C   UNK N   1      27.006  28.797  -4.270  0.00  0.00     0.106 C 
ENDROOT
BRANCH   2   3
HETATM    3  C   UNK N   1      25.842  27.851  -3.959  0.00  0.00     0.173 C 
BRANCH   3   4
HETATM    4  C   UNK N   1      25.962  26.536  -4.657  0.00  0.00    -0.028 A 
HETATM    5  C   UNK N   1      25.714  26.416  -6.033  0.00  0.00     0.012 A 
HETATM    6  C   UNK N   1      25.789  25.164  -6.649  0.00  0.00     0.037 A 
HETATM    7  C   UNK N   1      26.113  24.030  -5.894  0.00  0.00     0.065 A 
HETATM    8  C   UNK N   1      26.367  24.152  -4.524  0.00  0.00     0.037 A 
HETATM    9  C   UNK N   1      26.289  25.402  -3.908  0.00  0.00     0.012 A 
BRANCH   7  10
HETATM   10  O   UNK N   1      26.176  22.827  -6.481  0.00  0.00    -0.361 OA
HETATM   11  H   UNK N   1      26.679  22.686  -7.260  0.00  0.00     0.217 HD
ENDBRANCH   7  10
ENDBRANCH   3   4
BRANCH   3  12
HETATM   12  O   UNK N   1      25.749  27.656  -2.579  0.00  0.00    -0.389 OA
HETATM   13  H   UNK N   1      26.480  27.816  -1.963  0.00  0.00     0.210 HD
ENDBRANCH   3  12
ENDBRANCH   2   3
BRANCH   2  14
HETATM   14  N   UNK N   1      28.216  28.394  -3.538  0.00  0.00    -0.411 N 
HETATM   15  H   UNK N   1      28.257  28.406  -2.518  0.00  0.00     0.154 HD
BRANCH  14  16
HETATM   16  C   UNK N   1      29.371  27.970  -4.356  0.00  0.00     0.073 C 
HETATM   17  C   UNK N   1      29.126  28.019  -5.858  0.00  0.00     0.031 C 
BRANCH  16  18
HETATM   18  C   UNK N   1      29.946  26.620  -3.916  0.00  0.00     0.029 C 
BRANCH  18  19
HETATM   19  C   UNK N   1      29.790  25.558  -5.003  0.00  0.00     0.040 C 
BRANCH  19  20
HETATM   20  C   UNK N   1      30.010  24.186  -4.458  0.00  0.00    -0.058 A 
HETATM   21  C   UNK N   1      29.850  23.078  -5.299  0.00  0.00     0.007 A 
HETATM   22  C   UNK N   1      30.023  21.788  -4.795  0.00  0.00     0.001 A 
HETATM   23  C   UNK N   1      30.359  21.601  -3.450  0.00  0.00     0.000 A 
HETATM   24  C   UNK N   1      30.525  22.707  -2.611  0.00  0.00     0.001 A 
HETATM   25  C   UNK N   1      30.347  24.000  -3.113  0.00  0.00     0.007 A 
ENDBRANCH  19  20
ENDBRANCH  18  19
ENDBRANCH  16  18
ENDBRANCH  14  16
ENDBRANCH   2  14
TORSDOF 9
ENDMDL
MODEL 7
REMARK VINA RESULT:      -6.0      2.594      3.321
REMARK  9 active torsions:
REMARK  status: ('A' for Active; 'I' for Inactive)
REMARK    1  A    between atoms: C_9  and  C_8 
REMARK    2  A    between atoms: C_14  and  C_8 
REMARK    3  A    between atoms: C_16  and  C_9 
REMARK    4  A    between atoms: N_20  and  C_14 
REMARK    5  A    between atoms: C_19  and  C_15 
REMARK    6  A    between atoms: N_20  and  C_15 
REMARK    7  A    between atoms: C_19  and  C_17 
REMARK    8  A    between atoms: O_21  and  C_18 
REMARK    9  A    between atoms: O_22  and  C_19 
ROOT
HETATM    1  C   UNK N   1      26.525  21.380  -8.106  0.00  0.00     0.035 C 
HETATM    2  C   UNK N   1      26.364  22.844  -7.697  0.00  0.00     0.106 C 
ENDROOT
BRANCH   2   3
HETATM    3  C   UNK N   1      26.263  23.067  -6.184  0.00  0.00     0.173 C 
BRANCH   3   4
HETATM    4  C   UNK N   1      27.399  23.873  -5.641  0.00  0.00    -0.028 A 
HETATM    5  C   UNK N   1      27.305  24.518  -4.398  0.00  0.00     0.012 A 
HETATM    6  C   UNK N   1      28.366  25.302  -3.938  0.00  0.00     0.037 A 
HETATM    7  C   UNK N   1      29.523  25.443  -4.715  0.00  0.00     0.065 A 
HETATM    8  C   UNK N   1      29.618  24.792  -5.950  0.00  0.00     0.037 A 
HETATM    9  C   UNK N   1      28.557  24.012  -6.411  0.00  0.00     0.012 A 
BRANCH   7  10
HETATM   10  O   UNK N   1      30.537  26.201  -4.279  0.00  0.00    -0.361 OA
HETATM   11  H   UNK N   1      30.401  26.903  -3.672  0.00  0.00     0.217 HD
ENDBRANCH   7  10
ENDBRANCH   3   4
BRANCH   3  12
HETATM   12  O   UNK N   1      25.048  23.684  -5.879  0.00  0.00    -0.389 OA
HETATM   13  H   UNK N   1      24.952  24.635  -5.719  0.00  0.00     0.210 HD
ENDBRANCH   3  12
ENDBRANCH   2   3
BRANCH   2  14
HETATM   14  N   UNK N   1      25.264  23.524  -8.399  0.00  0.00    -0.411 N 
HETATM   15  H   UNK N   1      24.302  23.188  -8.344  0.00  0.00     0.154 HD
BRANCH  14  16
HETATM   16  C   UNK N   1      25.626  24.720  -9.188  0.00  0.00     0.073 C 
HETATM   17  C   UNK N   1      27.014  24.663  -9.811  0.00  0.00     0.031 C 
BRANCH  16  18
HETATM   18  C   UNK N   1      25.397  26.027  -8.423  0.00  0.00     0.029 C 
BRANCH  18  19
HETATM   19  C   UNK N   1      26.715  26.659  -7.978  0.00  0.00     0.040 C 
BRANCH  19  20
HETATM   20  C   UNK N   1      26.564  27.369  -6.674  0.00  0.00    -0.058 A 
HETATM   21  C   UNK N   1      27.579  28.228  -6.237  0.00  0.00     0.007 A 
HETATM   22  C   UNK N   1      27.465  28.875  -5.005  0.00  0.00     0.001 A 
HETATM   23  C   UNK N   1      26.335  28.668  -4.208  0.00  0.00     0.000 A 
HETATM   24  C   UNK N   1      25.317  27.815  -4.646  0.00  0.00     0.001 A 
HETATM   25  C   UNK N   1      25.432  27.162  -5.877  0.00  0.00     0.007 A 
ENDBRANCH  19  20
ENDBRANCH  18  19
ENDBRANCH  16  18
ENDBRANCH  14  16
ENDBRANCH   2  14
TORSDOF 9
ENDMDL
MODEL 8
REMARK VINA RESULT:      -6.0      2.399      3.878
REMARK  9 active torsions:
REMARK  status: ('A' for Active; 'I' for Inactive)
REMARK    1  A    between atoms: C_9  and  C_8 
REMARK    2  A    between atoms: C_14  and  C_8 
REMARK    3  A    between atoms: C_16  and  C_9 
REMARK    4  A    between atoms: N_20  and  C_14 
REMARK    5  A    between atoms: C_19  and  C_15 
REMARK    6  A    between atoms: N_20  and  C_15 
REMARK    7  A    between atoms: C_19  and  C_17 
REMARK    8  A    between atoms: O_21  and  C_18 
REMARK    9  A    between atoms: O_22  and  C_19 
ROOT
HETATM    1  C   UNK N   1      31.221  24.530  -4.082  0.00  0.00     0.035 C 
HETATM    2  C   UNK N   1      29.905  23.980  -3.530  0.00  0.00     0.106 C 
ENDROOT
BRANCH   2   3
HETATM    3  C   UNK N   1      30.056  22.694  -2.710  0.00  0.00     0.173 C 
BRANCH   3   4
HETATM    4  C   UNK N   1      31.042  21.741  -3.304  0.00  0.00    -0.028 A 
HETATM    5  C   UNK N   1      32.353  21.649  -2.813  0.00  0.00     0.012 A 
HETATM    6  C   UNK N   1      33.265  20.782  -3.419  0.00  0.00     0.037 A 
HETATM    7  C   UNK N   1      32.871  20.003  -4.514  0.00  0.00     0.065 A 
HETATM    8  C   UNK N   1      31.562  20.089  -4.997  0.00  0.00     0.037 A 
HETATM    9  C   UNK N   1      30.651  20.958  -4.394  0.00  0.00     0.012 A 
BRANCH   7  10
HETATM   10  O   UNK N   1      33.748  19.178  -5.101  0.00  0.00    -0.361 OA
HETATM   11  H   UNK N   1      34.478  18.821  -4.633  0.00  0.00     0.217 HD
ENDBRANCH   7  10
ENDBRANCH   3   4
BRANCH   3  12
HETATM   12  O   UNK N   1      30.423  23.011  -1.400  0.00  0.00    -0.389 OA
HETATM   13  H   UNK N   1      30.458  23.916  -1.055  0.00  0.00     0.210 HD
ENDBRANCH   3  12
ENDBRANCH   2   3
BRANCH   2  14
HETATM   14  N   UNK N   1      28.865  23.825  -4.558  0.00  0.00    -0.411 N 
HETATM   15  H   UNK N   1      28.962  23.158  -5.324  0.00  0.00     0.154 HD
BRANCH  14  16
HETATM   16  C   UNK N   1      27.673  24.687  -4.424  0.00  0.00     0.073 C 
HETATM   17  C   UNK N   1      26.673  24.215  -3.377  0.00  0.00     0.031 C 
BRANCH  16  18
HETATM   18  C   UNK N   1      26.998  24.978  -5.768  0.00  0.00     0.029 C 
BRANCH  18  19
HETATM   19  C   UNK N   1      25.819  25.938  -5.612  0.00  0.00     0.040 C 
BRANCH  19  20
HETATM   20  C   UNK N   1      26.282  27.319  -5.288  0.00  0.00    -0.058 A 
HETATM   21  C   UNK N   1      25.791  27.959  -4.145  0.00  0.00     0.007 A 
HETATM   22  C   UNK N   1      26.192  29.263  -3.847  0.00  0.00     0.001 A 
HETATM   23  C   UNK N   1      27.089  29.929  -4.689  0.00  0.00     0.000 A 
HETATM   24  C   UNK N   1      27.585  29.288  -5.828  0.00  0.00     0.001 A 
HETATM   25  C   UNK N   1      27.180  27.984  -6.131  0.00  0.00     0.007 A 
ENDBRANCH  19  20
ENDBRANCH  18  19
ENDBRANCH  16  18
ENDBRANCH  14  16
ENDBRANCH   2  14
TORSDOF 9
ENDMDL
MODEL 9
REMARK VINA RESULT:      -5.9      3.427      5.556
REMARK  9 active torsions:
REMARK  status: ('A' for Active; 'I' for Inactive)
REMARK    1  A    between atoms: C_9  and  C_8 
REMARK    2  A    between atoms: C_14  and  C_8 
REMARK    3  A    between atoms: C_16  and  C_9 
REMARK    4  A    between atoms: N_20  and  C_14 
REMARK    5  A    between atoms: C_19  and  C_15 
REMARK    6  A    between atoms: N_20  and  C_15 
REMARK    7  A    between atoms: C_19  and  C_17 
REMARK    8  A    between atoms: O_21  and  C_18 
REMARK    9  A    between atoms: O_22  and  C_19 
ROOT
HETATM    1  C   UNK N   1      29.044  30.997  -5.258  0.00  0.00     0.035 C 
HETATM    2  C   UNK N   1      28.419  29.607  -5.142  0.00  0.00     0.106 C 
ENDROOT
BRANCH   2   3
HETATM    3  C   UNK N   1      28.794  28.652  -6.280  0.00  0.00     0.173 C 
BRANCH   3   4
HETATM    4  C   UNK N   1      29.127  27.277  -5.796  0.00  0.00    -0.028 A 
HETATM    5  C   UNK N   1      29.344  27.017  -4.435  0.00  0.00     0.012 A 
HETATM    6  C   UNK N   1      29.700  25.731  -4.019  0.00  0.00     0.037 A 
HETATM    7  C   UNK N   1      29.838  24.703  -4.960  0.00  0.00     0.065 A 
HETATM    8  C   UNK N   1      29.613  24.963  -6.316  0.00  0.00     0.037 A 
HETATM    9  C   UNK N   1      29.261  26.247  -6.732  0.00  0.00     0.012 A 
BRANCH   7  10
HETATM   10  O   UNK N   1      30.187  23.472  -4.563  0.00  0.00    -0.361 OA
HETATM   11  H   UNK N   1      29.895  23.116  -3.747  0.00  0.00     0.217 HD
ENDBRANCH   7  10
ENDBRANCH   3   4
BRANCH   3  12
HETATM   12  O   UNK N   1      27.753  28.594  -7.209  0.00  0.00    -0.389 OA
HETATM   13  H   UNK N   1      27.822  28.149  -8.067  0.00  0.00     0.210 HD
ENDBRANCH   3  12
ENDBRANCH   2   3
BRANCH   2  14
HETATM   14  N   UNK N   1      26.961  29.642  -4.949  0.00  0.00    -0.411 N 
HETATM   15  H   UNK N   1      26.326  29.915  -5.700  0.00  0.00     0.154 HD
BRANCH  14  16
HETATM   16  C   UNK N   1      26.464  29.261  -3.611  0.00  0.00     0.073 C 
HETATM   17  C   UNK N   1      27.520  29.301  -2.516  0.00  0.00     0.031 C 
BRANCH  16  18
HETATM   18  C   UNK N   1      25.698  27.935  -3.618  0.00  0.00     0.029 C 
BRANCH  18  19
HETATM   19  C   UNK N   1      25.209  27.573  -5.020  0.00  0.00     0.040 C 
BRANCH  19  20
HETATM   20  C   UNK N   1      25.607  26.183  -5.392  0.00  0.00    -0.058 A 
HETATM   21  C   UNK N   1      25.585  25.799  -6.738  0.00  0.00     0.007 A 
HETATM   22  C   UNK N   1      25.924  24.493  -7.097  0.00  0.00     0.001 A 
HETATM   23  C   UNK N   1      26.292  23.570  -6.113  0.00  0.00     0.000 A 
HETATM   24  C   UNK N   1      26.320  23.954  -4.769  0.00  0.00     0.001 A 
HETATM   25  C   UNK N   1      25.975  25.260  -4.407  0.00  0.00     0.007 A 
ENDBRANCH  19  20
ENDBRANCH  18  19
ENDBRANCH  16  18
ENDBRANCH  14  16
ENDBRANCH   2  14
TORSDOF 9
ENDMDL
