MODEL 1
REMARK VINA RESULT:      -7.4      0.000      0.000
REMARK  4 active torsions:
REMARK  status: ('A' for Active; 'I' for Inactive)
REMARK    1  A    between atoms: C_7  and  O_1 
REMARK    2  A    between atoms: O_4  and  C_25 
REMARK    3  A    between atoms: N_5  and  C_13 
REMARK    4  A    between atoms: C_13  and  C_16 
ROOT
HETATM    1  O   UNK N   1      29.657  16.040   5.714  0.00  0.00    -0.334 OA
HETATM    2  O   UNK N   1      30.402  16.324   2.944  0.00  0.00    -0.295 OA
HETATM    3  N   UNK N   1      34.293  15.477   8.020  0.00  0.00    -0.063 N 
HETATM    4  C   UNK N   1      31.928  15.857   6.276  0.00  0.00     0.058 C 
HETATM    5  C   UNK N   1      33.275  16.477   5.903  0.00  0.00     0.102 C 
HETATM    6  C   UNK N   1      34.016  16.738   7.275  0.00  0.00     0.229 C 
HETATM    7  C   UNK N   1      32.167  14.542   7.044  0.00  0.00     0.048 C 
HETATM    8  C   UNK N   1      33.042  14.741   8.297  0.00  0.00     0.239 C 
HETATM    9  C   UNK N   1      30.872  15.626   5.149  0.00  0.00     0.214 C 
HETATM   10  C   UNK N   1      31.177  16.791   7.129  0.00  0.00    -0.001 A 
HETATM   11  C   UNK N   1      33.215  17.736   8.202  0.00  0.00     0.076 C 
HETATM   12  C   UNK N   1      33.030  17.757   5.109  0.00  0.00     0.048 C 
HETATM   13  C   UNK N   1      31.713  17.621   8.095  0.00  0.00    -0.046 A 
HETATM   14  C   UNK N   1      35.220  14.616   7.287  0.00  0.00     0.273 C 
HETATM   15  C   UNK N   1      32.268  17.470   3.806  0.00  0.00     0.084 C 
HETATM   16  C   UNK N   1      31.131  16.469   3.912  0.00  0.00     0.157 C 
HETATM   17  C   UNK N   1      29.876  16.796   6.793  0.00  0.00     0.110 A 
HETATM   18  C   UNK N   1      30.833  18.436   8.830  0.00  0.00     0.011 A 
HETATM   19  C   UNK N   1      28.961  17.581   7.500  0.00  0.00     0.099 A 
HETATM   20  C   UNK N   1      29.444  18.389   8.551  0.00  0.00     0.040 A 
ENDROOT
BRANCH   3  21
HETATM   21  C   UNK N   1      34.973  15.846   9.275  0.00  0.00     0.242 C 
BRANCH  21  22
HETATM   22  C   UNK N   1      34.451  15.144  10.523  0.00  0.00     0.012 A 
HETATM   23  C   UNK N   1      35.502  14.168  11.013  0.00  0.00     0.007 A 
HETATM   24  C   UNK N   1      35.365  15.518  11.674  0.00  0.00     0.007 A 
ENDBRANCH  21  22
ENDBRANCH   3  21
BRANCH   5  25
HETATM   25  O   UNK N   1      34.009  15.605   5.089  0.00  0.00    -0.386 OA
HETATM   26  H   UNK N   1      34.701  14.995   5.386  0.00  0.00     0.210 HD
ENDBRANCH   5  25
BRANCH  19  27
HETATM   27  O   UNK N   1      27.658  17.588   7.172  0.00  0.00    -0.358 OA
HETATM   28  H   UNK N   1      27.120  16.824   7.241  0.00  0.00     0.217 HD
ENDBRANCH  19  27
TORSDOF 4
ENDMDL
MODEL 2
REMARK VINA RESULT:      -6.9      2.794      5.612
REMARK  4 active torsions:
REMARK  status: ('A' for Active; 'I' for Inactive)
REMARK    1  A    between atoms: C_7  and  O_1 
REMARK    2  A    between atoms: O_4  and  C_25 
REMARK    3  A    between atoms: N_5  and  C_13 
REMARK    4  A    between atoms: C_13  and  C_16 
ROOT
HETATM    1  O   UNK N   1      34.631  17.174   5.972  0.00  0.00    -0.334 OA
HETATM    2  O   UNK N   1      35.933  14.636   5.559  0.00  0.00    -0.295 OA
HETATM    3  N   UNK N   1      29.801  16.187   4.290  0.00  0.00    -0.063 N 
HETATM    4  C   UNK N   1      32.636  16.252   5.146  0.00  0.00     0.058 C 
HETATM    5  C   UNK N   1      31.832  14.954   5.224  0.00  0.00     0.102 C 
HETATM    6  C   UNK N   1      30.330  15.399   5.440  0.00  0.00     0.229 C 
HETATM    7  C   UNK N   1      32.127  17.098   3.962  0.00  0.00     0.048 C 
HETATM    8  C   UNK N   1      30.618  17.396   4.058  0.00  0.00     0.239 C 
HETATM    9  C   UNK N   1      34.196  16.166   5.100  0.00  0.00     0.214 C 
HETATM   10  C   UNK N   1      32.470  17.010   6.396  0.00  0.00    -0.001 A 
HETATM   11  C   UNK N   1      30.141  16.219   6.778  0.00  0.00     0.076 C 
HETATM   12  C   UNK N   1      32.369  14.105   6.373  0.00  0.00     0.048 C 
HETATM   13  C   UNK N   1      31.312  17.097   7.145  0.00  0.00    -0.046 A 
HETATM   14  C   UNK N   1      29.750  15.384   3.070  0.00  0.00     0.273 C 
HETATM   15  C   UNK N   1      33.843  13.731   6.151  0.00  0.00     0.084 C 
HETATM   16  C   UNK N   1      34.731  14.836   5.607  0.00  0.00     0.157 C 
HETATM   17  C   UNK N   1      33.635  17.561   6.774  0.00  0.00     0.110 A 
HETATM   18  C   UNK N   1      31.335  17.889   8.307  0.00  0.00     0.011 A 
HETATM   19  C   UNK N   1      33.706  18.363   7.915  0.00  0.00     0.099 A 
HETATM   20  C   UNK N   1      32.532  18.552   8.675  0.00  0.00     0.040 A 
ENDROOT
BRANCH   3  21
HETATM   21  C   UNK N   1      28.407  16.548   4.608  0.00  0.00     0.242 C 
BRANCH  21  22
HETATM   22  C   UNK N   1      28.040  18.003   4.339  0.00  0.00     0.012 A 
HETATM   23  C   UNK N   1      26.535  18.155   4.436  0.00  0.00     0.007 A 
HETATM   24  C   UNK N   1      27.406  18.556   5.601  0.00  0.00     0.007 A 
ENDBRANCH  21  22
ENDBRANCH   3  21
BRANCH   5  25
HETATM   25  O   UNK N   1      31.977  14.214   4.044  0.00  0.00    -0.386 OA
HETATM   26  H   UNK N   1      32.187  13.270   3.985  0.00  0.00     0.210 HD
ENDBRANCH   5  25
BRANCH  19  27
HETATM   27  O   UNK N   1      34.868  18.921   8.298  0.00  0.00    -0.358 OA
HETATM   28  H   UNK N   1      35.287  18.701   9.106  0.00  0.00     0.217 HD
ENDBRANCH  19  27
TORSDOF 4
ENDMDL
MODEL 3
REMARK VINA RESULT:      -6.9     10.047     12.033
REMARK  4 active torsions:
REMARK  status: ('A' for Active; 'I' for Inactive)
REMARK    1  A    between atoms: C_7  and  O_1 
REMARK    2  A    between atoms: O_4  and  C_25 
REMARK    3  A    between atoms: N_5  and  C_13 
REMARK    4  A    between atoms: C_13  and  C_16 
ROOT
HETATM    1  O   UNK N   1      21.648  19.228   5.304  0.00  0.00    -0.334 OA
HETATM    2  O   UNK N   1      20.603  18.675   7.932  0.00  0.00    -0.295 OA
HETATM    3  N   UNK N   1      22.677  14.440   3.529  0.00  0.00    -0.063 N 
HETATM    4  C   UNK N   1      21.909  16.921   4.953  0.00  0.00     0.058 C 
HETATM    5  C   UNK N   1      21.172  15.610   5.227  0.00  0.00     0.102 C 
HETATM    6  C   UNK N   1      21.270  14.782   3.883  0.00  0.00     0.229 C 
HETATM    7  C   UNK N   1      23.375  16.617   4.589  0.00  0.00     0.048 C 
HETATM    8  C   UNK N   1      23.497  15.661   3.386  0.00  0.00     0.239 C 
HETATM    9  C   UNK N   1      21.857  18.049   6.033  0.00  0.00     0.214 C 
HETATM   10  C   UNK N   1      21.263  17.625   3.834  0.00  0.00    -0.001 A 
HETATM   11  C   UNK N   1      20.584  15.530   2.673  0.00  0.00     0.076 C 
HETATM   12  C   UNK N   1      19.732  15.924   5.625  0.00  0.00     0.048 C 
HETATM   13  C   UNK N   1      20.710  17.035   2.714  0.00  0.00    -0.046 A 
HETATM   14  C   UNK N   1      23.280  13.555   4.524  0.00  0.00     0.273 C 
HETATM   15  C   UNK N   1      19.678  16.768   6.907  0.00  0.00     0.084 C 
HETATM   16  C   UNK N   1      20.703  17.884   7.009  0.00  0.00     0.157 C 
HETATM   17  C   UNK N   1      21.206  18.945   4.075  0.00  0.00     0.110 A 
HETATM   18  C   UNK N   1      20.152  17.872   1.732  0.00  0.00     0.011 A 
HETATM   19  C   UNK N   1      20.669  19.819   3.126  0.00  0.00     0.099 A 
HETATM   20  C   UNK N   1      20.162  19.276   1.927  0.00  0.00     0.040 A 
ENDROOT
BRANCH   3  21
HETATM   21  C   UNK N   1      22.642  13.681   2.266  0.00  0.00     0.242 C 
BRANCH  21  22
HETATM   22  C   UNK N   1      23.711  14.067   1.250  0.00  0.00     0.012 A 
HETATM   23  C   UNK N   1      24.649  12.893   1.057  0.00  0.00     0.007 A 
HETATM   24  C   UNK N   1      23.554  13.152   0.051  0.00  0.00     0.007 A 
ENDBRANCH  21  22
ENDBRANCH   3  21
BRANCH   5  25
HETATM   25  O   UNK N   1      21.769  14.923   6.291  0.00  0.00    -0.386 OA
HETATM   26  H   UNK N   1      22.180  14.047   6.244  0.00  0.00     0.210 HD
ENDBRANCH   5  25
BRANCH  19  27
HETATM   27  O   UNK N   1      20.612  21.142   3.359  0.00  0.00    -0.358 OA
HETATM   28  H   UNK N   1      20.365  21.494   4.191  0.00  0.00     0.217 HD
ENDBRANCH  19  27
TORSDOF 4
ENDMDL
MODEL 4
REMARK VINA RESULT:      -6.8      8.793     11.526
REMARK  4 active torsions:
REMARK  status: ('A' for Active; 'I' for Inactive)
REMARK    1  A    between atoms: C_7  and  O_1 
REMARK    2  A    between atoms: O_4  and  C_25 
REMARK    3  A    between atoms: N_5  and  C_13 
REMARK    4  A    between atoms: C_13  and  C_16 
ROOT
HETATM    1  O   UNK N   1      22.537  20.184   3.439  0.00  0.00    -0.334 OA
HETATM    2  O   UNK N   1      20.481  20.642   1.473  0.00  0.00    -0.295 OA
HETATM    3  N   UNK N   1      20.743  15.961   5.905  0.00  0.00    -0.063 N 
HETATM    4  C   UNK N   1      21.351  18.307   4.201  0.00  0.00     0.058 C 
HETATM    5  C   UNK N   1      20.545  17.133   3.645  0.00  0.00     0.102 C 
HETATM    6  C   UNK N   1      21.040  15.863   4.446  0.00  0.00     0.229 C 
HETATM    7  C   UNK N   1      21.069  18.452   5.710  0.00  0.00     0.048 C 
HETATM    8  C   UNK N   1      21.375  17.160   6.492  0.00  0.00     0.239 C 
HETATM    9  C   UNK N   1      21.223  19.700   3.505  0.00  0.00     0.214 C 
HETATM   10  C   UNK N   1      22.786  18.061   3.994  0.00  0.00    -0.001 A 
HETATM   11  C   UNK N   1      22.582  15.592   4.235  0.00  0.00     0.076 C 
HETATM   12  C   UNK N   1      20.799  17.023   2.144  0.00  0.00     0.048 C 
HETATM   13  C   UNK N   1      23.421  16.837   4.082  0.00  0.00    -0.046 A 
HETATM   14  C   UNK N   1      19.304  15.988   6.157  0.00  0.00     0.273 C 
HETATM   15  C   UNK N   1      20.348  18.293   1.406  0.00  0.00     0.084 C 
HETATM   16  C   UNK N   1      20.680  19.608   2.089  0.00  0.00     0.157 C 
HETATM   17  C   UNK N   1      23.411  19.190   3.622  0.00  0.00     0.110 A 
HETATM   18  C   UNK N   1      24.811  16.797   3.870  0.00  0.00     0.011 A 
HETATM   19  C   UNK N   1      24.792  19.203   3.410  0.00  0.00     0.099 A 
HETATM   20  C   UNK N   1      25.504  17.994   3.565  0.00  0.00     0.040 A 
ENDROOT
BRANCH   3  21
HETATM   21  C   UNK N   1      21.253  14.733   6.541  0.00  0.00     0.242 C 
BRANCH  21  22
HETATM   22  C   UNK N   1      21.842  14.924   7.934  0.00  0.00     0.012 A 
HETATM   23  C   UNK N   1      20.905  14.306   8.952  0.00  0.00     0.007 A 
HETATM   24  C   UNK N   1      22.130  13.548   8.502  0.00  0.00     0.007 A 
ENDBRANCH  21  22
ENDBRANCH   3  21
BRANCH   5  25
HETATM   25  O   UNK N   1      19.173  17.347   3.830  0.00  0.00    -0.386 OA
HETATM   26  H   UNK N   1      18.461  16.748   3.559  0.00  0.00     0.210 HD
ENDBRANCH   5  25
BRANCH  19  27
HETATM   27  O   UNK N   1      25.425  20.330   3.041  0.00  0.00    -0.358 OA
HETATM   28  H   UNK N   1      25.322  20.706   2.190  0.00  0.00     0.217 HD
ENDBRANCH  19  27
TORSDOF 4
ENDMDL
MODEL 5
REMARK VINA RESULT:      -6.7     13.171     16.655
REMARK  4 active torsions:
REMARK  status: ('A' for Active; 'I' for Inactive)
REMARK    1  A    between atoms: C_7  and  O_1 
REMARK    2  A    between atoms: O_4  and  C_25 
REMARK    3  A    between atoms: N_5  and  C_13 
REMARK    4  A    between atoms: C_13  and  C_16 
ROOT
HETATM    1  O   UNK N   1      26.995  24.433  -2.873  0.00  0.00    -0.334 OA
HETATM    2  O   UNK N   1      26.107  27.161  -2.602  0.00  0.00    -0.295 OA
HETATM    3  N   UNK N   1      26.756  23.734  -8.030  0.00  0.00    -0.063 N 
HETATM    4  C   UNK N   1      26.748  24.614  -5.201  0.00  0.00     0.058 C 
HETATM    5  C   UNK N   1      26.999  25.619  -6.325  0.00  0.00     0.102 C 
HETATM    6  C   UNK N   1      27.664  24.789  -7.494  0.00  0.00     0.229 C 
HETATM    7  C   UNK N   1      25.803  23.506  -5.708  0.00  0.00     0.048 C 
HETATM    8  C   UNK N   1      26.349  22.797  -6.963  0.00  0.00     0.239 C 
HETATM    9  C   UNK N   1      26.245  25.145  -3.820  0.00  0.00     0.214 C 
HETATM   10  C   UNK N   1      28.024  24.014  -4.782  0.00  0.00    -0.001 A 
HETATM   11  C   UNK N   1      29.034  24.135  -7.055  0.00  0.00     0.076 C 
HETATM   12  C   UNK N   1      27.903  26.733  -5.802  0.00  0.00     0.048 C 
HETATM   13  C   UNK N   1      29.082  23.694  -5.611  0.00  0.00    -0.046 A 
HETATM   14  C   UNK N   1      25.569  24.318  -8.653  0.00  0.00     0.273 C 
HETATM   15  C   UNK N   1      27.243  27.487  -4.637  0.00  0.00     0.084 C 
HETATM   16  C   UNK N   1      26.513  26.628  -3.621  0.00  0.00     0.157 C 
HETATM   17  C   UNK N   1      28.070  23.883  -3.447  0.00  0.00     0.110 A 
HETATM   18  C   UNK N   1      30.221  23.106  -5.033  0.00  0.00     0.011 A 
HETATM   19  C   UNK N   1      29.175  23.295  -2.826  0.00  0.00     0.099 A 
HETATM   20  C   UNK N   1      30.252  22.876  -3.635  0.00  0.00     0.040 A 
ENDROOT
BRANCH   3  21
HETATM   21  C   UNK N   1      27.482  23.029  -9.100  0.00  0.00     0.242 C 
BRANCH  21  22
HETATM   22  C   UNK N   1      27.379  21.508  -9.057  0.00  0.00     0.012 A 
HETATM   23  C   UNK N   1      27.970  20.940 -10.332  0.00  0.00     0.007 A 
HETATM   24  C   UNK N   1      28.791  20.954  -9.065  0.00  0.00     0.007 A 
ENDBRANCH  21  22
ENDBRANCH   3  21
BRANCH   5  25
HETATM   25  O   UNK N   1      25.797  26.205  -6.739  0.00  0.00    -0.386 OA
HETATM   26  H   UNK N   1      25.498  26.306  -7.655  0.00  0.00     0.210 HD
ENDBRANCH   5  25
BRANCH  19  27
HETATM   27  O   UNK N   1      29.226  23.157  -1.490  0.00  0.00    -0.358 OA
HETATM   28  H   UNK N   1      29.301  23.891  -0.913  0.00  0.00     0.217 HD
ENDBRANCH  19  27
TORSDOF 4
ENDMDL
MODEL 6
REMARK VINA RESULT:      -6.5      6.175      9.026
REMARK  4 active torsions:
REMARK  status: ('A' for Active; 'I' for Inactive)
REMARK    1  A    between atoms: C_7  and  O_1 
REMARK    2  A    between atoms: O_4  and  C_25 
REMARK    3  A    between atoms: N_5  and  C_13 
REMARK    4  A    between atoms: C_13  and  C_16 
ROOT
HETATM    1  O   UNK N   1      34.450  11.859  10.819  0.00  0.00    -0.334 OA
HETATM    2  O   UNK N   1      35.709   9.624   9.505  0.00  0.00    -0.295 OA
HETATM    3  N   UNK N   1      35.558  10.923  15.823  0.00  0.00    -0.063 N 
HETATM    4  C   UNK N   1      35.210  11.036  12.882  0.00  0.00     0.058 C 
HETATM    5  C   UNK N   1      36.453  10.387  13.492  0.00  0.00     0.102 C 
HETATM    6  C   UNK N   1      36.686  11.129  14.869  0.00  0.00     0.229 C 
HETATM    7  C   UNK N   1      34.013  10.840  13.834  0.00  0.00     0.048 C 
HETATM    8  C   UNK N   1      34.284  11.399  15.244  0.00  0.00     0.239 C 
HETATM    9  C   UNK N   1      34.797  10.644  11.428  0.00  0.00     0.214 C 
HETATM   10  C   UNK N   1      35.451  12.474  12.689  0.00  0.00    -0.001 A 
HETATM   11  C   UNK N   1      36.940  12.676  14.674  0.00  0.00     0.076 C 
HETATM   12  C   UNK N   1      37.623  10.550  12.526  0.00  0.00     0.048 C 
HETATM   13  C   UNK N   1      36.173  13.298  13.532  0.00  0.00    -0.046 A 
HETATM   14  C   UNK N   1      35.431   9.518  16.205  0.00  0.00     0.273 C 
HETATM   15  C   UNK N   1      37.341   9.856  11.184  0.00  0.00     0.084 C 
HETATM   16  C   UNK N   1      35.936  10.025  10.635  0.00  0.00     0.157 C 
HETATM   17  C   UNK N   1      34.934  12.888  11.521  0.00  0.00     0.110 A 
HETATM   18  C   UNK N   1      36.281  14.658  13.194  0.00  0.00     0.011 A 
HETATM   19  C   UNK N   1      35.008  14.231  11.145  0.00  0.00     0.099 A 
HETATM   20  C   UNK N   1      35.666  15.133  12.009  0.00  0.00     0.040 A 
ENDROOT
BRANCH   3  21
HETATM   21  C   UNK N   1      35.883  11.662  17.056  0.00  0.00     0.242 C 
BRANCH  21  22
HETATM   22  C   UNK N   1      34.818  12.650  17.516  0.00  0.00     0.012 A 
HETATM   23  C   UNK N   1      35.159  13.122  18.916  0.00  0.00     0.007 A 
HETATM   24  C   UNK N   1      35.498  13.989  17.728  0.00  0.00     0.007 A 
ENDBRANCH  21  22
ENDBRANCH   3  21
BRANCH   5  25
HETATM   25  O   UNK N   1      36.247   9.015  13.684  0.00  0.00    -0.386 OA
HETATM   26  H   UNK N   1      36.443   8.314  13.044  0.00  0.00     0.210 HD
ENDBRANCH   5  25
BRANCH  19  27
HETATM   27  O   UNK N   1      34.490  14.653   9.979  0.00  0.00    -0.358 OA
HETATM   28  H   UNK N   1      33.567  14.689   9.825  0.00  0.00     0.217 HD
ENDBRANCH  19  27
TORSDOF 4
ENDMDL
MODEL 7
REMARK VINA RESULT:      -6.4     13.002     16.362
REMARK  4 active torsions:
REMARK  status: ('A' for Active; 'I' for Inactive)
REMARK    1  A    between atoms: C_7  and  O_1 
REMARK    2  A    between atoms: O_4  and  C_25 
REMARK    3  A    between atoms: N_5  and  C_13 
REMARK    4  A    between atoms: C_13  and  C_16 
ROOT
HETATM    1  O   UNK N   1      29.315  22.598  -6.793  0.00  0.00    -0.334 OA
HETATM    2  O   UNK N   1      27.300  21.595  -8.593  0.00  0.00    -0.295 OA
HETATM    3  N   UNK N   1      27.058  26.918  -4.955  0.00  0.00    -0.063 N 
HETATM    4  C   UNK N   1      27.900  24.392  -6.254  0.00  0.00     0.058 C 
HETATM    5  C   UNK N   1      26.421  24.669  -5.983  0.00  0.00     0.102 C 
HETATM    6  C   UNK N   1      26.393  25.605  -4.709  0.00  0.00     0.229 C 
HETATM    7  C   UNK N   1      28.628  25.724  -6.522  0.00  0.00     0.048 C 
HETATM    8  C   UNK N   1      28.464  26.728  -5.364  0.00  0.00     0.239 C 
HETATM    9  C   UNK N   1      28.277  23.353  -7.358  0.00  0.00     0.214 C 
HETATM   10  C   UNK N   1      28.500  23.734  -5.083  0.00  0.00    -0.001 A 
HETATM   11  C   UNK N   1      27.040  24.911  -3.446  0.00  0.00     0.076 C 
HETATM   12  C   UNK N   1      25.700  23.342  -5.758  0.00  0.00     0.048 C 
HETATM   13  C   UNK N   1      28.200  23.996  -3.760  0.00  0.00    -0.046 A 
HETATM   14  C   UNK N   1      26.349  27.694  -5.969  0.00  0.00     0.273 C 
HETATM   15  C   UNK N   1      25.789  22.441  -6.999  0.00  0.00     0.084 C 
HETATM   16  C   UNK N   1      27.135  22.409  -7.699  0.00  0.00     0.157 C 
HETATM   17  C   UNK N   1      29.345  22.763  -5.468  0.00  0.00     0.110 A 
HETATM   18  C   UNK N   1      28.893  23.278  -2.770  0.00  0.00     0.011 A 
HETATM   19  C   UNK N   1      30.064  22.029  -4.521  0.00  0.00     0.099 A 
HETATM   20  C   UNK N   1      29.855  22.312  -3.155  0.00  0.00     0.040 A 
ENDROOT
BRANCH   3  21
HETATM   21  C   UNK N   1      26.975  27.694  -3.705  0.00  0.00     0.242 C 
BRANCH  21  22
HETATM   22  C   UNK N   1      27.732  29.017  -3.715  0.00  0.00     0.012 A 
HETATM   23  C   UNK N   1      26.792  30.123  -3.279  0.00  0.00     0.007 A 
HETATM   24  C   UNK N   1      27.768  29.535  -2.290  0.00  0.00     0.007 A 
ENDBRANCH  21  22
ENDBRANCH   3  21
BRANCH   5  25
HETATM   25  O   UNK N   1      25.827  25.295  -7.086  0.00  0.00    -0.386 OA
HETATM   26  H   UNK N   1      25.424  26.176  -7.093  0.00  0.00     0.210 HD
ENDBRANCH   5  25
BRANCH  19  27
HETATM   27  O   UNK N   1      30.914  21.058  -4.898  0.00  0.00    -0.358 OA
HETATM   28  H   UNK N   1      31.661  20.820  -4.385  0.00  0.00     0.217 HD
ENDBRANCH  19  27
TORSDOF 4
ENDMDL
MODEL 8
REMARK VINA RESULT:      -6.4      2.417      5.039
REMARK  4 active torsions:
REMARK  status: ('A' for Active; 'I' for Inactive)
REMARK    1  A    between atoms: C_7  and  O_1 
REMARK    2  A    between atoms: O_4  and  C_25 
REMARK    3  A    between atoms: N_5  and  C_13 
REMARK    4  A    between atoms: C_13  and  C_16 
ROOT
HETATM    1  O   UNK N   1      32.968  18.554   8.388  0.00  0.00    -0.334 OA
HETATM    2  O   UNK N   1      35.269  17.563   9.812  0.00  0.00    -0.295 OA
HETATM    3  N   UNK N   1      32.822  15.389   4.253  0.00  0.00    -0.063 N 
HETATM    4  C   UNK N   1      33.303  16.900   6.755  0.00  0.00     0.058 C 
HETATM    5  C   UNK N   1      33.694  15.426   6.652  0.00  0.00     0.102 C 
HETATM    6  C   UNK N   1      32.685  14.792   5.613  0.00  0.00     0.229 C 
HETATM    7  C   UNK N   1      33.437  17.562   5.369  0.00  0.00     0.048 C 
HETATM    8  C   UNK N   1      32.597  16.849   4.292  0.00  0.00     0.239 C 
HETATM    9  C   UNK N   1      34.003  17.788   7.833  0.00  0.00     0.214 C 
HETATM   10  C   UNK N   1      31.910  17.009   7.215  0.00  0.00    -0.001 A 
HETATM   11  C   UNK N   1      31.184  14.908   6.094  0.00  0.00     0.076 C 
HETATM   12  C   UNK N   1      33.596  14.789   8.036  0.00  0.00     0.048 C 
HETATM   13  C   UNK N   1      30.872  16.164   6.872  0.00  0.00    -0.046 A 
HETATM   14  C   UNK N   1      34.134  15.107   3.675  0.00  0.00     0.273 C 
HETATM   15  C   UNK N   1      34.556  15.461   9.029  0.00  0.00     0.084 C 
HETATM   16  C   UNK N   1      34.641  16.974   8.948  0.00  0.00     0.157 C 
HETATM   17  C   UNK N   1      31.781  18.014   8.097  0.00  0.00     0.110 A 
HETATM   18  C   UNK N   1      29.596  16.437   7.396  0.00  0.00     0.011 A 
HETATM   19  C   UNK N   1      30.532  18.331   8.638  0.00  0.00     0.099 A 
HETATM   20  C   UNK N   1      29.420  17.548   8.259  0.00  0.00     0.040 A 
ENDROOT
BRANCH   3  21
HETATM   21  C   UNK N   1      31.833  14.729   3.380  0.00  0.00     0.242 C 
BRANCH  21  22
HETATM   22  C   UNK N   1      32.327  13.464   2.688  0.00  0.00     0.012 A 
HETATM   23  C   UNK N   1      31.627  12.266   3.297  0.00  0.00     0.007 A 
HETATM   24  C   UNK N   1      31.139  12.834   1.986  0.00  0.00     0.007 A 
ENDBRANCH  21  22
ENDBRANCH   3  21
BRANCH   5  25
HETATM   25  O   UNK N   1      35.018  15.298   6.216  0.00  0.00    -0.386 OA
HETATM   26  H   UNK N   1      35.809  15.350   6.774  0.00  0.00     0.210 HD
ENDBRANCH   5  25
BRANCH  19  27
HETATM   27  O   UNK N   1      30.393  19.337   9.518  0.00  0.00    -0.358 OA
HETATM   28  H   UNK N   1      31.020  19.499  10.196  0.00  0.00     0.217 HD
ENDBRANCH  19  27
TORSDOF 4
ENDMDL
MODEL 9
REMARK VINA RESULT:      -6.3      6.464      9.135
REMARK  4 active torsions:
REMARK  status: ('A' for Active; 'I' for Inactive)
REMARK    1  A    between atoms: C_7  and  O_1 
REMARK    2  A    between atoms: O_4  and  C_25 
REMARK    3  A    between atoms: N_5  and  C_13 
REMARK    4  A    between atoms: C_13  and  C_16 
ROOT
HETATM    1  O   UNK N   1      37.396  11.407  10.566  0.00  0.00    -0.334 OA
HETATM    2  O   UNK N   1      37.474  13.967   9.244  0.00  0.00    -0.295 OA
HETATM    3  N   UNK N   1      36.126  12.754  15.435  0.00  0.00    -0.063 N 
HETATM    4  C   UNK N   1      36.800  12.490  12.562  0.00  0.00     0.058 C 
HETATM    5  C   UNK N   1      35.908  13.632  13.048  0.00  0.00     0.102 C 
HETATM    6  C   UNK N   1      35.174  13.079  14.334  0.00  0.00     0.229 C 
HETATM    7  C   UNK N   1      37.809  12.124  13.669  0.00  0.00     0.048 C 
HETATM    8  C   UNK N   1      37.118  11.752  14.996  0.00  0.00     0.239 C 
HETATM    9  C   UNK N   1      37.548  12.649  11.200  0.00  0.00     0.214 C 
HETATM   10  C   UNK N   1      35.971  11.315  12.251  0.00  0.00    -0.001 A 
HETATM   11  C   UNK N   1      34.283  11.814  14.012  0.00  0.00     0.076 C 
HETATM   12  C   UNK N   1      34.940  14.014  11.931  0.00  0.00     0.048 C 
HETATM   13  C   UNK N   1      34.845  10.909  12.941  0.00  0.00    -0.046 A 
HETATM   14  C   UNK N   1      36.813  13.950  15.918  0.00  0.00     0.273 C 
HETATM   15  C   UNK N   1      35.690  14.502  10.683  0.00  0.00     0.084 C 
HETATM   16  C   UNK N   1      36.933  13.715  10.308  0.00  0.00     0.157 C 
HETATM   17  C   UNK N   1      36.407  10.711  11.134  0.00  0.00     0.110 A 
HETATM   18  C   UNK N   1      34.187   9.744  12.508  0.00  0.00     0.011 A 
HETATM   19  C   UNK N   1      35.794   9.545  10.669  0.00  0.00     0.099 A 
HETATM   20  C   UNK N   1      34.686   9.040  11.383  0.00  0.00     0.040 A 
ENDROOT
BRANCH   3  21
HETATM   21  C   UNK N   1      35.332  12.245  16.568  0.00  0.00     0.242 C 
BRANCH  21  22
HETATM   22  C   UNK N   1      35.905  11.011  17.255  0.00  0.00     0.012 A 
HETATM   23  C   UNK N   1      35.312  10.905  18.646  0.00  0.00     0.007 A 
HETATM   24  C   UNK N   1      34.753  10.062  17.526  0.00  0.00     0.007 A 
ENDBRANCH  21  22
ENDBRANCH   3  21
BRANCH   5  25
HETATM   25  O   UNK N   1      36.677  14.763  13.349  0.00  0.00    -0.386 OA
HETATM   26  H   UNK N   1      36.409  15.685  13.222  0.00  0.00     0.210 HD
ENDBRANCH   5  25
BRANCH  19  27
HETATM   27  O   UNK N   1      36.228   8.932   9.554  0.00  0.00    -0.358 OA
HETATM   28  H   UNK N   1      35.928   8.080   9.302  0.00  0.00     0.217 HD
ENDBRANCH  19  27
TORSDOF 4
ENDMDL
