MODEL 1
REMARK VINA RESULT:      -4.5      0.000      0.000
REMARK  2 active torsions:
REMARK  status: ('A' for Active; 'I' for Inactive)
REMARK    1  A    between atoms: O_1  and  C_3 
REMARK    2  A    between atoms: C_2  and  C_3 
ROOT
HETATM    1  C   UNK N   1      23.105  12.034  11.685  0.00  0.00    -0.035 A 
HETATM    2  C   UNK N   1      24.337  12.107  11.032  0.00  0.00     0.009 A 
HETATM    3  C   UNK N   1      21.920  12.215  10.950  0.00  0.00     0.009 A 
HETATM    4  C   UNK N   1      24.397  12.357   9.657  0.00  0.00     0.001 A 
HETATM    5  C   UNK N   1      21.980  12.464   9.573  0.00  0.00     0.001 A 
HETATM    6  C   UNK N   1      23.218  12.536   8.928  0.00  0.00     0.000 A 
ENDROOT
BRANCH   1   7
HETATM    7  C   UNK N   1      23.086  11.765  13.160  0.00  0.00     0.202 C 
BRANCH   7   8
HETATM    8  O   UNK N   1      23.934  12.621  13.865  0.00  0.00    -0.396 OA
HETATM    9  H   UNK N   1      24.892  12.585  13.716  0.00  0.00     0.209 HD
ENDBRANCH   7   8
ENDBRANCH   1   7
TORSDOF 2
ENDMDL
MODEL 2
REMARK VINA RESULT:      -4.4      1.492      2.595
REMARK  2 active torsions:
REMARK  status: ('A' for Active; 'I' for Inactive)
REMARK    1  A    between atoms: O_1  and  C_3 
REMARK    2  A    between atoms: C_2  and  C_3 
ROOT
HETATM    1  C   UNK N   1      23.146  12.655  10.449  0.00  0.00    -0.035 A 
HETATM    2  C   UNK N   1      22.584  13.558   9.544  0.00  0.00     0.009 A 
HETATM    3  C   UNK N   1      22.318  11.991  11.370  0.00  0.00     0.009 A 
HETATM    4  C   UNK N   1      21.206  13.801   9.550  0.00  0.00     0.001 A 
HETATM    5  C   UNK N   1      20.939  12.234  11.375  0.00  0.00     0.001 A 
HETATM    6  C   UNK N   1      20.385  13.140  10.466  0.00  0.00     0.000 A 
ENDROOT
BRANCH   1   7
HETATM    7  C   UNK N   1      24.628  12.423  10.409  0.00  0.00     0.202 C 
BRANCH   7   8
HETATM    8  O   UNK N   1      25.193  12.393  11.685  0.00  0.00    -0.396 OA
HETATM    9  H   UNK N   1      25.579  11.570  12.025  0.00  0.00     0.209 HD
ENDBRANCH   7   8
ENDBRANCH   1   7
TORSDOF 2
ENDMDL
MODEL 3
REMARK VINA RESULT:      -4.2     19.563     20.909
REMARK  2 active torsions:
REMARK  status: ('A' for Active; 'I' for Inactive)
REMARK    1  A    between atoms: O_1  and  C_3 
REMARK    2  A    between atoms: C_2  and  C_3 
ROOT
HETATM    1  C   UNK N   1      26.214  25.490  -4.202  0.00  0.00    -0.035 A 
HETATM    2  C   UNK N   1      25.518  25.678  -5.398  0.00  0.00     0.009 A 
HETATM    3  C   UNK N   1      26.372  26.570  -3.316  0.00  0.00     0.009 A 
HETATM    4  C   UNK N   1      24.980  26.930  -5.716  0.00  0.00     0.001 A 
HETATM    5  C   UNK N   1      25.833  27.823  -3.633  0.00  0.00     0.001 A 
HETATM    6  C   UNK N   1      25.139  28.002  -4.833  0.00  0.00     0.000 A 
ENDROOT
BRANCH   1   7
HETATM    7  C   UNK N   1      26.774  24.132  -3.900  0.00  0.00     0.202 C 
BRANCH   7   8
HETATM    8  O   UNK N   1      26.938  23.920  -2.530  0.00  0.00    -0.396 OA
HETATM    9  H   UNK N   1      26.293  24.283  -1.903  0.00  0.00     0.209 HD
ENDBRANCH   7   8
ENDBRANCH   1   7
TORSDOF 2
ENDMDL
MODEL 4
REMARK VINA RESULT:      -4.0     10.891     12.125
REMARK  2 active torsions:
REMARK  status: ('A' for Active; 'I' for Inactive)
REMARK    1  A    between atoms: O_1  and  C_3 
REMARK    2  A    between atoms: C_2  and  C_3 
ROOT
HETATM    1  C   UNK N   1      33.565  17.645   7.585  0.00  0.00    -0.035 A 
HETATM    2  C   UNK N   1      32.265  17.482   8.068  0.00  0.00     0.009 A 
HETATM    3  C   UNK N   1      33.806  17.559   6.203  0.00  0.00     0.009 A 
HETATM    4  C   UNK N   1      31.207  17.235   7.186  0.00  0.00     0.001 A 
HETATM    5  C   UNK N   1      32.747  17.313   5.320  0.00  0.00     0.001 A 
HETATM    6  C   UNK N   1      31.449  17.150   5.813  0.00  0.00     0.000 A 
ENDROOT
BRANCH   1   7
HETATM    7  C   UNK N   1      34.670  17.908   8.564  0.00  0.00     0.202 C 
BRANCH   7   8
HETATM    8  O   UNK N   1      35.211  19.188   8.420  0.00  0.00    -0.396 OA
HETATM    9  H   UNK N   1      34.924  19.756   7.687  0.00  0.00     0.209 HD
ENDBRANCH   7   8
ENDBRANCH   1   7
TORSDOF 2
ENDMDL
MODEL 5
REMARK VINA RESULT:      -4.0      2.268      3.247
REMARK  2 active torsions:
REMARK  status: ('A' for Active; 'I' for Inactive)
REMARK    1  A    between atoms: O_1  and  C_3 
REMARK    2  A    between atoms: C_2  and  C_3 
ROOT
HETATM    1  C   UNK N   1      21.949  13.189   9.957  0.00  0.00    -0.035 A 
HETATM    2  C   UNK N   1      23.242  13.302   9.443  0.00  0.00     0.009 A 
HETATM    3  C   UNK N   1      21.734  12.456  11.137  0.00  0.00     0.009 A 
HETATM    4  C   UNK N   1      24.319  12.692  10.095  0.00  0.00     0.001 A 
HETATM    5  C   UNK N   1      22.812  11.846  11.790  0.00  0.00     0.001 A 
HETATM    6  C   UNK N   1      24.104  11.964  11.268  0.00  0.00     0.000 A 
ENDROOT
BRANCH   1   7
HETATM    7  C   UNK N   1      20.822  13.858   9.227  0.00  0.00     0.202 C 
BRANCH   7   8
HETATM    8  O   UNK N   1      19.614  13.767   9.922  0.00  0.00    -0.396 OA
HETATM    9  H   UNK N   1      18.971  13.079   9.689  0.00  0.00     0.209 HD
ENDBRANCH   7   8
ENDBRANCH   1   7
TORSDOF 2
ENDMDL
MODEL 6
REMARK VINA RESULT:      -4.0     12.798     13.928
REMARK  2 active torsions:
REMARK  status: ('A' for Active; 'I' for Inactive)
REMARK    1  A    between atoms: O_1  and  C_3 
REMARK    2  A    between atoms: C_2  and  C_3 
ROOT
HETATM    1  C   UNK N   1      35.308  12.750  16.770  0.00  0.00    -0.035 A 
HETATM    2  C   UNK N   1      35.513  11.402  17.072  0.00  0.00     0.009 A 
HETATM    3  C   UNK N   1      35.142  13.676  17.814  0.00  0.00     0.009 A 
HETATM    4  C   UNK N   1      35.553  10.973  18.403  0.00  0.00     0.001 A 
HETATM    5  C   UNK N   1      35.184  13.247  19.146  0.00  0.00     0.001 A 
HETATM    6  C   UNK N   1      35.388  11.895  19.439  0.00  0.00     0.000 A 
ENDROOT
BRANCH   1   7
HETATM    7  C   UNK N   1      35.271  13.168  15.330  0.00  0.00     0.202 C 
BRANCH   7   8
HETATM    8  O   UNK N   1      34.253  12.528  14.620  0.00  0.00    -0.396 OA
HETATM    9  H   UNK N   1      33.790  12.997  13.907  0.00  0.00     0.209 HD
ENDBRANCH   7   8
ENDBRANCH   1   7
TORSDOF 2
ENDMDL
MODEL 7
REMARK VINA RESULT:      -4.0      8.639      9.569
REMARK  2 active torsions:
REMARK  status: ('A' for Active; 'I' for Inactive)
REMARK    1  A    between atoms: O_1  and  C_3 
REMARK    2  A    between atoms: C_2  and  C_3 
ROOT
HETATM    1  C   UNK N   1      28.150  18.958   7.123  0.00  0.00    -0.035 A 
HETATM    2  C   UNK N   1      28.520  18.316   5.939  0.00  0.00     0.009 A 
HETATM    3  C   UNK N   1      27.483  20.193   7.062  0.00  0.00     0.009 A 
HETATM    4  C   UNK N   1      28.229  18.896   4.699  0.00  0.00     0.001 A 
HETATM    5  C   UNK N   1      27.191  20.773   5.821  0.00  0.00     0.001 A 
HETATM    6  C   UNK N   1      27.566  20.124   4.641  0.00  0.00     0.000 A 
ENDROOT
BRANCH   1   7
HETATM    7  C   UNK N   1      28.480  18.301   8.431  0.00  0.00     0.202 C 
BRANCH   7   8
HETATM    8  O   UNK N   1      27.407  18.331   9.323  0.00  0.00    -0.396 OA
HETATM    9  H   UNK N   1      27.048  17.503   9.678  0.00  0.00     0.209 HD
ENDBRANCH   7   8
ENDBRANCH   1   7
TORSDOF 2
ENDMDL
MODEL 8
REMARK VINA RESULT:      -3.9     10.506     11.801
REMARK  2 active torsions:
REMARK  status: ('A' for Active; 'I' for Inactive)
REMARK    1  A    between atoms: O_1  and  C_3 
REMARK    2  A    between atoms: C_2  and  C_3 
ROOT
HETATM    1  C   UNK N   1      20.823  19.863   2.227  0.00  0.00    -0.035 A 
HETATM    2  C   UNK N   1      21.963  19.852   3.033  0.00  0.00     0.009 A 
HETATM    3  C   UNK N   1      19.857  18.854   2.379  0.00  0.00     0.009 A 
HETATM    4  C   UNK N   1      22.147  18.844   3.986  0.00  0.00     0.001 A 
HETATM    5  C   UNK N   1      20.040  17.846   3.334  0.00  0.00     0.001 A 
HETATM    6  C   UNK N   1      21.185  17.842   4.136  0.00  0.00     0.000 A 
ENDROOT
BRANCH   1   7
HETATM    7  C   UNK N   1      20.666  20.962   1.217  0.00  0.00     0.202 C 
BRANCH   7   8
HETATM    8  O   UNK N   1      20.608  20.474  -0.090  0.00  0.00    -0.396 OA
HETATM    9  H   UNK N   1      21.268  20.758  -0.742  0.00  0.00     0.209 HD
ENDBRANCH   7   8
ENDBRANCH   1   7
TORSDOF 2
ENDMDL
MODEL 9
REMARK VINA RESULT:      -3.8     20.718     21.778
REMARK  2 active torsions:
REMARK  status: ('A' for Active; 'I' for Inactive)
REMARK    1  A    between atoms: O_1  and  C_3 
REMARK    2  A    between atoms: C_2  and  C_3 
ROOT
HETATM    1  C   UNK N   1      26.222  27.570  -3.946  0.00  0.00    -0.035 A 
HETATM    2  C   UNK N   1      25.423  27.695  -5.085  0.00  0.00     0.009 A 
HETATM    3  C   UNK N   1      26.626  26.294  -3.519  0.00  0.00     0.009 A 
HETATM    4  C   UNK N   1      25.026  26.559  -5.799  0.00  0.00     0.001 A 
HETATM    5  C   UNK N   1      26.230  25.157  -4.235  0.00  0.00     0.001 A 
HETATM    6  C   UNK N   1      25.430  25.291  -5.373  0.00  0.00     0.000 A 
ENDROOT
BRANCH   1   7
HETATM    7  C   UNK N   1      26.624  28.814  -3.209  0.00  0.00     0.202 C 
BRANCH   7   8
HETATM    8  O   UNK N   1      25.937  29.942  -3.662  0.00  0.00    -0.396 OA
HETATM    9  H   UNK N   1      25.227  29.847  -4.316  0.00  0.00     0.209 HD
ENDBRANCH   7   8
ENDBRANCH   1   7
TORSDOF 2
ENDMDL
