MODEL 1
REMARK VINA RESULT:      -8.4      0.000      0.000
REMARK  10 active torsions:
REMARK  status: ('A' for Active; 'I' for Inactive)
REMARK    1  A    between atoms: O_1  and  C_21 
REMARK    2  A    between atoms: O_3  and  C_31 
REMARK    3  A    between atoms: N_5  and  C_15 
REMARK       I    between atoms: N_6  and  C_20 
REMARK    4  A    between atoms: N_6  and  C_27 
REMARK    5  A    between atoms: C_7  and  C_12 
REMARK    6  A    between atoms: C_15  and  C_16 
REMARK    7  A    between atoms: C_16  and  C_19 
REMARK    8  A    between atoms: C_16  and  C_20 
REMARK    9  A    between atoms: C_19  and  C_24 
REMARK   10  A    between atoms: C_27  and  C_31 
ROOT
HETATM    1  C   UNK N   1      21.838  15.799   7.082  0.00  0.00     0.286 C 
ENDROOT
BRANCH   1   2
HETATM    2  N   UNK N   1      21.493  15.307   5.739  0.00  0.00     0.089 N 
HETATM    3  C   UNK N   1      20.186  15.920   5.450  0.00  0.00     0.277 C 
HETATM    4  C   UNK N   1      19.690  15.622   4.022  0.00  0.00     0.022 C 
HETATM    5  C   UNK N   1      20.726  16.116   2.980  0.00  0.00    -0.010 C 
HETATM    6  C   UNK N   1      19.382  14.132   3.910  0.00  0.00     0.012 C 
HETATM    7  C   UNK N   1      22.081  15.483   3.332  0.00  0.00     0.044 C 
HETATM    8  C   UNK N   1      20.357  15.639   1.579  0.00  0.00     0.021 C 
HETATM    9  C   UNK N   1      22.468  15.817   4.771  0.00  0.00     0.273 C 
BRANCH   5  10
HETATM   10  C   UNK N   1      20.763  17.647   2.955  0.00  0.00    -0.047 A 
HETATM   11  C   UNK N   1      21.967  18.362   3.104  0.00  0.00     0.044 A 
HETATM   12  C   UNK N   1      21.976  19.758   3.091  0.00  0.00     0.066 A 
HETATM   13  C   UNK N   1      20.784  20.462   2.903  0.00  0.00     0.036 A 
HETATM   14  C   UNK N   1      19.583  19.769   2.742  0.00  0.00     0.003 A 
HETATM   15  C   UNK N   1      19.569  18.371   2.780  0.00  0.00     0.008 A 
BRANCH  12  16
HETATM   16  O   UNK N   1      23.129  20.424   3.266  0.00  0.00    -0.361 OA
HETATM   17  H   UNK N   1      23.901  19.981   3.560  0.00  0.00     0.217 HD
ENDBRANCH  12  16
ENDBRANCH   5  10
ENDBRANCH   1   2
BRANCH   1  18
HETATM   18  C   UNK N   1      21.101  15.178   8.296  0.00  0.00     0.110 C 
BRANCH  18  19
HETATM   19  C   UNK N   1      20.993  13.656   8.312  0.00  0.00     0.054 C 
BRANCH  19  20
HETATM   20  C   UNK N   1      21.867  13.073   9.367  0.00  0.00    -0.057 A 
HETATM   21  C   UNK N   1      23.242  12.957   9.142  0.00  0.00     0.007 A 
HETATM   22  C   UNK N   1      24.066  12.399  10.124  0.00  0.00     0.001 A 
HETATM   23  C   UNK N   1      23.514  11.955  11.331  0.00  0.00     0.000 A 
HETATM   24  C   UNK N   1      22.139  12.068  11.555  0.00  0.00     0.001 A 
HETATM   25  C   UNK N   1      21.316  12.623  10.573  0.00  0.00     0.007 A 
ENDBRANCH  19  20
ENDBRANCH  18  19
BRANCH  18  26
HETATM   26  C   UNK N   1      19.884  15.841   8.884  0.00  0.00     0.224 C 
HETATM   27  O   UNK N   1      19.052  15.132   9.438  0.00  0.00    -0.273 OA
HETATM   28  N   UNK N   1      19.703  17.182   8.841  0.00  0.00    -0.351 N 
HETATM   29  H   UNK N   1      20.366  17.757   8.395  0.00  0.00     0.163 HD
BRANCH  28  30
HETATM   30  C   UNK N   1      18.528  17.769   9.455  0.00  0.00     0.232 C 
BRANCH  30  31
HETATM   31  C   UNK N   1      18.830  19.008  10.234  0.00  0.00     0.158 C 
HETATM   32  O   UNK N   1      19.941  19.513  10.205  0.00  0.00    -0.649 OA
BRANCH  31  33
HETATM   33  O   UNK N   1      17.858  19.571  10.976  0.00  0.00    -0.775 OA
HETATM   34  H   UNK N   1      17.642  20.476  10.871  0.00  0.00     0.167 HD
ENDBRANCH  31  33
ENDBRANCH  30  31
ENDBRANCH  28  30
ENDBRANCH  18  26
ENDBRANCH   1  18
TORSDOF 10
ENDMDL
MODEL 2
REMARK VINA RESULT:      -8.0      1.722      2.818
REMARK  10 active torsions:
REMARK  status: ('A' for Active; 'I' for Inactive)
REMARK    1  A    between atoms: O_1  and  C_21 
REMARK    2  A    between atoms: O_3  and  C_31 
REMARK    3  A    between atoms: N_5  and  C_15 
REMARK       I    between atoms: N_6  and  C_20 
REMARK    4  A    between atoms: N_6  and  C_27 
REMARK    5  A    between atoms: C_7  and  C_12 
REMARK    6  A    between atoms: C_15  and  C_16 
REMARK    7  A    between atoms: C_16  and  C_19 
REMARK    8  A    between atoms: C_16  and  C_20 
REMARK    9  A    between atoms: C_19  and  C_24 
REMARK   10  A    between atoms: C_27  and  C_31 
ROOT
HETATM    1  C   UNK N   1      21.200  14.430   7.297  0.00  0.00     0.286 C 
ENDROOT
BRANCH   1   2
HETATM    2  N   UNK N   1      22.233  15.357   6.807  0.00  0.00     0.089 N 
HETATM    3  C   UNK N   1      22.890  14.625   5.710  0.00  0.00     0.277 C 
HETATM    4  C   UNK N   1      23.942  15.475   4.973  0.00  0.00     0.022 C 
HETATM    5  C   UNK N   1      23.291  16.763   4.408  0.00  0.00    -0.010 C 
HETATM    6  C   UNK N   1      25.104  15.751   5.922  0.00  0.00     0.012 C 
HETATM    7  C   UNK N   1      22.589  17.481   5.571  0.00  0.00     0.044 C 
HETATM    8  C   UNK N   1      24.353  17.716   3.866  0.00  0.00     0.021 C 
HETATM    9  C   UNK N   1      21.589  16.548   6.248  0.00  0.00     0.273 C 
BRANCH   5  10
HETATM   10  C   UNK N   1      22.346  16.416   3.254  0.00  0.00    -0.047 A 
HETATM   11  C   UNK N   1      21.234  17.221   2.940  0.00  0.00     0.044 A 
HETATM   12  C   UNK N   1      20.377  16.878   1.891  0.00  0.00     0.066 A 
HETATM   13  C   UNK N   1      20.634  15.740   1.123  0.00  0.00     0.036 A 
HETATM   14  C   UNK N   1      21.739  14.938   1.413  0.00  0.00     0.003 A 
HETATM   15  C   UNK N   1      22.583  15.266   2.479  0.00  0.00     0.008 A 
BRANCH  12  16
HETATM   16  O   UNK N   1      19.303  17.640   1.626  0.00  0.00    -0.361 OA
HETATM   17  H   UNK N   1      19.401  18.523   1.328  0.00  0.00     0.217 HD
ENDBRANCH  12  16
ENDBRANCH   5  10
ENDBRANCH   1   2
BRANCH   1  18
HETATM   18  C   UNK N   1      20.743  14.565   8.772  0.00  0.00     0.110 C 
BRANCH  18  19
HETATM   19  C   UNK N   1      20.716  13.277   9.589  0.00  0.00     0.054 C 
BRANCH  19  20
HETATM   20  C   UNK N   1      22.079  12.930  10.078  0.00  0.00    -0.057 A 
HETATM   21  C   UNK N   1      23.198  13.273   9.314  0.00  0.00     0.007 A 
HETATM   22  C   UNK N   1      24.480  12.938   9.762  0.00  0.00     0.001 A 
HETATM   23  C   UNK N   1      24.642  12.258  10.974  0.00  0.00     0.000 A 
HETATM   24  C   UNK N   1      23.522  11.912  11.737  0.00  0.00     0.001 A 
HETATM   25  C   UNK N   1      22.242  12.244  11.288  0.00  0.00     0.007 A 
ENDBRANCH  19  20
ENDBRANCH  18  19
BRANCH  18  26
HETATM   26  C   UNK N   1      19.632  15.505   9.155  0.00  0.00     0.224 C 
HETATM   27  O   UNK N   1      18.648  15.038   9.715  0.00  0.00    -0.273 OA
HETATM   28  N   UNK N   1      19.704  16.838   8.924  0.00  0.00    -0.351 N 
HETATM   29  H   UNK N   1      20.491  17.219   8.472  0.00  0.00     0.163 HD
BRANCH  28  30
HETATM   30  C   UNK N   1      18.618  17.700   9.346  0.00  0.00     0.232 C 
BRANCH  30  31
HETATM   31  C   UNK N   1      19.087  18.937  10.042  0.00  0.00     0.158 C 
HETATM   32  O   UNK N   1      20.207  19.380   9.847  0.00  0.00    -0.649 OA
BRANCH  31  33
HETATM   33  O   UNK N   1      18.257  19.566  10.895  0.00  0.00    -0.775 OA
HETATM   34  H   UNK N   1      17.781  20.325  10.625  0.00  0.00     0.167 HD
ENDBRANCH  31  33
ENDBRANCH  30  31
ENDBRANCH  28  30
ENDBRANCH  18  26
ENDBRANCH   1  18
TORSDOF 10
ENDMDL
MODEL 3
REMARK VINA RESULT:      -7.8      5.630      8.356
REMARK  10 active torsions:
REMARK  status: ('A' for Active; 'I' for Inactive)
REMARK    1  A    between atoms: O_1  and  C_21 
REMARK    2  A    between atoms: O_3  and  C_31 
REMARK    3  A    between atoms: N_5  and  C_15 
REMARK       I    between atoms: N_6  and  C_20 
REMARK    4  A    between atoms: N_6  and  C_27 
REMARK    5  A    between atoms: C_7  and  C_12 
REMARK    6  A    between atoms: C_15  and  C_16 
REMARK    7  A    between atoms: C_16  and  C_19 
REMARK    8  A    between atoms: C_16  and  C_20 
REMARK    9  A    between atoms: C_19  and  C_24 
REMARK   10  A    between atoms: C_27  and  C_31 
ROOT
HETATM    1  C   UNK N   1      24.306  18.373   4.490  0.00  0.00     0.286 C 
ENDROOT
BRANCH   1   2
HETATM    2  N   UNK N   1      24.460  16.959   4.113  0.00  0.00     0.089 N 
HETATM    3  C   UNK N   1      25.417  16.982   2.993  0.00  0.00     0.277 C 
HETATM    4  C   UNK N   1      25.811  15.571   2.518  0.00  0.00     0.022 C 
HETATM    5  C   UNK N   1      26.420  14.760   3.690  0.00  0.00    -0.010 C 
HETATM    6  C   UNK N   1      24.591  14.904   1.890  0.00  0.00     0.012 C 
HETATM    7  C   UNK N   1      25.411  14.786   4.848  0.00  0.00     0.044 C 
HETATM    8  C   UNK N   1      26.616  13.299   3.296  0.00  0.00     0.021 C 
HETATM    9  C   UNK N   1      25.069  16.225   5.226  0.00  0.00     0.273 C 
BRANCH   5  10
HETATM   10  C   UNK N   1      27.790  15.326   4.070  0.00  0.00    -0.047 A 
HETATM   11  C   UNK N   1      28.617  15.963   3.124  0.00  0.00     0.044 A 
HETATM   12  C   UNK N   1      29.870  16.460   3.489  0.00  0.00     0.066 A 
HETATM   13  C   UNK N   1      30.306  16.352   4.812  0.00  0.00     0.036 A 
HETATM   14  C   UNK N   1      29.494  15.735   5.765  0.00  0.00     0.003 A 
HETATM   15  C   UNK N   1      28.249  15.215   5.396  0.00  0.00     0.008 A 
BRANCH  12  16
HETATM   16  O   UNK N   1      30.658  17.036   2.567  0.00  0.00    -0.361 OA
HETATM   17  H   UNK N   1      31.284  17.690   2.808  0.00  0.00     0.217 HD
ENDBRANCH  12  16
ENDBRANCH   5  10
ENDBRANCH   1   2
BRANCH   1  18
HETATM   18  C   UNK N   1      24.307  19.431   3.357  0.00  0.00     0.110 C 
BRANCH  18  19
HETATM   19  C   UNK N   1      25.568  20.282   3.232  0.00  0.00     0.054 C 
BRANCH  19  20
HETATM   20  C   UNK N   1      26.398  20.186   4.464  0.00  0.00    -0.057 A 
HETATM   21  C   UNK N   1      26.099  20.991   5.566  0.00  0.00     0.007 A 
HETATM   22  C   UNK N   1      26.883  20.915   6.721  0.00  0.00     0.001 A 
HETATM   23  C   UNK N   1      27.968  20.033   6.773  0.00  0.00     0.000 A 
HETATM   24  C   UNK N   1      28.270  19.229   5.670  0.00  0.00     0.001 A 
HETATM   25  C   UNK N   1      27.488  19.308   4.515  0.00  0.00     0.007 A 
ENDBRANCH  19  20
ENDBRANCH  18  19
BRANCH  18  26
HETATM   26  C   UNK N   1      23.062  20.207   3.021  0.00  0.00     0.224 C 
HETATM   27  O   UNK N   1      23.155  21.423   2.900  0.00  0.00    -0.273 OA
HETATM   28  N   UNK N   1      21.867  19.601   2.824  0.00  0.00    -0.351 N 
HETATM   29  H   UNK N   1      21.786  18.625   2.922  0.00  0.00     0.163 HD
BRANCH  28  30
HETATM   30  C   UNK N   1      20.708  20.396   2.468  0.00  0.00     0.232 C 
BRANCH  30  31
HETATM   31  C   UNK N   1      20.763  20.919   1.069  0.00  0.00     0.158 C 
HETATM   32  O   UNK N   1      20.926  20.165   0.123  0.00  0.00    -0.649 OA
BRANCH  31  33
HETATM   33  O   UNK N   1      20.630  22.241   0.856  0.00  0.00    -0.775 OA
HETATM   34  H   UNK N   1      19.806  22.666   0.991  0.00  0.00     0.167 HD
ENDBRANCH  31  33
ENDBRANCH  30  31
ENDBRANCH  28  30
ENDBRANCH  18  26
ENDBRANCH   1  18
TORSDOF 10
ENDMDL
MODEL 4
REMARK VINA RESULT:      -7.7      2.326      7.093
REMARK  10 active torsions:
REMARK  status: ('A' for Active; 'I' for Inactive)
REMARK    1  A    between atoms: O_1  and  C_21 
REMARK    2  A    between atoms: O_3  and  C_31 
REMARK    3  A    between atoms: N_5  and  C_15 
REMARK       I    between atoms: N_6  and  C_20 
REMARK    4  A    between atoms: N_6  and  C_27 
REMARK    5  A    between atoms: C_7  and  C_12 
REMARK    6  A    between atoms: C_15  and  C_16 
REMARK    7  A    between atoms: C_16  and  C_19 
REMARK    8  A    between atoms: C_16  and  C_20 
REMARK    9  A    between atoms: C_19  and  C_24 
REMARK   10  A    between atoms: C_27  and  C_31 
ROOT
HETATM    1  C   UNK N   1      23.158  16.043   6.221  0.00  0.00     0.286 C 
ENDROOT
BRANCH   1   2
HETATM    2  N   UNK N   1      23.392  14.620   5.930  0.00  0.00     0.089 N 
HETATM    3  C   UNK N   1      24.519  14.249   6.803  0.00  0.00     0.277 C 
HETATM    4  C   UNK N   1      24.854  12.747   6.738  0.00  0.00     0.022 C 
HETATM    5  C   UNK N   1      23.612  11.903   7.123  0.00  0.00    -0.010 C 
HETATM    6  C   UNK N   1      25.398  12.424   5.349  0.00  0.00     0.012 C 
HETATM    7  C   UNK N   1      22.451  12.340   6.217  0.00  0.00     0.044 C 
HETATM    8  C   UNK N   1      23.859  10.421   6.857  0.00  0.00     0.021 C 
HETATM    9  C   UNK N   1      22.217  13.843   6.336  0.00  0.00     0.273 C 
BRANCH   5  10
HETATM   10  C   UNK N   1      23.306  12.062   8.615  0.00  0.00    -0.047 A 
HETATM   11  C   UNK N   1      24.328  12.074   9.584  0.00  0.00     0.044 A 
HETATM   12  C   UNK N   1      24.026  12.207  10.941  0.00  0.00     0.066 A 
HETATM   13  C   UNK N   1      22.698  12.357  11.349  0.00  0.00     0.036 A 
HETATM   14  C   UNK N   1      21.673  12.360  10.401  0.00  0.00     0.003 A 
HETATM   15  C   UNK N   1      21.973  12.202   9.044  0.00  0.00     0.008 A 
BRANCH  12  16
HETATM   16  O   UNK N   1      25.011  12.184  11.853  0.00  0.00    -0.361 OA
HETATM   17  H   UNK N   1      25.583  11.445  11.926  0.00  0.00     0.217 HD
ENDBRANCH  12  16
ENDBRANCH   5  10
ENDBRANCH   1   2
BRANCH   1  18
HETATM   18  C   UNK N   1      21.757  16.628   5.910  0.00  0.00     0.110 C 
BRANCH  18  19
HETATM   19  C   UNK N   1      21.546  17.158   4.495  0.00  0.00     0.054 C 
BRANCH  19  20
HETATM   20  C   UNK N   1      21.162  16.058   3.568  0.00  0.00    -0.057 A 
HETATM   21  C   UNK N   1      19.886  15.492   3.653  0.00  0.00     0.007 A 
HETATM   22  C   UNK N   1      19.525  14.450   2.794  0.00  0.00     0.001 A 
HETATM   23  C   UNK N   1      20.440  13.973   1.849  0.00  0.00     0.000 A 
HETATM   24  C   UNK N   1      21.717  14.536   1.765  0.00  0.00     0.001 A 
HETATM   25  C   UNK N   1      22.079  15.575   2.626  0.00  0.00     0.007 A 
ENDBRANCH  19  20
ENDBRANCH  18  19
BRANCH  18  26
HETATM   26  C   UNK N   1      21.010  17.437   6.937  0.00  0.00     0.224 C 
HETATM   27  O   UNK N   1      21.085  18.658   6.875  0.00  0.00    -0.273 OA
HETATM   28  N   UNK N   1      20.248  16.858   7.896  0.00  0.00    -0.351 N 
HETATM   29  H   UNK N   1      20.186  15.877   7.952  0.00  0.00     0.163 HD
BRANCH  28  30
HETATM   30  C   UNK N   1      19.524  17.689   8.837  0.00  0.00     0.232 C 
BRANCH  30  31
HETATM   31  C   UNK N   1      18.178  17.142   9.187  0.00  0.00     0.158 C 
HETATM   32  O   UNK N   1      18.016  15.947   9.380  0.00  0.00    -0.649 OA
BRANCH  31  33
HETATM   33  O   UNK N   1      17.133  17.983   9.290  0.00  0.00    -0.775 OA
HETATM   34  H   UNK N   1      17.029  18.526  10.047  0.00  0.00     0.167 HD
ENDBRANCH  31  33
ENDBRANCH  30  31
ENDBRANCH  28  30
ENDBRANCH  18  26
ENDBRANCH   1  18
TORSDOF 10
ENDMDL
MODEL 5
REMARK VINA RESULT:      -7.7     15.255     18.025
REMARK  10 active torsions:
REMARK  status: ('A' for Active; 'I' for Inactive)
REMARK    1  A    between atoms: O_1  and  C_21 
REMARK    2  A    between atoms: O_3  and  C_31 
REMARK    3  A    between atoms: N_5  and  C_15 
REMARK       I    between atoms: N_6  and  C_20 
REMARK    4  A    between atoms: N_6  and  C_27 
REMARK    5  A    between atoms: C_7  and  C_12 
REMARK    6  A    between atoms: C_15  and  C_16 
REMARK    7  A    between atoms: C_16  and  C_19 
REMARK    8  A    between atoms: C_16  and  C_20 
REMARK    9  A    between atoms: C_19  and  C_24 
REMARK   10  A    between atoms: C_27  and  C_31 
ROOT
HETATM    1  C   UNK N   1      31.069  26.089  -3.559  0.00  0.00     0.286 C 
ENDROOT
BRANCH   1   2
HETATM    2  N   UNK N   1      30.991  27.130  -4.596  0.00  0.00     0.089 N 
HETATM    3  C   UNK N   1      30.285  26.480  -5.714  0.00  0.00     0.277 C 
HETATM    4  C   UNK N   1      29.992  27.447  -6.876  0.00  0.00     0.022 C 
HETATM    5  C   UNK N   1      29.153  28.650  -6.375  0.00  0.00    -0.010 C 
HETATM    6  C   UNK N   1      31.313  27.856  -7.520  0.00  0.00     0.012 C 
HETATM    7  C   UNK N   1      29.901  29.281  -5.192  0.00  0.00     0.044 C 
HETATM    8  C   UNK N   1      29.037  29.719  -7.458  0.00  0.00     0.021 C 
HETATM    9  C   UNK N   1      30.164  28.238  -4.109  0.00  0.00     0.273 C 
BRANCH   5  10
HETATM   10  C   UNK N   1      27.735  28.195  -6.019  0.00  0.00    -0.047 A 
HETATM   11  C   UNK N   1      27.144  28.512  -4.780  0.00  0.00     0.044 A 
HETATM   12  C   UNK N   1      25.854  28.075  -4.471  0.00  0.00     0.066 A 
HETATM   13  C   UNK N   1      25.124  27.336  -5.405  0.00  0.00     0.036 A 
HETATM   14  C   UNK N   1      25.690  27.023  -6.642  0.00  0.00     0.003 A 
HETATM   15  C   UNK N   1      26.991  27.439  -6.944  0.00  0.00     0.008 A 
BRANCH  12  16
HETATM   16  O   UNK N   1      25.318  28.360  -3.273  0.00  0.00    -0.361 OA
HETATM   17  H   UNK N   1      24.784  29.120  -3.153  0.00  0.00     0.217 HD
ENDBRANCH  12  16
ENDBRANCH   5  10
ENDBRANCH   1   2
BRANCH   1  18
HETATM   18  C   UNK N   1      30.689  24.639  -3.954  0.00  0.00     0.110 C 
BRANCH  18  19
HETATM   19  C   UNK N   1      29.526  24.015  -3.187  0.00  0.00     0.054 C 
BRANCH  19  20
HETATM   20  C   UNK N   1      28.314  23.920  -4.046  0.00  0.00    -0.057 A 
HETATM   21  C   UNK N   1      27.064  24.262  -3.523  0.00  0.00     0.007 A 
HETATM   22  C   UNK N   1      25.921  24.163  -4.322  0.00  0.00     0.001 A 
HETATM   23  C   UNK N   1      26.027  23.719  -5.645  0.00  0.00     0.000 A 
HETATM   24  C   UNK N   1      27.277  23.374  -6.168  0.00  0.00     0.001 A 
HETATM   25  C   UNK N   1      28.419  23.472  -5.369  0.00  0.00     0.007 A 
ENDBRANCH  19  20
ENDBRANCH  18  19
BRANCH  18  26
HETATM   26  C   UNK N   1      31.748  23.629  -4.303  0.00  0.00     0.224 C 
HETATM   27  O   UNK N   1      32.811  24.039  -4.753  0.00  0.00    -0.273 OA
HETATM   28  N   UNK N   1      31.569  22.300  -4.109  0.00  0.00    -0.351 N 
HETATM   29  H   UNK N   1      30.716  21.964  -3.750  0.00  0.00     0.163 HD
BRANCH  28  30
HETATM   30  C   UNK N   1      32.638  21.376  -4.431  0.00  0.00     0.232 C 
BRANCH  30  31
HETATM   31  C   UNK N   1      33.502  21.046  -3.258  0.00  0.00     0.158 C 
HETATM   32  O   UNK N   1      34.688  20.796  -3.402  0.00  0.00    -0.649 OA
BRANCH  31  33
HETATM   33  O   UNK N   1      32.960  21.026  -2.027  0.00  0.00    -0.775 OA
HETATM   34  H   UNK N   1      32.184  21.516  -1.839  0.00  0.00     0.167 HD
ENDBRANCH  31  33
ENDBRANCH  30  31
ENDBRANCH  28  30
ENDBRANCH  18  26
ENDBRANCH   1  18
TORSDOF 10
ENDMDL
MODEL 6
REMARK VINA RESULT:      -7.6     15.253     17.611
REMARK  10 active torsions:
REMARK  status: ('A' for Active; 'I' for Inactive)
REMARK    1  A    between atoms: O_1  and  C_21 
REMARK    2  A    between atoms: O_3  and  C_31 
REMARK    3  A    between atoms: N_5  and  C_15 
REMARK       I    between atoms: N_6  and  C_20 
REMARK    4  A    between atoms: N_6  and  C_27 
REMARK    5  A    between atoms: C_7  and  C_12 
REMARK    6  A    between atoms: C_15  and  C_16 
REMARK    7  A    between atoms: C_16  and  C_19 
REMARK    8  A    between atoms: C_16  and  C_20 
REMARK    9  A    between atoms: C_19  and  C_24 
REMARK   10  A    between atoms: C_27  and  C_31 
ROOT
HETATM    1  C   UNK N   1      28.017  28.368  -4.967  0.00  0.00     0.286 C 
ENDROOT
BRANCH   1   2
HETATM    2  N   UNK N   1      29.462  28.158  -5.146  0.00  0.00     0.089 N 
HETATM    3  C   UNK N   1      29.928  27.681  -3.832  0.00  0.00     0.277 C 
HETATM    4  C   UNK N   1      31.417  27.286  -3.834  0.00  0.00     0.022 C 
HETATM    5  C   UNK N   1      31.678  26.188  -4.896  0.00  0.00    -0.010 C 
HETATM    6  C   UNK N   1      32.259  28.542  -4.042  0.00  0.00     0.012 C 
HETATM    7  C   UNK N   1      31.152  26.706  -6.243  0.00  0.00     0.044 C 
HETATM    8  C   UNK N   1      33.175  25.939  -5.063  0.00  0.00     0.021 C 
HETATM    9  C   UNK N   1      29.680  27.092  -6.128  0.00  0.00     0.273 C 
BRANCH   5  10
HETATM   10  C   UNK N   1      31.034  24.868  -4.463  0.00  0.00    -0.047 A 
HETATM   11  C   UNK N   1      30.863  24.538  -3.104  0.00  0.00     0.044 A 
HETATM   12  C   UNK N   1      30.285  23.322  -2.731  0.00  0.00     0.066 A 
HETATM   13  C   UNK N   1      29.844  22.429  -3.710  0.00  0.00     0.036 A 
HETATM   14  C   UNK N   1      29.994  22.746  -5.062  0.00  0.00     0.003 A 
HETATM   15  C   UNK N   1      30.596  23.952  -5.437  0.00  0.00     0.008 A 
BRANCH  12  16
HETATM   16  O   UNK N   1      30.159  23.011  -1.431  0.00  0.00    -0.361 OA
HETATM   17  H   UNK N   1      29.816  23.631  -0.818  0.00  0.00     0.217 HD
ENDBRANCH  12  16
ENDBRANCH   5  10
ENDBRANCH   1   2
BRANCH   1  18
HETATM   18  C   UNK N   1      27.452  28.346  -3.524  0.00  0.00     0.110 C 
BRANCH  18  19
HETATM   19  C   UNK N   1      26.131  27.609  -3.328  0.00  0.00     0.054 C 
BRANCH  19  20
HETATM   20  C   UNK N   1      26.095  26.360  -4.136  0.00  0.00    -0.057 A 
HETATM   21  C   UNK N   1      26.745  25.213  -3.671  0.00  0.00     0.007 A 
HETATM   22  C   UNK N   1      26.725  24.041  -4.432  0.00  0.00     0.001 A 
HETATM   23  C   UNK N   1      26.056  24.015  -5.661  0.00  0.00     0.000 A 
HETATM   24  C   UNK N   1      25.408  25.162  -6.128  0.00  0.00     0.001 A 
HETATM   25  C   UNK N   1      25.430  26.334  -5.368  0.00  0.00     0.007 A 
ENDBRANCH  19  20
ENDBRANCH  18  19
BRANCH  18  26
HETATM   26  C   UNK N   1      27.570  29.551  -2.628  0.00  0.00     0.224 C 
HETATM   27  O   UNK N   1      27.219  30.637  -3.073  0.00  0.00    -0.273 OA
HETATM   28  N   UNK N   1      28.022  29.460  -1.355  0.00  0.00    -0.351 N 
HETATM   29  H   UNK N   1      28.309  28.591  -0.993  0.00  0.00     0.163 HD
BRANCH  28  30
HETATM   30  C   UNK N   1      28.082  30.649  -0.527  0.00  0.00     0.232 C 
BRANCH  30  31
HETATM   31  C   UNK N   1      28.130  30.344   0.935  0.00  0.00     0.158 C 
HETATM   32  O   UNK N   1      28.764  31.050   1.703  0.00  0.00    -0.649 OA
BRANCH  31  33
HETATM   33  O   UNK N   1      27.462  29.274   1.406  0.00  0.00    -0.775 OA
HETATM   34  H   UNK N   1      26.556  29.339   1.632  0.00  0.00     0.167 HD
ENDBRANCH  31  33
ENDBRANCH  30  31
ENDBRANCH  28  30
ENDBRANCH  18  26
ENDBRANCH   1  18
TORSDOF 10
ENDMDL
MODEL 7
REMARK VINA RESULT:      -7.6     15.114     17.698
REMARK  10 active torsions:
REMARK  status: ('A' for Active; 'I' for Inactive)
REMARK    1  A    between atoms: O_1  and  C_21 
REMARK    2  A    between atoms: O_3  and  C_31 
REMARK    3  A    between atoms: N_5  and  C_15 
REMARK       I    between atoms: N_6  and  C_20 
REMARK    4  A    between atoms: N_6  and  C_27 
REMARK    5  A    between atoms: C_7  and  C_12 
REMARK    6  A    between atoms: C_15  and  C_16 
REMARK    7  A    between atoms: C_16  and  C_19 
REMARK    8  A    between atoms: C_16  and  C_20 
REMARK    9  A    between atoms: C_19  and  C_24 
REMARK   10  A    between atoms: C_27  and  C_31 
ROOT
HETATM    1  C   UNK N   1      26.715  24.861  -3.955  0.00  0.00     0.286 C 
ENDROOT
BRANCH   1   2
HETATM    2  N   UNK N   1      28.157  24.673  -3.733  0.00  0.00     0.089 N 
HETATM    3  C   UNK N   1      28.319  23.214  -3.600  0.00  0.00     0.277 C 
HETATM    4  C   UNK N   1      29.794  22.788  -3.476  0.00  0.00     0.022 C 
HETATM    5  C   UNK N   1      30.600  23.279  -4.705  0.00  0.00    -0.010 C 
HETATM    6  C   UNK N   1      30.344  23.299  -2.147  0.00  0.00     0.012 C 
HETATM    7  C   UNK N   1      30.382  24.794  -4.831  0.00  0.00     0.044 C 
HETATM    8  C   UNK N   1      32.096  23.055  -4.498  0.00  0.00     0.021 C 
HETATM    9  C   UNK N   1      28.892  25.112  -4.923  0.00  0.00     0.273 C 
BRANCH   5  10
HETATM   10  C   UNK N   1      30.183  22.502  -5.956  0.00  0.00    -0.047 A 
HETATM   11  C   UNK N   1      29.994  23.142  -7.197  0.00  0.00     0.044 A 
HETATM   12  C   UNK N   1      29.601  22.415  -8.323  0.00  0.00     0.066 A 
HETATM   13  C   UNK N   1      29.415  21.034  -8.233  0.00  0.00     0.036 A 
HETATM   14  C   UNK N   1      29.610  20.382  -7.015  0.00  0.00     0.003 A 
HETATM   15  C   UNK N   1      29.980  21.112  -5.880  0.00  0.00     0.008 A 
BRANCH  12  16
HETATM   16  O   UNK N   1      29.395  23.047  -9.490  0.00  0.00    -0.361 OA
HETATM   17  H   UNK N   1      30.115  23.357 -10.004  0.00  0.00     0.217 HD
ENDBRANCH  12  16
ENDBRANCH   5  10
ENDBRANCH   1   2
BRANCH   1  18
HETATM   18  C   UNK N   1      26.248  25.312  -5.362  0.00  0.00     0.110 C 
BRANCH  18  19
HETATM   19  C   UNK N   1      25.333  26.532  -5.411  0.00  0.00     0.054 C 
BRANCH  19  20
HETATM   20  C   UNK N   1      26.112  27.787  -5.225  0.00  0.00    -0.057 A 
HETATM   21  C   UNK N   1      25.831  28.624  -4.141  0.00  0.00     0.007 A 
HETATM   22  C   UNK N   1      26.551  29.810  -3.970  0.00  0.00     0.001 A 
HETATM   23  C   UNK N   1      27.551  30.161  -4.884  0.00  0.00     0.000 A 
HETATM   24  C   UNK N   1      27.830  29.325  -5.970  0.00  0.00     0.001 A 
HETATM   25  C   UNK N   1      27.109  28.141  -6.142  0.00  0.00     0.007 A 
ENDBRANCH  19  20
ENDBRANCH  18  19
BRANCH  18  26
HETATM   26  C   UNK N   1      25.906  24.301  -6.425  0.00  0.00     0.224 C 
HETATM   27  O   UNK N   1      25.287  24.686  -7.409  0.00  0.00    -0.273 OA
HETATM   28  N   UNK N   1      26.285  23.004  -6.334  0.00  0.00    -0.351 N 
HETATM   29  H   UNK N   1      26.781  22.688  -5.544  0.00  0.00     0.163 HD
BRANCH  28  30
HETATM   30  C   UNK N   1      25.957  22.083  -7.404  0.00  0.00     0.232 C 
BRANCH  30  31
HETATM   31  C   UNK N   1      24.549  21.588  -7.342  0.00  0.00     0.158 C 
HETATM   32  O   UNK N   1      24.220  20.731  -6.537  0.00  0.00    -0.649 OA
BRANCH  31  33
HETATM   33  O   UNK N   1      23.635  22.096  -8.188  0.00  0.00    -0.775 OA
HETATM   34  H   UNK N   1      22.798  21.688  -8.289  0.00  0.00     0.167 HD
ENDBRANCH  31  33
ENDBRANCH  30  31
ENDBRANCH  28  30
ENDBRANCH  18  26
ENDBRANCH   1  18
TORSDOF 10
ENDMDL
MODEL 8
REMARK VINA RESULT:      -7.6      3.167      7.849
REMARK  10 active torsions:
REMARK  status: ('A' for Active; 'I' for Inactive)
REMARK    1  A    between atoms: O_1  and  C_21 
REMARK    2  A    between atoms: O_3  and  C_31 
REMARK    3  A    between atoms: N_5  and  C_15 
REMARK       I    between atoms: N_6  and  C_20 
REMARK    4  A    between atoms: N_6  and  C_27 
REMARK    5  A    between atoms: C_7  and  C_12 
REMARK    6  A    between atoms: C_15  and  C_16 
REMARK    7  A    between atoms: C_16  and  C_19 
REMARK    8  A    between atoms: C_16  and  C_20 
REMARK    9  A    between atoms: C_19  and  C_24 
REMARK   10  A    between atoms: C_27  and  C_31 
ROOT
HETATM    1  C   UNK N   1      22.912  16.037   6.347  0.00  0.00     0.286 C 
ENDROOT
BRANCH   1   2
HETATM    2  N   UNK N   1      23.185  14.625   6.036  0.00  0.00     0.089 N 
HETATM    3  C   UNK N   1      24.355  14.288   6.865  0.00  0.00     0.277 C 
HETATM    4  C   UNK N   1      24.740  12.799   6.775  0.00  0.00     0.022 C 
HETATM    5  C   UNK N   1      23.544  11.909   7.198  0.00  0.00    -0.010 C 
HETATM    6  C   UNK N   1      25.244  12.505   5.365  0.00  0.00     0.012 C 
HETATM    7  C   UNK N   1      22.336  12.310   6.338  0.00  0.00     0.044 C 
HETATM    8  C   UNK N   1      23.833  10.438   6.911  0.00  0.00     0.021 C 
HETATM    9  C   UNK N   1      22.054  13.804   6.478  0.00  0.00     0.273 C 
BRANCH   5  10
HETATM   10  C   UNK N   1      23.287  12.047   8.701  0.00  0.00    -0.047 A 
HETATM   11  C   UNK N   1      24.342  12.062   9.635  0.00  0.00     0.044 A 
HETATM   12  C   UNK N   1      24.084  12.175  11.003  0.00  0.00     0.066 A 
HETATM   13  C   UNK N   1      22.769  12.301  11.458  0.00  0.00     0.036 A 
HETATM   14  C   UNK N   1      21.713  12.301  10.545  0.00  0.00     0.003 A 
HETATM   15  C   UNK N   1      21.968  12.163   9.177  0.00  0.00     0.008 A 
BRANCH  12  16
HETATM   16  O   UNK N   1      25.100  12.155  11.881  0.00  0.00    -0.361 OA
HETATM   17  H   UNK N   1      25.047  11.651  12.669  0.00  0.00     0.217 HD
ENDBRANCH  12  16
ENDBRANCH   5  10
ENDBRANCH   1   2
BRANCH   1  18
HETATM   18  C   UNK N   1      23.065  17.075   5.206  0.00  0.00     0.110 C 
BRANCH  18  19
HETATM   19  C   UNK N   1      24.485  17.549   4.913  0.00  0.00     0.054 C 
BRANCH  19  20
HETATM   20  C   UNK N   1      25.144  16.666   3.913  0.00  0.00    -0.057 A 
HETATM   21  C   UNK N   1      26.537  16.666   3.797  0.00  0.00     0.007 A 
HETATM   22  C   UNK N   1      27.160  15.847   2.851  0.00  0.00     0.001 A 
HETATM   23  C   UNK N   1      26.390  15.028   2.018  0.00  0.00     0.000 A 
HETATM   24  C   UNK N   1      24.996  15.029   2.132  0.00  0.00     0.001 A 
HETATM   25  C   UNK N   1      24.374  15.849   3.076  0.00  0.00     0.007 A 
ENDBRANCH  19  20
ENDBRANCH  18  19
BRANCH  18  26
HETATM   26  C   UNK N   1      22.049  18.169   5.013  0.00  0.00     0.224 C 
HETATM   27  O   UNK N   1      21.505  18.633   6.008  0.00  0.00    -0.273 OA
HETATM   28  N   UNK N   1      21.746  18.663   3.789  0.00  0.00    -0.351 N 
HETATM   29  H   UNK N   1      22.177  18.292   2.986  0.00  0.00     0.163 HD
BRANCH  28  30
HETATM   30  C   UNK N   1      20.784  19.740   3.667  0.00  0.00     0.232 C 
BRANCH  30  31
HETATM   31  C   UNK N   1      21.127  20.714   2.586  0.00  0.00     0.158 C 
HETATM   32  O   UNK N   1      20.557  20.680   1.507  0.00  0.00    -0.649 OA
BRANCH  31  33
HETATM   33  O   UNK N   1      22.079  21.638   2.811  0.00  0.00    -0.775 OA
HETATM   34  H   UNK N   1      22.549  22.022   2.098  0.00  0.00     0.167 HD
ENDBRANCH  31  33
ENDBRANCH  30  31
ENDBRANCH  28  30
ENDBRANCH  18  26
ENDBRANCH   1  18
TORSDOF 10
ENDMDL
MODEL 9
REMARK VINA RESULT:      -7.5     10.783     14.806
REMARK  10 active torsions:
REMARK  status: ('A' for Active; 'I' for Inactive)
REMARK    1  A    between atoms: O_1  and  C_21 
REMARK    2  A    between atoms: O_3  and  C_31 
REMARK    3  A    between atoms: N_5  and  C_15 
REMARK       I    between atoms: N_6  and  C_20 
REMARK    4  A    between atoms: N_6  and  C_27 
REMARK    5  A    between atoms: C_7  and  C_12 
REMARK    6  A    between atoms: C_15  and  C_16 
REMARK    7  A    between atoms: C_16  and  C_19 
REMARK    8  A    between atoms: C_16  and  C_20 
REMARK    9  A    between atoms: C_19  and  C_24 
REMARK   10  A    between atoms: C_27  and  C_31 
ROOT
HETATM    1  C   UNK N   1      32.793  14.948   9.547  0.00  0.00     0.286 C 
ENDROOT
BRANCH   1   2
HETATM    2  N   UNK N   1      34.150  14.379   9.565  0.00  0.00     0.089 N 
HETATM    3  C   UNK N   1      34.692  14.768  10.879  0.00  0.00     0.277 C 
HETATM    4  C   UNK N   1      36.082  14.164  11.152  0.00  0.00     0.022 C 
HETATM    5  C   UNK N   1      36.023  12.618  11.064  0.00  0.00    -0.010 C 
HETATM    6  C   UNK N   1      37.087  14.788  10.188  0.00  0.00     0.012 C 
HETATM    7  C   UNK N   1      35.424  12.251   9.698  0.00  0.00     0.044 C 
HETATM    8  C   UNK N   1      37.425  12.017  11.118  0.00  0.00     0.021 C 
HETATM    9  C   UNK N   1      34.063  12.917   9.516  0.00  0.00     0.273 C 
BRANCH   5  10
HETATM   10  C   UNK N   1      35.229  12.050  12.244  0.00  0.00    -0.047 A 
HETATM   11  C   UNK N   1      35.098  12.755  13.457  0.00  0.00     0.044 A 
HETATM   12  C   UNK N   1      34.381  12.212  14.525  0.00  0.00     0.066 A 
HETATM   13  C   UNK N   1      33.760  10.968  14.389  0.00  0.00     0.036 A 
HETATM   14  C   UNK N   1      33.869  10.262  13.190  0.00  0.00     0.003 A 
HETATM   15  C   UNK N   1      34.608  10.793  12.128  0.00  0.00     0.008 A 
BRANCH  12  16
HETATM   16  O   UNK N   1      34.293  12.884  15.684  0.00  0.00    -0.361 OA
HETATM   17  H   UNK N   1      35.057  13.065  16.195  0.00  0.00     0.217 HD
ENDBRANCH  12  16
ENDBRANCH   5  10
ENDBRANCH   1   2
BRANCH   1  18
HETATM   18  C   UNK N   1      32.458  15.992   8.451  0.00  0.00     0.110 C 
BRANCH  18  19
HETATM   19  C   UNK N   1      33.583  16.332   7.477  0.00  0.00     0.054 C 
BRANCH  19  20
HETATM   20  C   UNK N   1      33.096  16.296   6.071  0.00  0.00    -0.057 A 
HETATM   21  C   UNK N   1      33.278  17.409   5.245  0.00  0.00     0.007 A 
HETATM   22  C   UNK N   1      32.812  17.385   3.927  0.00  0.00     0.001 A 
HETATM   23  C   UNK N   1      32.161  16.248   3.435  0.00  0.00     0.000 A 
HETATM   24  C   UNK N   1      31.977  15.135   4.262  0.00  0.00     0.001 A 
HETATM   25  C   UNK N   1      32.441  15.160   5.579  0.00  0.00     0.007 A 
ENDBRANCH  19  20
ENDBRANCH  18  19
BRANCH  18  26
HETATM   26  C   UNK N   1      31.590  17.183   8.757  0.00  0.00     0.224 C 
HETATM   27  O   UNK N   1      31.982  18.289   8.403  0.00  0.00    -0.273 OA
HETATM   28  N   UNK N   1      30.393  17.063   9.379  0.00  0.00    -0.351 N 
HETATM   29  H   UNK N   1      30.074  16.177   9.668  0.00  0.00     0.163 HD
BRANCH  28  30
HETATM   30  C   UNK N   1      29.584  18.242   9.616  0.00  0.00     0.232 C 
BRANCH  30  31
HETATM   31  C   UNK N   1      28.148  18.051   9.250  0.00  0.00     0.158 C 
HETATM   32  O   UNK N   1      27.580  16.992   9.464  0.00  0.00    -0.649 OA
BRANCH  31  33
HETATM   33  O   UNK N   1      27.475  19.066   8.676  0.00  0.00    -0.775 OA
HETATM   34  H   UNK N   1      26.637  18.922   8.285  0.00  0.00     0.167 HD
ENDBRANCH  31  33
ENDBRANCH  30  31
ENDBRANCH  28  30
ENDBRANCH  18  26
ENDBRANCH   1  18
TORSDOF 10
ENDMDL
