MODEL 1
REMARK VINA RESULT:      -7.7      0.000      0.000
REMARK  11 active torsions:
REMARK  status: ('A' for Active; 'I' for Inactive)
REMARK    1  A    between atoms: S_1  and  N_7 
REMARK    2  A    between atoms: S_1  and  C_21 
REMARK    3  A    between atoms: O_4  and  C_27 
REMARK    4  A    between atoms: O_4  and  C_35 
REMARK    5  A    between atoms: N_7  and  C_19 
REMARK    6  A    between atoms: C_14  and  C_18 
REMARK    7  A    between atoms: C_18  and  C_19 
REMARK    8  A    between atoms: C_23  and  C_26 
REMARK    9  A    between atoms: C_28  and  C_31 
REMARK   10  A    between atoms: C_31  and  C_33 
REMARK   11  A    between atoms: C_35  and  C_37 
ROOT
HETATM    1  C   UNK N   1      24.831  19.762   3.846  0.00  0.00     0.080 A 
HETATM    2  C   UNK N   1      24.233  18.778   4.655  0.00  0.00     0.043 A 
HETATM    3  C   UNK N   1      22.876  18.499   4.623  0.00  0.00     0.043 A 
HETATM    4  C   UNK N   1      24.007  20.480   2.969  0.00  0.00     0.028 A 
HETATM    5  C   UNK N   1      22.048  19.223   3.734  0.00  0.00     0.082 A 
HETATM    6  C   UNK N   1      22.632  20.211   2.911  0.00  0.00     0.039 A 
ENDROOT
BRANCH   3   7
HETATM    7  C   UNK N   1      22.420  17.454   5.563  0.00  0.00     0.121 A 
HETATM    8  N   UNK N   1      21.456  17.693   6.507  0.00  0.00    -0.338 N 
HETATM    9  C   UNK N   1      21.133  16.682   7.353  0.00  0.00     0.092 A 
HETATM   10  H   UNK N   1      21.012  18.571   6.570  0.00  0.00     0.167 HD
HETATM   11  C   UNK N   1      20.231  16.622   8.391  0.00  0.00     0.055 A 
HETATM   12  C   UNK N   1      21.717  15.460   7.299  0.00  0.00     0.147 A 
HETATM   13  N   UNK N   1      20.290  15.382   8.938  0.00  0.00    -0.300 N 
HETATM   14  N   UNK N   1      21.198  14.682   8.263  0.00  0.00    -0.289 N 
ATOM     15  HN  UNK N   1      19.736  15.045   9.725  1.00  0.00     0.187 HD
HETATM   16  C   UNK N   1      21.548  13.303   8.560  0.00  0.00     0.178 C 
HETATM   17  C   UNK N   1      22.687  15.201   6.350  0.00  0.00     0.277 A 
HETATM   18  O   UNK N   1      23.234  14.117   6.270  0.00  0.00    -0.265 OA
HETATM   19  N   UNK N   1      23.022  16.217   5.495  0.00  0.00    -0.307 N 
ATOM     20  HN  UNK N   1      23.738  16.052   4.787  1.00  0.00     0.170 HD
BRANCH  11  21
HETATM   21  C   UNK N   1      19.339  17.713   8.874  0.00  0.00     0.061 C 
BRANCH  21  22
HETATM   22  C   UNK N   1      17.953  17.171   9.155  0.00  0.00     0.002 C 
HETATM   23  C   UNK N   1      17.295  18.012  10.226  0.00  0.00     0.005 C 
ENDBRANCH  21  22
ENDBRANCH  11  21
ENDBRANCH   3   7
BRANCH   5  24
HETATM   24  O   UNK N   1      20.716  18.968   3.676  0.00  0.00    -0.350 OA
BRANCH  24  25
HETATM   25  C   UNK N   1      20.060  18.658   2.504  0.00  0.00     0.175 C 
BRANCH  25  26
HETATM   26  C   UNK N   1      20.378  17.233   2.104  0.00  0.00     0.022 C 
HETATM   27  C   UNK N   1      20.047  17.035   0.639  0.00  0.00     0.007 C 
ENDBRANCH  25  26
ENDBRANCH  24  25
ENDBRANCH   5  24
BRANCH   1  28
HETATM   28  S   UNK N   1      26.643  20.125   3.885  0.00  0.00     0.258 S 
HETATM   29  O   UNK N   1      26.404  18.617   3.692  0.00  0.00    -0.201 OA
HETATM   30  O   UNK N   1      26.268  20.405   5.350  0.00  0.00    -0.201 OA
BRANCH  28  31
HETATM   31  N   UNK N   1      27.901  19.237   4.768  0.00  0.00    -0.315 N 
HETATM   32  H   UNK N   1      28.716  18.799   4.340  0.00  0.00     0.172 HD
BRANCH  31  33
HETATM   33  C   UNK N   1      27.601  19.225   6.193  0.00  0.00     0.134 C 
BRANCH  33  34
HETATM   34  C   UNK N   1      27.882  17.859   6.795  0.00  0.00     0.056 C 
BRANCH  34  35
HETATM   35  C   UNK N   1      29.338  17.823   7.220  0.00  0.00     0.224 C 
HETATM   36  N   UNK N   1      29.500  17.340   8.575  0.00  0.00     0.088 N 
HETATM   37  C   UNK N   1      30.909  16.976   8.639  0.00  0.00     0.272 C 
HETATM   38  C   UNK N   1      29.287  18.455   9.483  0.00  0.00     0.310 C 
HETATM   39  C   UNK N   1      31.368  16.654   7.221  0.00  0.00     0.032 C 
HETATM   40  C   UNK N   1      30.159  16.906   6.355  0.00  0.00     0.037 C 
ENDBRANCH  34  35
ENDBRANCH  33  34
ENDBRANCH  31  33
ENDBRANCH  28  31
ENDBRANCH   1  28
TORSDOF 11
ENDMDL
MODEL 2
REMARK VINA RESULT:      -7.5     13.052     15.475
REMARK  11 active torsions:
REMARK  status: ('A' for Active; 'I' for Inactive)
REMARK    1  A    between atoms: S_1  and  N_7 
REMARK    2  A    between atoms: S_1  and  C_21 
REMARK    3  A    between atoms: O_4  and  C_27 
REMARK    4  A    between atoms: O_4  and  C_35 
REMARK    5  A    between atoms: N_7  and  C_19 
REMARK    6  A    between atoms: C_14  and  C_18 
REMARK    7  A    between atoms: C_18  and  C_19 
REMARK    8  A    between atoms: C_23  and  C_26 
REMARK    9  A    between atoms: C_28  and  C_31 
REMARK   10  A    between atoms: C_31  and  C_33 
REMARK   11  A    between atoms: C_35  and  C_37 
ROOT
HETATM    1  C   UNK N   1      26.229  26.173  -4.186  0.00  0.00     0.080 A 
HETATM    2  C   UNK N   1      27.361  25.347  -4.060  0.00  0.00     0.043 A 
HETATM    3  C   UNK N   1      27.605  24.270  -4.898  0.00  0.00     0.043 A 
HETATM    4  C   UNK N   1      25.320  25.888  -5.214  0.00  0.00     0.028 A 
HETATM    5  C   UNK N   1      26.688  23.987  -5.936  0.00  0.00     0.082 A 
HETATM    6  C   UNK N   1      25.548  24.809  -6.081  0.00  0.00     0.039 A 
ENDROOT
BRANCH   3   7
HETATM    7  C   UNK N   1      28.828  23.497  -4.599  0.00  0.00     0.121 A 
HETATM    8  N   UNK N   1      29.424  22.685  -5.529  0.00  0.00    -0.338 N 
HETATM    9  C   UNK N   1      30.520  21.982  -5.147  0.00  0.00     0.092 A 
HETATM   10  H   UNK N   1      29.067  22.614  -6.444  0.00  0.00     0.167 HD
HETATM   11  C   UNK N   1      31.313  21.094  -5.837  0.00  0.00     0.055 A 
HETATM   12  C   UNK N   1      31.043  22.053  -3.898  0.00  0.00     0.147 A 
HETATM   13  N   UNK N   1      32.286  20.651  -5.002  0.00  0.00    -0.300 N 
HETATM   14  N   UNK N   1      32.113  21.242  -3.823  0.00  0.00    -0.289 N 
ATOM     15  HN  UNK N   1      33.020  19.982  -5.236  1.00  0.00     0.187 HD
HETATM   16  C   UNK N   1      32.960  21.015  -2.665  0.00  0.00     0.178 C 
HETATM   17  C   UNK N   1      30.458  22.870  -2.951  0.00  0.00     0.277 A 
HETATM   18  O   UNK N   1      30.899  22.961  -1.819  0.00  0.00    -0.265 OA
HETATM   19  N   UNK N   1      29.349  23.580  -3.326  0.00  0.00    -0.307 N 
ATOM     20  HN  UNK N   1      28.897  24.188  -2.643  1.00  0.00     0.170 HD
BRANCH  11  21
HETATM   21  C   UNK N   1      31.154  20.657  -7.252  0.00  0.00     0.061 C 
BRANCH  21  22
HETATM   22  C   UNK N   1      30.242  19.449  -7.328  0.00  0.00     0.002 C 
HETATM   23  C   UNK N   1      28.884  19.879  -7.835  0.00  0.00     0.005 C 
ENDBRANCH  21  22
ENDBRANCH  11  21
ENDBRANCH   3   7
BRANCH   5  24
HETATM   24  O   UNK N   1      26.903  22.942  -6.776  0.00  0.00    -0.350 OA
BRANCH  24  25
HETATM   25  C   UNK N   1      26.922  23.074  -8.148  0.00  0.00     0.175 C 
BRANCH  25  26
HETATM   26  C   UNK N   1      25.718  22.379  -8.745  0.00  0.00     0.022 C 
HETATM   27  C   UNK N   1      25.370  21.165  -7.909  0.00  0.00     0.007 C 
ENDBRANCH  25  26
ENDBRANCH  24  25
ENDBRANCH   5  24
BRANCH   1  28
HETATM   28  S   UNK N   1      25.911  27.614  -3.073  0.00  0.00     0.258 S 
HETATM   29  O   UNK N   1      25.306  27.870  -4.464  0.00  0.00    -0.201 OA
HETATM   30  O   UNK N   1      27.432  27.737  -3.268  0.00  0.00    -0.201 OA
BRANCH  28  31
HETATM   31  N   UNK N   1      26.098  29.335  -3.459  0.00  0.00    -0.315 N 
HETATM   32  H   UNK N   1      25.341  30.018  -3.464  0.00  0.00     0.172 HD
BRANCH  31  33
HETATM   33  C   UNK N   1      27.490  29.634  -3.768  0.00  0.00     0.134 C 
BRANCH  33  34
HETATM   34  C   UNK N   1      27.594  30.523  -4.995  0.00  0.00     0.056 C 
BRANCH  34  35
HETATM   35  C   UNK N   1      28.426  29.794  -6.034  0.00  0.00     0.224 C 
HETATM   36  N   UNK N   1      29.637  29.235  -5.471  0.00  0.00     0.088 N 
HETATM   37  C   UNK N   1      30.051  28.255  -6.465  0.00  0.00     0.272 C 
HETATM   38  C   UNK N   1      30.645  30.281  -5.430  0.00  0.00     0.310 C 
HETATM   39  C   UNK N   1      28.807  27.816  -7.230  0.00  0.00     0.032 C 
HETATM   40  C   UNK N   1      27.684  28.639  -6.648  0.00  0.00     0.037 C 
ENDBRANCH  34  35
ENDBRANCH  33  34
ENDBRANCH  31  33
ENDBRANCH  28  31
ENDBRANCH   1  28
TORSDOF 11
ENDMDL
MODEL 3
REMARK VINA RESULT:      -7.3      3.347      7.125
REMARK  11 active torsions:
REMARK  status: ('A' for Active; 'I' for Inactive)
REMARK    1  A    between atoms: S_1  and  N_7 
REMARK    2  A    between atoms: S_1  and  C_21 
REMARK    3  A    between atoms: O_4  and  C_27 
REMARK    4  A    between atoms: O_4  and  C_35 
REMARK    5  A    between atoms: N_7  and  C_19 
REMARK    6  A    between atoms: C_14  and  C_18 
REMARK    7  A    between atoms: C_18  and  C_19 
REMARK    8  A    between atoms: C_23  and  C_26 
REMARK    9  A    between atoms: C_28  and  C_31 
REMARK   10  A    between atoms: C_31  and  C_33 
REMARK   11  A    between atoms: C_35  and  C_37 
ROOT
HETATM    1  C   UNK N   1      24.468  14.672   2.546  0.00  0.00     0.080 A 
HETATM    2  C   UNK N   1      23.636  15.017   3.627  0.00  0.00     0.043 A 
HETATM    3  C   UNK N   1      23.869  16.117   4.437  0.00  0.00     0.043 A 
HETATM    4  C   UNK N   1      25.576  15.490   2.284  0.00  0.00     0.028 A 
HETATM    5  C   UNK N   1      24.985  16.942   4.168  0.00  0.00     0.082 A 
HETATM    6  C   UNK N   1      25.829  16.614   3.084  0.00  0.00     0.039 A 
ENDROOT
BRANCH   3   7
HETATM    7  C   UNK N   1      22.907  16.307   5.542  0.00  0.00     0.121 A 
HETATM    8  N   UNK N   1      22.562  15.289   6.392  0.00  0.00    -0.338 N 
HETATM    9  C   UNK N   1      21.638  15.550   7.352  0.00  0.00     0.092 A 
HETATM   10  H   UNK N   1      22.971  14.396   6.309  0.00  0.00     0.167 HD
HETATM   11  C   UNK N   1      21.090  14.746   8.325  0.00  0.00     0.055 A 
HETATM   12  C   UNK N   1      21.053  16.763   7.501  0.00  0.00     0.147 A 
HETATM   13  N   UNK N   1      20.196  15.480   9.033  0.00  0.00    -0.300 N 
HETATM   14  N   UNK N   1      20.182  16.709   8.523  0.00  0.00    -0.289 N 
ATOM     15  HN  UNK N   1      19.633  15.149   9.817  1.00  0.00     0.187 HD
HETATM   16  C   UNK N   1      19.339  17.785   9.016  0.00  0.00     0.178 C 
HETATM   17  C   UNK N   1      21.394  17.802   6.657  0.00  0.00     0.277 A 
HETATM   18  O   UNK N   1      20.891  18.906   6.759  0.00  0.00    -0.265 OA
HETATM   19  N   UNK N   1      22.322  17.547   5.683  0.00  0.00    -0.307 N 
ATOM     20  HN  UNK N   1      22.588  18.296   5.044  1.00  0.00     0.170 HD
BRANCH  11  21
HETATM   21  C   UNK N   1      21.389  13.309   8.579  0.00  0.00     0.061 C 
BRANCH  21  22
HETATM   22  C   UNK N   1      22.168  13.156   9.869  0.00  0.00     0.002 C 
HETATM   23  C   UNK N   1      21.348  12.357  10.858  0.00  0.00     0.005 C 
ENDBRANCH  21  22
ENDBRANCH  11  21
ENDBRANCH   3   7
BRANCH   5  24
HETATM   24  O   UNK N   1      25.237  18.030   4.941  0.00  0.00    -0.350 OA
BRANCH  24  25
HETATM   25  C   UNK N   1      26.451  18.683   4.946  0.00  0.00     0.175 C 
BRANCH  25  26
HETATM   26  C   UNK N   1      26.245  20.146   4.621  0.00  0.00     0.022 C 
HETATM   27  C   UNK N   1      27.020  20.996   5.606  0.00  0.00     0.007 C 
ENDBRANCH  25  26
ENDBRANCH  24  25
ENDBRANCH   5  24
BRANCH   1  28
HETATM   28  S   UNK N   1      24.149  13.210   1.461  0.00  0.00     0.258 S 
HETATM   29  O   UNK N   1      23.551  14.481   0.834  0.00  0.00    -0.201 OA
HETATM   30  O   UNK N   1      23.233  12.883   2.654  0.00  0.00    -0.201 OA
BRANCH  28  31
HETATM   31  N   UNK N   1      22.628  12.778   0.656  0.00  0.00    -0.315 N 
HETATM   32  H   UNK N   1      22.418  11.865   0.254  0.00  0.00     0.172 HD
BRANCH  31  33
HETATM   33  C   UNK N   1      21.720  13.918   0.652  0.00  0.00     0.134 C 
BRANCH  33  34
HETATM   34  C   UNK N   1      20.288  13.470   0.888  0.00  0.00     0.056 C 
BRANCH  34  35
HETATM   35  C   UNK N   1      19.690  14.355   1.966  0.00  0.00     0.224 C 
HETATM   36  N   UNK N   1      19.932  13.836   3.295  0.00  0.00     0.088 N 
HETATM   37  C   UNK N   1      19.686  14.984   4.157  0.00  0.00     0.272 C 
HETATM   38  C   UNK N   1      18.917  12.836   3.585  0.00  0.00     0.310 C 
HETATM   39  C   UNK N   1      19.930  16.243   3.332  0.00  0.00     0.032 C 
HETATM   40  C   UNK N   1      20.275  15.741   1.952  0.00  0.00     0.037 C 
ENDBRANCH  34  35
ENDBRANCH  33  34
ENDBRANCH  31  33
ENDBRANCH  28  31
ENDBRANCH   1  28
TORSDOF 11
ENDMDL
MODEL 4
REMARK VINA RESULT:      -7.3      7.062     11.781
REMARK  11 active torsions:
REMARK  status: ('A' for Active; 'I' for Inactive)
REMARK    1  A    between atoms: S_1  and  N_7 
REMARK    2  A    between atoms: S_1  and  C_21 
REMARK    3  A    between atoms: O_4  and  C_27 
REMARK    4  A    between atoms: O_4  and  C_35 
REMARK    5  A    between atoms: N_7  and  C_19 
REMARK    6  A    between atoms: C_14  and  C_18 
REMARK    7  A    between atoms: C_18  and  C_19 
REMARK    8  A    between atoms: C_23  and  C_26 
REMARK    9  A    between atoms: C_28  and  C_31 
REMARK   10  A    between atoms: C_31  and  C_33 
REMARK   11  A    between atoms: C_35  and  C_37 
ROOT
HETATM    1  C   UNK N   1      35.011  14.575   9.919  0.00  0.00     0.080 A 
HETATM    2  C   UNK N   1      33.798  15.178   9.539  0.00  0.00     0.043 A 
HETATM    3  C   UNK N   1      33.568  15.673   8.265  0.00  0.00     0.043 A 
HETATM    4  C   UNK N   1      36.021  14.470   8.953  0.00  0.00     0.028 A 
HETATM    5  C   UNK N   1      34.588  15.562   7.292  0.00  0.00     0.082 A 
HETATM    6  C   UNK N   1      35.811  14.954   7.654  0.00  0.00     0.039 A 
ENDROOT
BRANCH   3   7
HETATM    7  C   UNK N   1      32.246  16.300   8.056  0.00  0.00     0.121 A 
HETATM    8  N   UNK N   1      31.384  15.874   7.079  0.00  0.00    -0.338 N 
HETATM    9  C   UNK N   1      30.210  16.540   6.938  0.00  0.00     0.092 A 
HETATM   10  H   UNK N   1      31.610  15.111   6.499  0.00  0.00     0.167 HD
HETATM   11  C   UNK N   1      29.166  16.360   6.058  0.00  0.00     0.055 A 
HETATM   12  C   UNK N   1      29.860  17.594   7.715  0.00  0.00     0.147 A 
HETATM   13  N   UNK N   1      28.221  17.297   6.318  0.00  0.00    -0.300 N 
HETATM   14  N   UNK N   1      28.654  18.043   7.331  0.00  0.00    -0.289 N 
ATOM     15  HN  UNK N   1      27.335  17.411   5.825  1.00  0.00     0.187 HD
HETATM   16  C   UNK N   1      27.914  19.160   7.894  0.00  0.00     0.178 C 
HETATM   17  C   UNK N   1      30.716  18.032   8.708  0.00  0.00     0.277 A 
HETATM   18  O   UNK N   1      30.438  18.974   9.427  0.00  0.00    -0.265 OA
HETATM   19  N   UNK N   1      31.905  17.369   8.856  0.00  0.00    -0.307 N 
ATOM     20  HN  UNK N   1      32.555  17.675   9.579  1.00  0.00     0.170 HD
BRANCH  11  21
HETATM   21  C   UNK N   1      29.063  15.335   4.982  0.00  0.00     0.061 C 
BRANCH  21  22
HETATM   22  C   UNK N   1      28.553  15.968   3.703  0.00  0.00     0.002 C 
HETATM   23  C   UNK N   1      29.726  16.300   2.807  0.00  0.00     0.005 C 
ENDBRANCH  21  22
ENDBRANCH  11  21
ENDBRANCH   3   7
BRANCH   5  24
HETATM   24  O   UNK N   1      34.390  16.033   6.034  0.00  0.00    -0.350 OA
BRANCH  24  25
HETATM   25  C   UNK N   1      34.156  15.210   4.953  0.00  0.00     0.175 C 
BRANCH  25  26
HETATM   26  C   UNK N   1      33.383  15.966   3.895  0.00  0.00     0.022 C 
HETATM   27  C   UNK N   1      33.026  17.343   4.417  0.00  0.00     0.007 C 
ENDBRANCH  25  26
ENDBRANCH  24  25
ENDBRANCH   5  24
BRANCH   1  28
HETATM   28  S   UNK N   1      35.311  13.908  11.616  0.00  0.00     0.258 S 
HETATM   29  O   UNK N   1      35.262  15.446  11.647  0.00  0.00    -0.201 OA
HETATM   30  O   UNK N   1      36.648  13.563  10.937  0.00  0.00    -0.201 OA
BRANCH  28  31
HETATM   31  N   UNK N   1      36.493  14.485  12.807  0.00  0.00    -0.315 N 
HETATM   32  H   UNK N   1      37.341  15.005  12.584  0.00  0.00     0.172 HD
BRANCH  31  33
HETATM   33  C   UNK N   1      36.077  14.109  14.152  0.00  0.00     0.134 C 
BRANCH  33  34
HETATM   34  C   UNK N   1      35.428  12.736  14.155  0.00  0.00     0.056 C 
BRANCH  34  35
HETATM   35  C   UNK N   1      34.935  12.452  15.562  0.00  0.00     0.224 C 
HETATM   36  N   UNK N   1      35.431  11.191  16.071  0.00  0.00     0.088 N 
HETATM   37  C   UNK N   1      35.225  11.302  17.508  0.00  0.00     0.272 C 
HETATM   38  C   UNK N   1      34.567  10.130  15.578  0.00  0.00     0.310 C 
HETATM   39  C   UNK N   1      35.221  12.786  17.862  0.00  0.00     0.032 C 
HETATM   40  C   UNK N   1      35.384  13.499  16.543  0.00  0.00     0.037 C 
ENDBRANCH  34  35
ENDBRANCH  33  34
ENDBRANCH  31  33
ENDBRANCH  28  31
ENDBRANCH   1  28
TORSDOF 11
ENDMDL
MODEL 5
REMARK VINA RESULT:      -7.3      3.090      8.666
REMARK  11 active torsions:
REMARK  status: ('A' for Active; 'I' for Inactive)
REMARK    1  A    between atoms: S_1  and  N_7 
REMARK    2  A    between atoms: S_1  and  C_21 
REMARK    3  A    between atoms: O_4  and  C_27 
REMARK    4  A    between atoms: O_4  and  C_35 
REMARK    5  A    between atoms: N_7  and  C_19 
REMARK    6  A    between atoms: C_14  and  C_18 
REMARK    7  A    between atoms: C_18  and  C_19 
REMARK    8  A    between atoms: C_23  and  C_26 
REMARK    9  A    between atoms: C_28  and  C_31 
REMARK   10  A    between atoms: C_31  and  C_33 
REMARK   11  A    between atoms: C_35  and  C_37 
ROOT
HETATM    1  C   UNK N   1      23.809  16.145   5.228  0.00  0.00     0.080 A 
HETATM    2  C   UNK N   1      25.122  16.319   5.703  0.00  0.00     0.043 A 
HETATM    3  C   UNK N   1      25.952  17.340   5.268  0.00  0.00     0.043 A 
HETATM    4  C   UNK N   1      23.330  17.056   4.277  0.00  0.00     0.028 A 
HETATM    5  C   UNK N   1      25.465  18.260   4.312  0.00  0.00     0.082 A 
HETATM    6  C   UNK N   1      24.147  18.103   3.827  0.00  0.00     0.039 A 
ENDROOT
BRANCH   3   7
HETATM    7  C   UNK N   1      27.308  17.349   5.855  0.00  0.00     0.121 A 
HETATM    8  N   UNK N   1      28.437  17.258   5.084  0.00  0.00    -0.338 N 
HETATM    9  C   UNK N   1      29.637  17.233   5.718  0.00  0.00     0.092 A 
HETATM   10  H   UNK N   1      28.380  17.210   4.102  0.00  0.00     0.167 HD
HETATM   11  C   UNK N   1      30.920  17.137   5.227  0.00  0.00     0.055 A 
HETATM   12  C   UNK N   1      29.761  17.297   7.066  0.00  0.00     0.147 A 
HETATM   13  N   UNK N   1      31.781  17.143   6.276  0.00  0.00    -0.300 N 
HETATM   14  N   UNK N   1      31.063  17.242   7.392  0.00  0.00    -0.289 N 
ATOM     15  HN  UNK N   1      32.797  17.083   6.219  1.00  0.00     0.187 HD
HETATM   16  C   UNK N   1      31.635  17.274   8.727  0.00  0.00     0.178 C 
HETATM   17  C   UNK N   1      28.633  17.395   7.858  0.00  0.00     0.277 A 
HETATM   18  O   UNK N   1      28.702  17.455   9.072  0.00  0.00    -0.265 OA
HETATM   19  N   UNK N   1      27.418  17.416   7.227  0.00  0.00    -0.307 N 
ATOM     20  HN  UNK N   1      26.569  17.485   7.790  1.00  0.00     0.170 HD
BRANCH  11  21
HETATM   21  C   UNK N   1      31.332  17.026   3.800  0.00  0.00     0.061 C 
BRANCH  21  22
HETATM   22  C   UNK N   1      32.833  17.188   3.674  0.00  0.00     0.002 C 
HETATM   23  C   UNK N   1      33.398  16.021   2.895  0.00  0.00     0.005 C 
ENDBRANCH  21  22
ENDBRANCH  11  21
ENDBRANCH   3   7
BRANCH   5  24
HETATM   24  O   UNK N   1      26.252  19.273   3.870  0.00  0.00    -0.350 OA
BRANCH  24  25
HETATM   25  C   UNK N   1      26.123  20.572   4.312  0.00  0.00     0.175 C 
BRANCH  25  26
HETATM   26  C   UNK N   1      27.214  20.883   5.313  0.00  0.00     0.022 C 
HETATM   27  C   UNK N   1      26.601  21.079   6.684  0.00  0.00     0.007 C 
ENDBRANCH  25  26
ENDBRANCH  24  25
ENDBRANCH   5  24
BRANCH   1  28
HETATM   28  S   UNK N   1      22.701  14.788   5.818  0.00  0.00     0.258 S 
HETATM   29  O   UNK N   1      22.403  16.091   6.580  0.00  0.00    -0.201 OA
HETATM   30  O   UNK N   1      24.056  14.305   6.364  0.00  0.00    -0.201 OA
BRANCH  28  31
HETATM   31  N   UNK N   1      22.300  14.378   7.496  0.00  0.00    -0.315 N 
HETATM   32  H   UNK N   1      22.643  14.875   8.317  0.00  0.00     0.172 HD
BRANCH  31  33
HETATM   33  C   UNK N   1      21.406  13.228   7.534  0.00  0.00     0.134 C 
BRANCH  33  34
HETATM   34  C   UNK N   1      22.109  12.015   8.118  0.00  0.00     0.056 C 
BRANCH  34  35
HETATM   35  C   UNK N   1      22.813  12.446   9.391  0.00  0.00     0.224 C 
HETATM   36  N   UNK N   1      22.309  11.752  10.557  0.00  0.00     0.088 N 
HETATM   37  C   UNK N   1      23.351  11.962  11.553  0.00  0.00     0.272 C 
HETATM   38  C   UNK N   1      21.112  12.440  11.013  0.00  0.00     0.310 C 
HETATM   39  C   UNK N   1      24.661  12.198  10.809  0.00  0.00     0.032 C 
HETATM   40  C   UNK N   1      24.289  12.161   9.348  0.00  0.00     0.037 C 
ENDBRANCH  34  35
ENDBRANCH  33  34
ENDBRANCH  31  33
ENDBRANCH  28  31
ENDBRANCH   1  28
TORSDOF 11
ENDMDL
MODEL 6
REMARK VINA RESULT:      -7.2      1.551      3.196
REMARK  11 active torsions:
REMARK  status: ('A' for Active; 'I' for Inactive)
REMARK    1  A    between atoms: S_1  and  N_7 
REMARK    2  A    between atoms: S_1  and  C_21 
REMARK    3  A    between atoms: O_4  and  C_27 
REMARK    4  A    between atoms: O_4  and  C_35 
REMARK    5  A    between atoms: N_7  and  C_19 
REMARK    6  A    between atoms: C_14  and  C_18 
REMARK    7  A    between atoms: C_18  and  C_19 
REMARK    8  A    between atoms: C_23  and  C_26 
REMARK    9  A    between atoms: C_28  and  C_31 
REMARK   10  A    between atoms: C_31  and  C_33 
REMARK   11  A    between atoms: C_35  and  C_37 
ROOT
HETATM    1  C   UNK N   1      25.257  19.694   3.819  0.00  0.00     0.080 A 
HETATM    2  C   UNK N   1      24.608  18.775   4.664  0.00  0.00     0.043 A 
HETATM    3  C   UNK N   1      23.235  18.589   4.664  0.00  0.00     0.043 A 
HETATM    4  C   UNK N   1      24.468  20.443   2.937  0.00  0.00     0.028 A 
HETATM    5  C   UNK N   1      22.441  19.344   3.769  0.00  0.00     0.082 A 
HETATM    6  C   UNK N   1      23.076  20.268   2.910  0.00  0.00     0.039 A 
ENDROOT
BRANCH   3   7
HETATM    7  C   UNK N   1      22.726  17.603   5.640  0.00  0.00     0.121 A 
HETATM    8  N   UNK N   1      23.370  16.418   5.882  0.00  0.00    -0.338 N 
HETATM    9  C   UNK N   1      22.804  15.558   6.766  0.00  0.00     0.092 A 
HETATM   10  H   UNK N   1      24.217  16.197   5.428  0.00  0.00     0.167 HD
HETATM   11  C   UNK N   1      23.198  14.313   7.199  0.00  0.00     0.055 A 
HETATM   12  C   UNK N   1      21.642  15.824   7.412  0.00  0.00     0.147 A 
HETATM   13  N   UNK N   1      22.278  13.856   8.085  0.00  0.00    -0.300 N 
HETATM   14  N   UNK N   1      21.334  14.786   8.208  0.00  0.00    -0.289 N 
ATOM     15  HN  UNK N   1      22.304  12.960   8.571  1.00  0.00     0.187 HD
HETATM   16  C   UNK N   1      20.171  14.656   9.069  0.00  0.00     0.178 C 
HETATM   17  C   UNK N   1      20.983  17.016   7.183  0.00  0.00     0.277 A 
HETATM   18  O   UNK N   1      19.938  17.291   7.744  0.00  0.00    -0.265 OA
HETATM   19  N   UNK N   1      21.545  17.888   6.289  0.00  0.00    -0.307 N 
ATOM     20  HN  UNK N   1      21.076  18.774   6.101  1.00  0.00     0.170 HD
BRANCH  11  21
HETATM   21  C   UNK N   1      24.410  13.555   6.779  0.00  0.00     0.061 C 
BRANCH  21  22
HETATM   22  C   UNK N   1      24.159  12.854   5.460  0.00  0.00     0.002 C 
HETATM   23  C   UNK N   1      25.179  11.752   5.277  0.00  0.00     0.005 C 
ENDBRANCH  21  22
ENDBRANCH  11  21
ENDBRANCH   3   7
BRANCH   5  24
HETATM   24  O   UNK N   1      21.094  19.181   3.741  0.00  0.00    -0.350 OA
BRANCH  24  25
HETATM   25  C   UNK N   1      20.360  19.196   2.575  0.00  0.00     0.175 C 
BRANCH  25  26
HETATM   26  C   UNK N   1      20.224  17.788   2.039  0.00  0.00     0.022 C 
HETATM   27  C   UNK N   1      19.968  16.833   3.187  0.00  0.00     0.007 C 
ENDBRANCH  25  26
ENDBRANCH  24  25
ENDBRANCH   5  24
BRANCH   1  28
HETATM   28  S   UNK N   1      27.090  19.932   3.817  0.00  0.00     0.258 S 
HETATM   29  O   UNK N   1      26.734  18.529   4.341  0.00  0.00    -0.201 OA
HETATM   30  O   UNK N   1      26.681  20.896   4.944  0.00  0.00    -0.201 OA
BRANCH  28  31
HETATM   31  N   UNK N   1      28.233  19.505   5.105  0.00  0.00    -0.315 N 
HETATM   32  H   UNK N   1      28.824  20.169   5.606  0.00  0.00     0.172 HD
BRANCH  31  33
HETATM   33  C   UNK N   1      28.206  18.069   5.347  0.00  0.00     0.134 C 
BRANCH  33  34
HETATM   34  C   UNK N   1      29.538  17.585   5.892  0.00  0.00     0.056 C 
BRANCH  34  35
HETATM   35  C   UNK N   1      29.345  17.219   7.351  0.00  0.00     0.224 C 
HETATM   36  N   UNK N   1      30.033  18.132   8.240  0.00  0.00     0.088 N 
HETATM   37  C   UNK N   1      29.398  17.893   9.529  0.00  0.00     0.272 C 
HETATM   38  C   UNK N   1      31.420  17.709   8.341  0.00  0.00     0.310 C 
HETATM   39  C   UNK N   1      27.996  17.355   9.262  0.00  0.00     0.032 C 
HETATM   40  C   UNK N   1      27.898  17.258   7.760  0.00  0.00     0.037 C 
ENDBRANCH  34  35
ENDBRANCH  33  34
ENDBRANCH  31  33
ENDBRANCH  28  31
ENDBRANCH   1  28
TORSDOF 11
ENDMDL
MODEL 7
REMARK VINA RESULT:      -7.1      3.084      7.316
REMARK  11 active torsions:
REMARK  status: ('A' for Active; 'I' for Inactive)
REMARK    1  A    between atoms: S_1  and  N_7 
REMARK    2  A    between atoms: S_1  and  C_21 
REMARK    3  A    between atoms: O_4  and  C_27 
REMARK    4  A    between atoms: O_4  and  C_35 
REMARK    5  A    between atoms: N_7  and  C_19 
REMARK    6  A    between atoms: C_14  and  C_18 
REMARK    7  A    between atoms: C_18  and  C_19 
REMARK    8  A    between atoms: C_23  and  C_26 
REMARK    9  A    between atoms: C_28  and  C_31 
REMARK   10  A    between atoms: C_31  and  C_33 
REMARK   11  A    between atoms: C_35  and  C_37 
ROOT
HETATM    1  C   UNK N   1      25.813  15.642   6.329  0.00  0.00     0.080 A 
HETATM    2  C   UNK N   1      24.844  16.359   5.604  0.00  0.00     0.043 A 
HETATM    3  C   UNK N   1      25.130  17.525   4.911  0.00  0.00     0.043 A 
HETATM    4  C   UNK N   1      27.124  16.136   6.338  0.00  0.00     0.028 A 
HETATM    5  C   UNK N   1      26.455  18.020   4.919  0.00  0.00     0.082 A 
HETATM    6  C   UNK N   1      27.443  17.309   5.638  0.00  0.00     0.039 A 
ENDROOT
BRANCH   3   7
HETATM    7  C   UNK N   1      23.982  18.159   4.231  0.00  0.00     0.121 A 
HETATM    8  N   UNK N   1      22.815  17.483   3.988  0.00  0.00    -0.338 N 
HETATM    9  C   UNK N   1      21.831  18.138   3.320  0.00  0.00     0.092 A 
HETATM   10  H   UNK N   1      22.694  16.553   4.287  0.00  0.00     0.167 HD
HETATM   11  C   UNK N   1      20.577  17.730   2.925  0.00  0.00     0.055 A 
HETATM   12  C   UNK N   1      21.956  19.418   2.892  0.00  0.00     0.147 A 
HETATM   13  N   UNK N   1      19.978  18.758   2.274  0.00  0.00    -0.300 N 
HETATM   14  N   UNK N   1      20.827  19.782   2.260  0.00  0.00    -0.289 N 
ATOM     15  HN  UNK N   1      19.043  18.748   1.866  1.00  0.00     0.187 HD
HETATM   16  C   UNK N   1      20.543  21.067   1.644  0.00  0.00     0.178 C 
HETATM   17  C   UNK N   1      23.123  20.115   3.134  0.00  0.00     0.277 A 
HETATM   18  O   UNK N   1      23.273  21.266   2.766  0.00  0.00    -0.265 OA
HETATM   19  N   UNK N   1      24.123  19.462   3.804  0.00  0.00    -0.307 N 
ATOM     20  HN  UNK N   1      24.997  19.954   3.992  1.00  0.00     0.170 HD
BRANCH  11  21
HETATM   21  C   UNK N   1      19.955  16.394   3.142  0.00  0.00     0.061 C 
BRANCH  21  22
HETATM   22  C   UNK N   1      20.634  15.353   2.274  0.00  0.00     0.002 C 
HETATM   23  C   UNK N   1      20.288  15.608   0.824  0.00  0.00     0.005 C 
ENDBRANCH  21  22
ENDBRANCH  11  21
ENDBRANCH   3   7
BRANCH   5  24
HETATM   24  O   UNK N   1      26.768  19.156   4.246  0.00  0.00    -0.350 OA
BRANCH  24  25
HETATM   25  C   UNK N   1      27.674  20.082   4.717  0.00  0.00     0.175 C 
BRANCH  25  26
HETATM   26  C   UNK N   1      26.938  21.217   5.395  0.00  0.00     0.022 C 
HETATM   27  C   UNK N   1      26.814  20.925   6.877  0.00  0.00     0.007 C 
ENDBRANCH  25  26
ENDBRANCH  24  25
ENDBRANCH   5  24
BRANCH   1  28
HETATM   28  S   UNK N   1      25.429  14.082   7.243  0.00  0.00     0.258 S 
HETATM   29  O   UNK N   1      26.028  13.759   5.863  0.00  0.00    -0.201 OA
HETATM   30  O   UNK N   1      24.008  14.596   6.952  0.00  0.00    -0.201 OA
BRANCH  28  31
HETATM   31  N   UNK N   1      24.630  12.630   6.608  0.00  0.00    -0.315 N 
HETATM   32  H   UNK N   1      25.103  11.756   6.380  0.00  0.00     0.172 HD
BRANCH  31  33
HETATM   33  C   UNK N   1      23.200  12.867   6.459  0.00  0.00     0.134 C 
BRANCH  33  34
HETATM   34  C   UNK N   1      22.397  11.739   7.083  0.00  0.00     0.056 C 
BRANCH  34  35
HETATM   35  C   UNK N   1      21.630  12.306   8.264  0.00  0.00     0.224 C 
HETATM   36  N   UNK N   1      22.505  12.684   9.353  0.00  0.00     0.088 N 
HETATM   37  C   UNK N   1      21.675  13.565  10.164  0.00  0.00     0.272 C 
HETATM   38  C   UNK N   1      22.791  11.495  10.140  0.00  0.00     0.310 C 
HETATM   39  C   UNK N   1      20.616  14.174   9.250  0.00  0.00     0.032 C 
HETATM   40  C   UNK N   1      20.864  13.549   7.900  0.00  0.00     0.037 C 
ENDBRANCH  34  35
ENDBRANCH  33  34
ENDBRANCH  31  33
ENDBRANCH  28  31
ENDBRANCH   1  28
TORSDOF 11
ENDMDL
MODEL 8
REMARK VINA RESULT:      -6.9      4.734      7.929
REMARK  11 active torsions:
REMARK  status: ('A' for Active; 'I' for Inactive)
REMARK    1  A    between atoms: S_1  and  N_7 
REMARK    2  A    between atoms: S_1  and  C_21 
REMARK    3  A    between atoms: O_4  and  C_27 
REMARK    4  A    between atoms: O_4  and  C_35 
REMARK    5  A    between atoms: N_7  and  C_19 
REMARK    6  A    between atoms: C_14  and  C_18 
REMARK    7  A    between atoms: C_18  and  C_19 
REMARK    8  A    between atoms: C_23  and  C_26 
REMARK    9  A    between atoms: C_28  and  C_31 
REMARK   10  A    between atoms: C_31  and  C_33 
REMARK   11  A    between atoms: C_35  and  C_37 
ROOT
HETATM    1  C   UNK N   1      30.747  16.785   8.289  0.00  0.00     0.080 A 
HETATM    2  C   UNK N   1      29.779  16.408   7.341  0.00  0.00     0.043 A 
HETATM    3  C   UNK N   1      28.744  17.241   6.947  0.00  0.00     0.043 A 
HETATM    4  C   UNK N   1      30.652  18.067   8.848  0.00  0.00     0.028 A 
HETATM    5  C   UNK N   1      28.653  18.535   7.510  0.00  0.00     0.082 A 
HETATM    6  C   UNK N   1      29.620  18.933   8.461  0.00  0.00     0.039 A 
ENDROOT
BRANCH   3   7
HETATM    7  C   UNK N   1      27.804  16.666   5.963  0.00  0.00     0.121 A 
HETATM    8  N   UNK N   1      28.229  16.133   4.774  0.00  0.00    -0.338 N 
HETATM    9  C   UNK N   1      27.287  15.666   3.916  0.00  0.00     0.092 A 
HETATM   10  H   UNK N   1      29.187  16.091   4.549  0.00  0.00     0.167 HD
HETATM   11  C   UNK N   1      27.399  15.096   2.668  0.00  0.00     0.055 A 
HETATM   12  C   UNK N   1      25.959  15.704   4.187  0.00  0.00     0.147 A 
HETATM   13  N   UNK N   1      26.154  14.807   2.216  0.00  0.00    -0.300 N 
HETATM   14  N   UNK N   1      25.283  15.181   3.150  0.00  0.00    -0.289 N 
ATOM     15  HN  UNK N   1      25.924  14.379   1.319  1.00  0.00     0.187 HD
HETATM   16  C   UNK N   1      23.843  15.036   3.025  0.00  0.00     0.178 C 
HETATM   17  C   UNK N   1      25.514  16.233   5.383  0.00  0.00     0.277 A 
HETATM   18  O   UNK N   1      24.330  16.285   5.663  0.00  0.00    -0.265 OA
HETATM   19  N   UNK N   1      26.457  16.711   6.253  0.00  0.00    -0.307 N 
ATOM     20  HN  UNK N   1      26.154  17.109   7.142  1.00  0.00     0.170 HD
BRANCH  11  21
HETATM   21  C   UNK N   1      28.653  14.840   1.905  0.00  0.00     0.061 C 
BRANCH  21  22
HETATM   22  C   UNK N   1      29.196  13.465   2.235  0.00  0.00     0.002 C 
HETATM   23  C   UNK N   1      29.236  12.628   0.976  0.00  0.00     0.005 C 
ENDBRANCH  21  22
ENDBRANCH  11  21
ENDBRANCH   3   7
BRANCH   5  24
HETATM   24  O   UNK N   1      27.654  19.376   7.141  0.00  0.00    -0.350 OA
BRANCH  24  25
HETATM   25  C   UNK N   1      27.702  20.142   5.996  0.00  0.00     0.175 C 
BRANCH  25  26
HETATM   26  C   UNK N   1      27.302  21.566   6.316  0.00  0.00     0.022 C 
HETATM   27  C   UNK N   1      26.136  21.557   7.284  0.00  0.00     0.007 C 
ENDBRANCH  25  26
ENDBRANCH  24  25
ENDBRANCH   5  24
BRANCH   1  28
HETATM   28  S   UNK N   1      32.131  15.674   8.805  0.00  0.00     0.258 S 
HETATM   29  O   UNK N   1      32.665  17.083   8.491  0.00  0.00    -0.201 OA
HETATM   30  O   UNK N   1      31.775  15.067   7.437  0.00  0.00    -0.201 OA
BRANCH  28  31
HETATM   31  N   UNK N   1      33.725  15.515   8.043  0.00  0.00    -0.315 N 
HETATM   32  H   UNK N   1      34.422  14.811   8.286  0.00  0.00     0.172 HD
BRANCH  31  33
HETATM   33  C   UNK N   1      33.896  16.535   7.016  0.00  0.00     0.134 C 
BRANCH  33  34
HETATM   34  C   UNK N   1      34.462  15.933   5.742  0.00  0.00     0.056 C 
BRANCH  34  35
HETATM   35  C   UNK N   1      33.606  16.402   4.580  0.00  0.00     0.224 C 
HETATM   36  N   UNK N   1      32.837  15.322   3.998  0.00  0.00     0.088 N 
HETATM   37  C   UNK N   1      31.806  16.014   3.235  0.00  0.00     0.272 C 
HETATM   38  C   UNK N   1      33.688  14.614   3.055  0.00  0.00     0.310 C 
HETATM   39  C   UNK N   1      31.601  17.385   3.872  0.00  0.00     0.032 C 
HETATM   40  C   UNK N   1      32.604  17.444   4.997  0.00  0.00     0.037 C 
ENDBRANCH  34  35
ENDBRANCH  33  34
ENDBRANCH  31  33
ENDBRANCH  28  31
ENDBRANCH   1  28
TORSDOF 11
ENDMDL
MODEL 9
REMARK VINA RESULT:      -6.9      2.379      3.856
REMARK  11 active torsions:
REMARK  status: ('A' for Active; 'I' for Inactive)
REMARK    1  A    between atoms: S_1  and  N_7 
REMARK    2  A    between atoms: S_1  and  C_21 
REMARK    3  A    between atoms: O_4  and  C_27 
REMARK    4  A    between atoms: O_4  and  C_35 
REMARK    5  A    between atoms: N_7  and  C_19 
REMARK    6  A    between atoms: C_14  and  C_18 
REMARK    7  A    between atoms: C_18  and  C_19 
REMARK    8  A    between atoms: C_23  and  C_26 
REMARK    9  A    between atoms: C_28  and  C_31 
REMARK   10  A    between atoms: C_31  and  C_33 
REMARK   11  A    between atoms: C_35  and  C_37 
ROOT
HETATM    1  C   UNK N   1      26.426  18.852   3.953  0.00  0.00     0.080 A 
HETATM    2  C   UNK N   1      25.247  18.281   4.465  0.00  0.00     0.043 A 
HETATM    3  C   UNK N   1      23.990  18.821   4.245  0.00  0.00     0.043 A 
HETATM    4  C   UNK N   1      26.309  20.016   3.181  0.00  0.00     0.028 A 
HETATM    5  C   UNK N   1      23.874  19.993   3.462  0.00  0.00     0.082 A 
HETATM    6  C   UNK N   1      25.048  20.578   2.935  0.00  0.00     0.039 A 
ENDROOT
BRANCH   3   7
HETATM    7  C   UNK N   1      22.868  18.103   4.885  0.00  0.00     0.121 A 
HETATM    8  N   UNK N   1      22.397  16.909   4.403  0.00  0.00    -0.338 N 
HETATM    9  C   UNK N   1      21.336  16.346   5.035  0.00  0.00     0.092 A 
HETATM   10  H   UNK N   1      22.815  16.474   3.624  0.00  0.00     0.167 HD
HETATM   11  C   UNK N   1      20.645  15.182   4.784  0.00  0.00     0.055 A 
HETATM   12  C   UNK N   1      20.733  16.909   6.110  0.00  0.00     0.147 A 
HETATM   13  N   UNK N   1      19.651  15.068   5.701  0.00  0.00    -0.300 N 
HETATM   14  N   UNK N   1      19.715  16.126   6.504  0.00  0.00    -0.289 N 
ATOM     15  HN  UNK N   1      18.975  14.307   5.763  1.00  0.00     0.187 HD
HETATM   16  C   UNK N   1      18.805  16.363   7.613  0.00  0.00     0.178 C 
HETATM   17  C   UNK N   1      21.199  18.110   6.611  0.00  0.00     0.277 A 
HETATM   18  O   UNK N   1      20.685  18.647   7.575  0.00  0.00    -0.265 OA
HETATM   19  N   UNK N   1      22.267  18.688   5.978  0.00  0.00    -0.307 N 
ATOM     20  HN  UNK N   1      22.627  19.576   6.326  1.00  0.00     0.170 HD
BRANCH  11  21
HETATM   21  C   UNK N   1      20.903  14.199   3.695  0.00  0.00     0.061 C 
BRANCH  21  22
HETATM   22  C   UNK N   1      20.355  14.717   2.381  0.00  0.00     0.002 C 
HETATM   23  C   UNK N   1      19.203  13.841   1.940  0.00  0.00     0.005 C 
ENDBRANCH  21  22
ENDBRANCH  11  21
ENDBRANCH   3   7
BRANCH   5  24
HETATM   24  O   UNK N   1      22.656  20.542   3.224  0.00  0.00    -0.350 OA
BRANCH  24  25
HETATM   25  C   UNK N   1      21.826  20.116   2.210  0.00  0.00     0.175 C 
BRANCH  25  26
HETATM   26  C   UNK N   1      20.399  20.056   2.710  0.00  0.00     0.022 C 
HETATM   27  C   UNK N   1      19.871  18.643   2.562  0.00  0.00     0.007 C 
ENDBRANCH  25  26
ENDBRANCH  24  25
ENDBRANCH   5  24
BRANCH   1  28
HETATM   28  S   UNK N   1      28.100  18.124   4.242  0.00  0.00     0.258 S 
HETATM   29  O   UNK N   1      27.093  17.571   5.266  0.00  0.00    -0.201 OA
HETATM   30  O   UNK N   1      28.348  19.581   4.671  0.00  0.00    -0.201 OA
BRANCH  28  31
HETATM   31  N   UNK N   1      28.932  17.919   5.796  0.00  0.00    -0.315 N 
HETATM   32  H   UNK N   1      28.811  18.523   6.608  0.00  0.00     0.172 HD
BRANCH  31  33
HETATM   33  C   UNK N   1      29.812  16.759   5.746  0.00  0.00     0.134 C 
BRANCH  33  34
HETATM   34  C   UNK N   1      31.178  17.090   6.323  0.00  0.00     0.056 C 
BRANCH  34  35
HETATM   35  C   UNK N   1      32.226  16.738   5.283  0.00  0.00     0.224 C 
HETATM   36  N   UNK N   1      32.110  15.367   4.834  0.00  0.00     0.088 N 
HETATM   37  C   UNK N   1      32.868  15.354   3.590  0.00  0.00     0.272 C 
HETATM   38  C   UNK N   1      32.803  14.516   5.787  0.00  0.00     0.310 C 
HETATM   39  C   UNK N   1      32.864  16.772   3.030  0.00  0.00     0.032 C 
HETATM   40  C   UNK N   1      32.108  17.589   4.049  0.00  0.00     0.037 C 
ENDBRANCH  34  35
ENDBRANCH  33  34
ENDBRANCH  31  33
ENDBRANCH  28  31
ENDBRANCH   1  28
TORSDOF 11
ENDMDL
