MODEL 1
REMARK VINA RESULT:     -26.3      0.000      0.000
REMARK  16 active torsions:
REMARK  status: ('A' for Active; 'I' for Inactive)
REMARK    1  A    between atoms: O_105  and  C_65 
REMARK    2  A    between atoms: C_65  and  O_114 
REMARK    3  A    between atoms: O_106  and  C_66 
REMARK    4  A    between atoms: C_66  and  O_113 
REMARK    5  A    between atoms: O_107  and  C_67 
REMARK    6  A    between atoms: C_67  and  O_116 
REMARK    7  A    between atoms: O_108  and  C_68 
REMARK    8  A    between atoms: C_68  and  O_115 
REMARK    9  A    between atoms: O_109  and  C_69 
REMARK   10  A    between atoms: C_69  and  O_118 
REMARK   11  A    between atoms: O_110  and  C_70 
REMARK   12  A    between atoms: C_70  and  O_117 
REMARK   13  A    between atoms: O_111  and  C_71 
REMARK   14  A    between atoms: C_71  and  O_120 
REMARK   15  A    between atoms: O_112  and  C_72 
REMARK   16  A    between atoms: C_72  and  O_119 
ROOT
HETATM    1  C   UNK N   1      32.395  15.373   5.761  0.00  0.00     0.120 A 
HETATM    2  C   UNK N   1      30.117  15.851   5.627  0.00  0.00     0.120 A 
HETATM    3  C   UNK N   1      39.229  14.211   6.529  0.00  0.00     0.120 A 
HETATM    4  C   UNK N   1      31.723  16.839   7.506  0.00  0.00     0.120 A 
HETATM    5  C   UNK N   1      31.369  13.139   2.401  0.00  0.00     0.120 A 
HETATM    6  C   UNK N   1      23.848  15.760   3.364  0.00  0.00     0.120 A 
HETATM    7  C   UNK N   1      33.086  14.070   4.242  0.00  0.00     0.120 A 
HETATM    8  C   UNK N   1      30.729  14.665   4.238  0.00  0.00     0.120 A 
HETATM    9  C   UNK N   1      33.125  15.117   5.665  0.00  0.00     0.084 A 
HETATM   10  C   UNK N   1      30.703  16.053   6.100  0.00  0.00     0.084 A 
HETATM   11  C   UNK N   1      38.558  14.030   6.056  0.00  0.00     0.084 A 
HETATM   12  C   UNK N   1      30.950  16.819   7.216  0.00  0.00     0.084 A 
HETATM   13  C   UNK N   1      32.138  13.156   2.687  0.00  0.00     0.084 A 
HETATM   14  C   UNK N   1      24.519  15.941   3.837  0.00  0.00     0.084 A 
HETATM   15  C   UNK N   1      32.411  13.945   3.843  0.00  0.00     0.084 A 
HETATM   16  C   UNK N   1      30.001  14.789   4.157  0.00  0.00     0.084 A 
HETATM   17  C   UNK N   1      33.937  15.743   6.786  0.00  0.00     0.108 A 
HETATM   18  C   UNK N   1      31.541  16.588   7.106  0.00  0.00     0.108 A 
HETATM   19  C   UNK N   1      37.064  14.260   5.856  0.00  0.00     0.108 A 
HETATM   20  C   UNK N   1      29.541  16.766   6.663  0.00  0.00     0.108 A 
HETATM   21  C   UNK N   1      33.516  13.233   3.261  0.00  0.00     0.108 A 
HETATM   22  C   UNK N   1      26.013  15.711   4.037  0.00  0.00     0.108 A 
HETATM   23  C   UNK N   1      31.555  13.389   2.802  0.00  0.00     0.108 A 
HETATM   24  C   UNK N   1      29.108  14.205   3.065  0.00  0.00     0.108 A 
HETATM   25  C   UNK N   1      33.637  16.238   7.351  0.00  0.00     0.165 A 
HETATM   26  C   UNK N   1      31.167  17.078   7.638  0.00  0.00     0.165 A 
HETATM   27  C   UNK N   1      36.258  14.516   5.926  0.00  0.00     0.165 A 
HETATM   28  C   UNK N   1      28.915  16.691   6.348  0.00  0.00     0.165 A 
HETATM   29  C   UNK N   1      34.162  13.280   3.545  0.00  0.00     0.165 A 
HETATM   30  C   UNK N   1      26.819  15.455   3.967  0.00  0.00     0.165 A 
HETATM   31  C   UNK N   1      31.910  12.893   2.255  0.00  0.00     0.165 A 
HETATM   32  C   UNK N   1      29.440  13.733   2.542  0.00  0.00     0.165 A 
HETATM   33  C   UNK N   1      32.044  14.908   5.014  0.00  0.00     0.140 A 
HETATM   34  C   UNK N   1      29.348  16.008   5.577  0.00  0.00     0.140 A 
HETATM   35  C   UNK N   1      39.976  13.877   6.335  0.00  0.00     0.140 A 
HETATM   36  C   UNK N   1      32.060  16.326   6.931  0.00  0.00     0.140 A 
HETATM   37  C   UNK N   1      31.036  13.648   2.973  0.00  0.00     0.140 A 
HETATM   38  C   UNK N   1      23.101  16.094   3.558  0.00  0.00     0.140 A 
HETATM   39  C   UNK N   1      33.919  14.023   4.463  0.00  0.00     0.140 A 
HETATM   40  C   UNK N   1      30.993  15.107   4.925  0.00  0.00     0.140 A 
HETATM   41  C   UNK N   1      34.525  16.741   8.331  0.00  0.00     0.183 A 
HETATM   42  C   UNK N   1      34.878  14.666   5.656  0.00  0.00     0.183 A 
HETATM   43  C   UNK N   1      31.042  17.937   8.754  0.00  0.00     0.183 A 
HETATM   44  C   UNK N   1      35.226  12.566   2.947  0.00  0.00     0.183 A 
HETATM   45  C   UNK N   1      27.851  17.405   6.946  0.00  0.00     0.183 A 
HETATM   46  C   UNK N   1      32.035  12.034   1.140  0.00  0.00     0.183 A 
HETATM   47  C   UNK N   1      28.198  15.306   4.237  0.00  0.00     0.183 A 
HETATM   48  C   UNK N   1      28.552  13.230   1.562  0.00  0.00     0.183 A 
HETATM   49  C   UNK N   1      33.906  17.155   8.678  0.00  0.00     0.204 A 
HETATM   50  C   UNK N   1      34.805  15.160   6.297  0.00  0.00     0.204 A 
HETATM   51  C   UNK N   1      30.240  18.024   8.596  0.00  0.00     0.204 A 
HETATM   52  C   UNK N   1      35.741  12.858   3.516  0.00  0.00     0.204 A 
HETATM   53  C   UNK N   1      27.336  17.113   6.377  0.00  0.00     0.204 A 
HETATM   54  C   UNK N   1      32.837  11.947   1.297  0.00  0.00     0.204 A 
HETATM   55  C   UNK N   1      28.271  14.811   3.596  0.00  0.00     0.204 A 
HETATM   56  C   UNK N   1      29.171  12.816   1.215  0.00  0.00     0.204 A 
HETATM   57  C   UNK N   1      34.402  16.274   7.660  0.00  0.00     0.185 A 
HETATM   58  C   UNK N   1      31.522  17.461   8.276  0.00  0.00     0.185 A 
HETATM   59  C   UNK N   1      35.604  14.331   5.453  0.00  0.00     0.185 A 
HETATM   60  C   UNK N   1      28.651  17.199   6.943  0.00  0.00     0.185 A 
HETATM   61  C   UNK N   1      34.426  12.772   2.950  0.00  0.00     0.185 A 
HETATM   62  C   UNK N   1      27.473  15.640   4.440  0.00  0.00     0.185 A 
HETATM   63  C   UNK N   1      31.555  12.510   1.617  0.00  0.00     0.185 A 
HETATM   64  C   UNK N   1      28.675  13.697   2.233  0.00  0.00     0.185 A 
HETATM   65  C   UNK N   1      33.138  17.117   8.363  0.00  0.00     0.292 A 
HETATM   66  C   UNK N   1      35.451  15.350   6.773  0.00  0.00     0.292 A 
HETATM   67  C   UNK N   1      29.888  17.635   7.952  0.00  0.00     0.292 A 
HETATM   68  C   UNK N   1      35.471  13.370   4.113  0.00  0.00     0.292 A 
HETATM   69  C   UNK N   1      27.605  16.601   5.780  0.00  0.00     0.292 A 
HETATM   70  C   UNK N   1      33.188  12.336   1.941  0.00  0.00     0.292 A 
HETATM   71  C   UNK N   1      27.626  14.621   3.120  0.00  0.00     0.292 A 
HETATM   72  C   UNK N   1      29.939  12.855   1.530  0.00  0.00     0.292 A 
HETATM   73  O   UNK N   1      31.377  14.792   4.631  0.00  0.00    -0.650 OA
HETATM   74  O   UNK N   1      32.485  14.445   4.541  0.00  0.00    -0.776 OA
HETATM   75  O   UNK N   1      28.855  16.404   5.941  0.00  0.00    -0.650 OA
HETATM   76  O   UNK N   1      28.930  15.723   5.049  0.00  0.00    -0.776 OA
HETATM   77  O   UNK N   1      40.114  13.365   5.692  0.00  0.00    -0.650 OA
HETATM   78  O   UNK N   1      40.629  14.067   6.812  0.00  0.00    -0.776 OA
HETATM   79  O   UNK N   1      31.787  15.890   6.249  0.00  0.00    -0.650 OA
HETATM   80  O   UNK N   1      32.815  16.286   7.134  0.00  0.00    -0.776 OA
HETATM   81  O   UNK N   1      31.336  14.064   3.636  0.00  0.00    -0.650 OA
HETATM   82  O   UNK N   1      30.288  13.673   2.751  0.00  0.00    -0.776 OA
HETATM   83  O   UNK N   1      22.962  16.606   4.201  0.00  0.00    -0.650 OA
HETATM   84  O   UNK N   1      22.448  15.904   3.081  0.00  0.00    -0.776 OA
HETATM   85  O   UNK N   1      34.217  13.568   3.952  0.00  0.00    -0.650 OA
HETATM   86  O   UNK N   1      34.437  14.323   5.044  0.00  0.00    -0.776 OA
HETATM   87  O   UNK N   1      31.617  15.228   5.300  0.00  0.00    -0.650 OA
HETATM   88  O   UNK N   1      30.539  15.539   5.351  0.00  0.00    -0.776 OA
HETATM   89  O   UNK N   1      35.240  16.880   8.762  0.00  0.00    -0.390 OA
HETATM   90  O   UNK N   1      34.281  14.735   5.546  0.00  0.00    -0.390 OA
HETATM   91  O   UNK N   1      31.239  18.395   9.437  0.00  0.00    -0.390 OA
HETATM   92  O   UNK N   1      35.639  12.060   2.406  0.00  0.00    -0.390 OA
HETATM   93  O   UNK N   1      27.438  17.911   7.487  0.00  0.00    -0.390 OA
HETATM   94  O   UNK N   1      31.837  11.576   0.456  0.00  0.00    -0.390 OA
HETATM   95  O   UNK N   1      28.434  15.675   4.816  0.00  0.00    -0.390 OA
HETATM   96  O   UNK N   1      27.837  13.091   1.131  0.00  0.00    -0.390 OA
HETATM   97  O   UNK N   1      34.072  17.622   9.362  0.00  0.00    -0.388 OA
HETATM   98  O   UNK N   1      34.870  15.562   6.861  0.00  0.00    -0.388 OA
HETATM   99  O   UNK N   1      29.786  18.520   9.109  0.00  0.00    -0.388 OA
HETATM  100  O   UNK N   1      36.548  12.607   3.453  0.00  0.00    -0.388 OA
HETATM  101  O   UNK N   1      26.529  17.364   6.440  0.00  0.00    -0.388 OA
HETATM  102  O   UNK N   1      33.294  11.453   0.787  0.00  0.00    -0.388 OA
HETATM  103  O   UNK N   1      28.179  14.417   3.033  0.00  0.00    -0.388 OA
HETATM  104  O   UNK N   1      29.005  12.350   0.531  0.00  0.00    -0.388 OA
HETATM  105  O   UNK N   1      33.025  16.649   7.695  0.00  0.00    -0.350 OA
HETATM  106  O   UNK N   1      36.185  15.016   6.574  0.00  0.00    -0.350 OA
HETATM  107  O   UNK N   1      30.373  17.163   7.482  0.00  0.00    -0.350 OA
HETATM  108  O   UNK N   1      34.673  13.569   4.109  0.00  0.00    -0.350 OA
HETATM  109  O   UNK N   1      28.404  16.402   5.784  0.00  0.00    -0.350 OA
HETATM  110  O   UNK N   1      32.703  12.808   2.411  0.00  0.00    -0.350 OA
HETATM  111  O   UNK N   1      26.892  14.955   3.319  0.00  0.00    -0.350 OA
HETATM  112  O   UNK N   1      30.052  13.322   2.198  0.00  0.00    -0.350 OA
HETATM  113  O   UNK N   1      35.039  15.851   7.307  0.00  0.00    -0.348 OA
HETATM  114  O   UNK N   1      32.343  17.376   8.442  0.00  0.00    -0.348 OA
HETATM  115  O   UNK N   1      35.685  13.818   4.790  0.00  0.00    -0.348 OA
HETATM  116  O   UNK N   1      29.176  17.501   7.528  0.00  0.00    -0.348 OA
HETATM  117  O   UNK N   1      33.901  12.470   2.365  0.00  0.00    -0.348 OA
HETATM  118  O   UNK N   1      27.392  16.153   5.103  0.00  0.00    -0.348 OA
HETATM  119  O   UNK N   1      30.734  12.595   1.451  0.00  0.00    -0.348 OA
HETATM  120  O   UNK N   1      28.038  14.120   2.586  0.00  0.00    -0.348 OA
HETATM  121  S   UNK N   1      33.593  15.392   6.196  0.00  0.00    -0.166 SA
HETATM  122  S   UNK N   1      31.407  16.170   6.497  0.00  0.00    -0.166 SA
HETATM  123  S   UNK N   1      37.807  14.354   6.236  0.00  0.00    -0.166 SA
HETATM  124  S   UNK N   1      30.204  16.855   7.009  0.00  0.00    -0.166 SA
HETATM  125  S   UNK N   1      32.880  13.116   2.886  0.00  0.00    -0.166 SA
HETATM  126  S   UNK N   1      25.270  15.617   3.658  0.00  0.00    -0.166 SA
HETATM  127  S   UNK N   1      31.727  13.796   3.408  0.00  0.00    -0.166 SA
HETATM  128  S   UNK N   1      29.556  14.492   3.605  0.00  0.00    -0.166 SA
HETATM  129  H   UNK N   1      33.401  14.338   4.711  0.00  0.00     0.167 HD
HETATM  130  H   UNK N   1      29.307  15.152   4.409  0.00  0.00     0.167 HD
HETATM  131  H   UNK N   1      40.521  14.639   7.546  0.00  0.00     0.167 HD
HETATM  132  H   UNK N   1      33.124  16.762   7.881  0.00  0.00     0.167 HD
HETATM  133  H   UNK N   1      30.006  13.187   2.001  0.00  0.00     0.167 HD
HETATM  134  H   UNK N   1      22.555  15.332   2.346  0.00  0.00     0.167 HD
HETATM  135  H   UNK N   1      34.114  14.898   5.708  0.00  0.00     0.167 HD
HETATM  136  H   UNK N   1      29.629  15.614   5.141  0.00  0.00     0.167 HD
HETATM  137  H   UNK N   1      35.232  17.459   9.540  0.00  0.00     0.210 HD
HETATM  138  H   UNK N   1      33.871  14.281   4.794  0.00  0.00     0.210 HD
HETATM  139  H   UNK N   1      30.553  18.908   9.893  0.00  0.00     0.210 HD
HETATM  140  H   UNK N   1      36.590  11.903   2.519  0.00  0.00     0.210 HD
HETATM  141  H   UNK N   1      26.487  18.069   7.375  0.00  0.00     0.210 HD
HETATM  142  H   UNK N   1      32.523  11.064  -0.000  0.00  0.00     0.210 HD
HETATM  143  H   UNK N   1      27.815  16.215   5.331  0.00  0.00     0.210 HD
HETATM  144  H   UNK N   1      27.846  12.511   0.353  0.00  0.00     0.210 HD
HETATM  145  H   UNK N   1      33.360  18.121   9.792  0.00  0.00     0.210 HD
HETATM  146  H   UNK N   1      34.094  16.024   7.218  0.00  0.00     0.210 HD
HETATM  147  H   UNK N   1      28.837  18.642   8.949  0.00  0.00     0.210 HD
HETATM  148  H   UNK N   1      37.205  12.917   4.095  0.00  0.00     0.210 HD
HETATM  149  H   UNK N   1      25.872  17.054   5.798  0.00  0.00     0.210 HD
HETATM  150  H   UNK N   1      34.243  11.335   0.952  0.00  0.00     0.210 HD
HETATM  151  H   UNK N   1      28.928  13.939   2.646  0.00  0.00     0.210 HD
HETATM  152  H   UNK N   1      29.717  11.850   0.101  0.00  0.00     0.210 HD
ENDROOT
TORSDOF 16
ENDMDL
MODEL 2
REMARK VINA RESULT:     -26.2      0.093      8.907
REMARK  16 active torsions:
REMARK  status: ('A' for Active; 'I' for Inactive)
REMARK    1  A    between atoms: O_105  and  C_65 
REMARK    2  A    between atoms: C_65  and  O_114 
REMARK    3  A    between atoms: O_106  and  C_66 
REMARK    4  A    between atoms: C_66  and  O_113 
REMARK    5  A    between atoms: O_107  and  C_67 
REMARK    6  A    between atoms: C_67  and  O_116 
REMARK    7  A    between atoms: O_108  and  C_68 
REMARK    8  A    between atoms: C_68  and  O_115 
REMARK    9  A    between atoms: O_109  and  C_69 
REMARK   10  A    between atoms: C_69  and  O_118 
REMARK   11  A    between atoms: O_110  and  C_70 
REMARK   12  A    between atoms: C_70  and  O_117 
REMARK   13  A    between atoms: O_111  and  C_71 
REMARK   14  A    between atoms: C_71  and  O_120 
REMARK   15  A    between atoms: O_112  and  C_72 
REMARK   16  A    between atoms: C_72  and  O_119 
ROOT
HETATM    1  C   UNK N   1      30.689  14.595   4.132  0.00  0.00     0.120 A 
HETATM    2  C   UNK N   1      32.968  14.122   4.266  0.00  0.00     0.120 A 
HETATM    3  C   UNK N   1      23.852  15.742   3.364  0.00  0.00     0.120 A 
HETATM    4  C   UNK N   1      31.365  13.130   2.387  0.00  0.00     0.120 A 
HETATM    5  C   UNK N   1      31.711  16.832   7.492  0.00  0.00     0.120 A 
HETATM    6  C   UNK N   1      39.237  14.227   6.529  0.00  0.00     0.120 A 
HETATM    7  C   UNK N   1      29.996  15.896   5.651  0.00  0.00     0.120 A 
HETATM    8  C   UNK N   1      32.354  15.307   5.655  0.00  0.00     0.120 A 
HETATM    9  C   UNK N   1      29.958  14.850   4.228  0.00  0.00     0.084 A 
HETATM   10  C   UNK N   1      32.383  13.919   3.793  0.00  0.00     0.084 A 
HETATM   11  C   UNK N   1      24.523  15.924   3.837  0.00  0.00     0.084 A 
HETATM   12  C   UNK N   1      32.137  13.152   2.677  0.00  0.00     0.084 A 
HETATM   13  C   UNK N   1      30.941  16.813   7.206  0.00  0.00     0.084 A 
HETATM   14  C   UNK N   1      38.567  14.045   6.056  0.00  0.00     0.084 A 
HETATM   15  C   UNK N   1      30.670  16.023   6.051  0.00  0.00     0.084 A 
HETATM   16  C   UNK N   1      33.082  15.184   5.736  0.00  0.00     0.084 A 
HETATM   17  C   UNK N   1      29.149  14.221   3.107  0.00  0.00     0.108 A 
HETATM   18  C   UNK N   1      31.546  13.382   2.787  0.00  0.00     0.108 A 
HETATM   19  C   UNK N   1      26.018  15.697   4.037  0.00  0.00     0.108 A 
HETATM   20  C   UNK N   1      33.547  13.208   3.230  0.00  0.00     0.108 A 
HETATM   21  C   UNK N   1      29.563  16.732   6.632  0.00  0.00     0.108 A 
HETATM   22  C   UNK N   1      37.072  14.271   5.856  0.00  0.00     0.108 A 
HETATM   23  C   UNK N   1      31.524  16.581   7.091  0.00  0.00     0.108 A 
HETATM   24  C   UNK N   1      33.974  15.770   6.828  0.00  0.00     0.108 A 
HETATM   25  C   UNK N   1      29.449  13.727   2.542  0.00  0.00     0.165 A 
HETATM   26  C   UNK N   1      31.921  12.893   2.255  0.00  0.00     0.165 A 
HETATM   27  C   UNK N   1      26.824  15.443   3.967  0.00  0.00     0.165 A 
HETATM   28  C   UNK N   1      34.172  13.285   3.545  0.00  0.00     0.165 A 
HETATM   29  C   UNK N   1      28.918  16.684   6.348  0.00  0.00     0.165 A 
HETATM   30  C   UNK N   1      36.266  14.526   5.926  0.00  0.00     0.165 A 
HETATM   31  C   UNK N   1      31.169  17.076   7.638  0.00  0.00     0.165 A 
HETATM   32  C   UNK N   1      33.641  16.242   7.351  0.00  0.00     0.165 A 
HETATM   33  C   UNK N   1      31.040  15.061   4.879  0.00  0.00     0.140 A 
HETATM   34  C   UNK N   1      33.737  13.966   4.316  0.00  0.00     0.140 A 
HETATM   35  C   UNK N   1      23.105  16.074   3.558  0.00  0.00     0.140 A 
HETATM   36  C   UNK N   1      31.026  13.643   2.962  0.00  0.00     0.140 A 
HETATM   37  C   UNK N   1      32.045  16.323   6.920  0.00  0.00     0.140 A 
HETATM   38  C   UNK N   1      39.985  13.895   6.335  0.00  0.00     0.140 A 
HETATM   39  C   UNK N   1      29.163  15.941   5.430  0.00  0.00     0.140 A 
HETATM   40  C   UNK N   1      32.091  14.864   4.969  0.00  0.00     0.140 A 
HETATM   41  C   UNK N   1      28.562  13.222   1.562  0.00  0.00     0.183 A 
HETATM   42  C   UNK N   1      28.204  15.297   4.237  0.00  0.00     0.183 A 
HETATM   43  C   UNK N   1      32.048  12.034   1.140  0.00  0.00     0.183 A 
HETATM   44  C   UNK N   1      27.852  17.395   6.946  0.00  0.00     0.183 A 
HETATM   45  C   UNK N   1      35.238  12.573   2.947  0.00  0.00     0.183 A 
HETATM   46  C   UNK N   1      31.042  17.935   8.754  0.00  0.00     0.183 A 
HETATM   47  C   UNK N   1      34.886  14.672   5.656  0.00  0.00     0.183 A 
HETATM   48  C   UNK N   1      34.527  16.746   8.331  0.00  0.00     0.183 A 
HETATM   49  C   UNK N   1      29.182  12.809   1.215  0.00  0.00     0.204 A 
HETATM   50  C   UNK N   1      28.278  14.802   3.596  0.00  0.00     0.204 A 
HETATM   51  C   UNK N   1      32.850  11.949   1.297  0.00  0.00     0.204 A 
HETATM   52  C   UNK N   1      27.337  17.102   6.377  0.00  0.00     0.204 A 
HETATM   53  C   UNK N   1      35.753  12.867   3.516  0.00  0.00     0.204 A 
HETATM   54  C   UNK N   1      30.240  18.020   8.596  0.00  0.00     0.204 A 
HETATM   55  C   UNK N   1      34.812  15.167   6.297  0.00  0.00     0.204 A 
HETATM   56  C   UNK N   1      33.908  17.159   8.678  0.00  0.00     0.204 A 
HETATM   57  C   UNK N   1      28.684  13.690   2.233  0.00  0.00     0.185 A 
HETATM   58  C   UNK N   1      31.567  12.509   1.617  0.00  0.00     0.185 A 
HETATM   59  C   UNK N   1      27.478  15.630   4.440  0.00  0.00     0.185 A 
HETATM   60  C   UNK N   1      34.437  12.777   2.950  0.00  0.00     0.185 A 
HETATM   61  C   UNK N   1      28.653  17.192   6.943  0.00  0.00     0.185 A 
HETATM   62  C   UNK N   1      35.612  14.339   5.453  0.00  0.00     0.185 A 
HETATM   63  C   UNK N   1      31.523  17.460   8.276  0.00  0.00     0.185 A 
HETATM   64  C   UNK N   1      34.406  16.279   7.660  0.00  0.00     0.185 A 
HETATM   65  C   UNK N   1      29.950  12.850   1.530  0.00  0.00     0.292 A 
HETATM   66  C   UNK N   1      27.633  14.611   3.120  0.00  0.00     0.292 A 
HETATM   67  C   UNK N   1      33.201  12.338   1.941  0.00  0.00     0.292 A 
HETATM   68  C   UNK N   1      27.608  16.591   5.780  0.00  0.00     0.292 A 
HETATM   69  C   UNK N   1      35.482  13.378   4.113  0.00  0.00     0.292 A 
HETATM   70  C   UNK N   1      29.889  17.630   7.952  0.00  0.00     0.292 A 
HETATM   71  C   UNK N   1      35.457  15.358   6.773  0.00  0.00     0.292 A 
HETATM   72  C   UNK N   1      33.140  17.119   8.363  0.00  0.00     0.292 A 
HETATM   73  O   UNK N   1      31.706  15.178   5.262  0.00  0.00    -0.650 OA
HETATM   74  O   UNK N   1      30.597  15.523   5.352  0.00  0.00    -0.776 OA
HETATM   75  O   UNK N   1      34.232  13.572   3.952  0.00  0.00    -0.650 OA
HETATM   76  O   UNK N   1      34.155  14.253   4.844  0.00  0.00    -0.776 OA
HETATM   77  O   UNK N   1      22.965  16.586   4.201  0.00  0.00    -0.650 OA
HETATM   78  O   UNK N   1      22.453  15.883   3.081  0.00  0.00    -0.776 OA
HETATM   79  O   UNK N   1      31.298  14.080   3.644  0.00  0.00    -0.650 OA
HETATM   80  O   UNK N   1      30.271  13.681   2.759  0.00  0.00    -0.776 OA
HETATM   81  O   UNK N   1      31.745  15.907   6.257  0.00  0.00    -0.650 OA
HETATM   82  O   UNK N   1      32.792  16.300   7.142  0.00  0.00    -0.776 OA
HETATM   83  O   UNK N   1      40.125  13.383   5.692  0.00  0.00    -0.650 OA
HETATM   84  O   UNK N   1      40.637  14.086   6.813  0.00  0.00    -0.776 OA
HETATM   85  O   UNK N   1      28.863  16.396   5.941  0.00  0.00    -0.650 OA
HETATM   86  O   UNK N   1      28.645  15.641   4.849  0.00  0.00    -0.776 OA
HETATM   87  O   UNK N   1      31.467  14.742   4.593  0.00  0.00    -0.650 OA
HETATM   88  O   UNK N   1      32.546  14.433   4.542  0.00  0.00    -0.776 OA
HETATM   89  O   UNK N   1      27.848  13.082   1.131  0.00  0.00    -0.390 OA
HETATM   90  O   UNK N   1      28.801  15.229   4.347  0.00  0.00    -0.390 OA
HETATM   91  O   UNK N   1      31.852  11.575   0.456  0.00  0.00    -0.390 OA
HETATM   92  O   UNK N   1      27.438  17.901   7.487  0.00  0.00    -0.390 OA
HETATM   93  O   UNK N   1      35.652  12.068   2.406  0.00  0.00    -0.390 OA
HETATM   94  O   UNK N   1      31.238  18.394   9.437  0.00  0.00    -0.390 OA
HETATM   95  O   UNK N   1      34.651  14.302   5.077  0.00  0.00    -0.390 OA
HETATM   96  O   UNK N   1      35.242  16.887   8.762  0.00  0.00    -0.390 OA
HETATM   97  O   UNK N   1      29.017  12.343   0.531  0.00  0.00    -0.388 OA
HETATM   98  O   UNK N   1      28.215  14.400   3.032  0.00  0.00    -0.388 OA
HETATM   99  O   UNK N   1      33.305  11.454   0.784  0.00  0.00    -0.388 OA
HETATM  100  O   UNK N   1      26.530  17.352   6.440  0.00  0.00    -0.388 OA
HETATM  101  O   UNK N   1      36.560  12.617   3.453  0.00  0.00    -0.388 OA
HETATM  102  O   UNK N   1      29.781  18.513   9.106  0.00  0.00    -0.388 OA
HETATM  103  O   UNK N   1      34.903  15.561   6.860  0.00  0.00    -0.388 OA
HETATM  104  O   UNK N   1      34.073  17.626   9.362  0.00  0.00    -0.388 OA
HETATM  105  O   UNK N   1      30.062  13.317   2.198  0.00  0.00    -0.350 OA
HETATM  106  O   UNK N   1      26.899  14.943   3.319  0.00  0.00    -0.350 OA
HETATM  107  O   UNK N   1      32.715  12.809   2.411  0.00  0.00    -0.350 OA
HETATM  108  O   UNK N   1      28.407  16.394   5.784  0.00  0.00    -0.350 OA
HETATM  109  O   UNK N   1      34.682  13.575   4.109  0.00  0.00    -0.350 OA
HETATM  110  O   UNK N   1      30.375  17.160   7.482  0.00  0.00    -0.350 OA
HETATM  111  O   UNK N   1      36.191  15.025   6.574  0.00  0.00    -0.350 OA
HETATM  112  O   UNK N   1      33.028  16.651   7.695  0.00  0.00    -0.350 OA
HETATM  113  O   UNK N   1      28.046  14.112   2.586  0.00  0.00    -0.348 OA
HETATM  114  O   UNK N   1      30.746  12.592   1.451  0.00  0.00    -0.348 OA
HETATM  115  O   UNK N   1      27.396  16.142   5.103  0.00  0.00    -0.348 OA
HETATM  116  O   UNK N   1      33.913  12.474   2.365  0.00  0.00    -0.348 OA
HETATM  117  O   UNK N   1      29.177  17.495   7.528  0.00  0.00    -0.348 OA
HETATM  118  O   UNK N   1      35.694  13.827   4.790  0.00  0.00    -0.348 OA
HETATM  119  O   UNK N   1      32.344  17.377   8.442  0.00  0.00    -0.348 OA
HETATM  120  O   UNK N   1      35.044  15.857   7.307  0.00  0.00    -0.348 OA
HETATM  121  S   UNK N   1      29.491  14.573   3.697  0.00  0.00    -0.166 SA
HETATM  122  S   UNK N   1      31.679  13.800   3.396  0.00  0.00    -0.166 SA
HETATM  123  S   UNK N   1      25.275  15.602   3.658  0.00  0.00    -0.166 SA
HETATM  124  S   UNK N   1      32.883  13.118   2.884  0.00  0.00    -0.166 SA
HETATM  125  S   UNK N   1      30.200  16.851   7.007  0.00  0.00    -0.166 SA
HETATM  126  S   UNK N   1      37.815  14.367   6.236  0.00  0.00    -0.166 SA
HETATM  127  S   UNK N   1      31.354  16.174   6.485  0.00  0.00    -0.166 SA
HETATM  128  S   UNK N   1      33.526  15.482   6.288  0.00  0.00    -0.166 SA
HETATM  129  H   UNK N   1      29.681  15.627   5.182  0.00  0.00     0.167 HD
HETATM  130  H   UNK N   1      33.777  14.823   5.484  0.00  0.00     0.167 HD
HETATM  131  H   UNK N   1      22.561  15.311   2.347  0.00  0.00     0.167 HD
HETATM  132  H   UNK N   1      29.964  13.205   2.013  0.00  0.00     0.167 HD
HETATM  133  H   UNK N   1      33.074  16.786   7.892  0.00  0.00     0.167 HD
HETATM  134  H   UNK N   1      40.529  14.658   7.547  0.00  0.00     0.167 HD
HETATM  135  H   UNK N   1      28.969  15.066   4.185  0.00  0.00     0.167 HD
HETATM  136  H   UNK N   1      33.456  14.361   4.752  0.00  0.00     0.167 HD
HETATM  137  H   UNK N   1      27.857  12.502   0.353  0.00  0.00     0.210 HD
HETATM  138  H   UNK N   1      29.211  15.684   5.099  0.00  0.00     0.210 HD
HETATM  139  H   UNK N   1      32.539  11.064  -0.000  0.00  0.00     0.210 HD
HETATM  140  H   UNK N   1      26.487  18.056   7.374  0.00  0.00     0.210 HD
HETATM  141  H   UNK N   1      36.604  11.912   2.518  0.00  0.00     0.210 HD
HETATM  142  H   UNK N   1      30.552  18.904   9.893  0.00  0.00     0.210 HD
HETATM  143  H   UNK N   1      35.271  13.763   4.562  0.00  0.00     0.210 HD
HETATM  144  H   UNK N   1      35.232  17.467   9.540  0.00  0.00     0.210 HD
HETATM  145  H   UNK N   1      29.730  11.845   0.101  0.00  0.00     0.210 HD
HETATM  146  H   UNK N   1      28.992  13.941   2.675  0.00  0.00     0.210 HD
HETATM  147  H   UNK N   1      34.255  11.334   0.944  0.00  0.00     0.210 HD
HETATM  148  H   UNK N   1      25.874  17.040   5.798  0.00  0.00     0.210 HD
HETATM  149  H   UNK N   1      37.216  12.928   4.095  0.00  0.00     0.210 HD
HETATM  150  H   UNK N   1      28.832  18.629   8.941  0.00  0.00     0.210 HD
HETATM  151  H   UNK N   1      34.153  16.037   7.248  0.00  0.00     0.210 HD
HETATM  152  H   UNK N   1      33.360  18.124   9.792  0.00  0.00     0.210 HD
ENDROOT
TORSDOF 16
ENDMDL
MODEL 3
REMARK VINA RESULT:     -25.8      2.076      5.778
REMARK  16 active torsions:
REMARK  status: ('A' for Active; 'I' for Inactive)
REMARK    1  A    between atoms: O_105  and  C_65 
REMARK    2  A    between atoms: C_65  and  O_114 
REMARK    3  A    between atoms: O_106  and  C_66 
REMARK    4  A    between atoms: C_66  and  O_113 
REMARK    5  A    between atoms: O_107  and  C_67 
REMARK    6  A    between atoms: C_67  and  O_116 
REMARK    7  A    between atoms: O_108  and  C_68 
REMARK    8  A    between atoms: C_68  and  O_115 
REMARK    9  A    between atoms: O_109  and  C_69 
REMARK   10  A    between atoms: C_69  and  O_118 
REMARK   11  A    between atoms: O_110  and  C_70 
REMARK   12  A    between atoms: C_70  and  O_117 
REMARK   13  A    between atoms: O_111  and  C_71 
REMARK   14  A    between atoms: C_71  and  O_120 
REMARK   15  A    between atoms: O_112  and  C_72 
REMARK   16  A    between atoms: C_72  and  O_119 
ROOT
HETATM    1  C   UNK N   1      30.869  14.170   5.531  0.00  0.00     0.120 A 
HETATM    2  C   UNK N   1      29.215  13.562   4.004  0.00  0.00     0.120 A 
HETATM    3  C   UNK N   1      36.050  15.621   9.968  0.00  0.00     0.120 A 
HETATM    4  C   UNK N   1      31.458  12.177   4.377  0.00  0.00     0.120 A 
HETATM    5  C   UNK N   1      28.132  17.248   6.142  0.00  0.00     0.120 A 
HETATM    6  C   UNK N   1      23.522  13.813   0.546  0.00  0.00     0.120 A 
HETATM    7  C   UNK N   1      30.429  15.938   6.608  0.00  0.00     0.120 A 
HETATM    8  C   UNK N   1      28.800  15.172   4.975  0.00  0.00     0.120 A 
HETATM    9  C   UNK N   1      31.315  14.505   6.075  0.00  0.00     0.084 A 
HETATM   10  C   UNK N   1      29.905  13.273   4.224  0.00  0.00     0.084 A 
HETATM   11  C   UNK N   1      35.302  15.882   9.689  0.00  0.00     0.084 A 
HETATM   12  C   UNK N   1      30.749  12.220   3.956  0.00  0.00     0.084 A 
HETATM   13  C   UNK N   1      28.836  17.208   6.562  0.00  0.00     0.084 A 
HETATM   14  C   UNK N   1      24.270  13.551   0.826  0.00  0.00     0.084 A 
HETATM   15  C   UNK N   1      29.722  16.123   6.297  0.00  0.00     0.084 A 
HETATM   16  C   UNK N   1      28.248  15.017   4.502  0.00  0.00     0.084 A 
HETATM   17  C   UNK N   1      32.552  13.632   6.196  0.00  0.00     0.108 A 
HETATM   18  C   UNK N   1      31.091  12.524   4.409  0.00  0.00     0.108 A 
HETATM   19  C   UNK N   1      34.149  15.598   8.731  0.00  0.00     0.108 A 
HETATM   20  C   UNK N   1      29.442  12.321   3.196  0.00  0.00     0.108 A 
HETATM   21  C   UNK N   1      30.135  17.075   7.292  0.00  0.00     0.108 A 
HETATM   22  C   UNK N   1      25.423  13.836   1.783  0.00  0.00     0.108 A 
HETATM   23  C   UNK N   1      28.504  16.901   6.113  0.00  0.00     0.108 A 
HETATM   24  C   UNK N   1      26.972  15.834   4.312  0.00  0.00     0.108 A 
HETATM   25  C   UNK N   1      32.686  12.960   5.766  0.00  0.00     0.165 A 
HETATM   26  C   UNK N   1      31.154  11.861   3.940  0.00  0.00     0.165 A 
HETATM   27  C   UNK N   1      33.635  15.264   8.145  0.00  0.00     0.165 A 
HETATM   28  C   UNK N   1      28.820  12.437   2.886  0.00  0.00     0.165 A 
HETATM   29  C   UNK N   1      30.751  16.997   7.628  0.00  0.00     0.165 A 
HETATM   30  C   UNK N   1      25.937  14.170   2.369  0.00  0.00     0.165 A 
HETATM   31  C   UNK N   1      28.418  17.573   6.574  0.00  0.00     0.165 A 
HETATM   32  C   UNK N   1      26.886  16.474   4.748  0.00  0.00     0.165 A 
HETATM   33  C   UNK N   1      30.175  14.813   5.581  0.00  0.00     0.140 A 
HETATM   34  C   UNK N   1      28.654  13.362   3.490  0.00  0.00     0.140 A 
HETATM   35  C   UNK N   1      36.449  16.063  10.562  0.00  0.00     0.140 A 
HETATM   36  C   UNK N   1      31.343  12.872   4.838  0.00  0.00     0.140 A 
HETATM   37  C   UNK N   1      28.248  16.558   5.686  0.00  0.00     0.140 A 
HETATM   38  C   UNK N   1      23.123  13.371  -0.048  0.00  0.00     0.140 A 
HETATM   39  C   UNK N   1      31.137  15.986   7.098  0.00  0.00     0.140 A 
HETATM   40  C   UNK N   1      29.396  14.561   4.887  0.00  0.00     0.140 A 
HETATM   41  C   UNK N   1      33.890  12.255   5.996  0.00  0.00     0.183 A 
HETATM   42  C   UNK N   1      32.520  15.087   7.294  0.00  0.00     0.183 A 
HETATM   43  C   UNK N   1      31.741  10.688   3.415  0.00  0.00     0.183 A 
HETATM   44  C   UNK N   1      31.125  17.953   8.602  0.00  0.00     0.183 A 
HETATM   45  C   UNK N   1      28.447  11.481   1.912  0.00  0.00     0.183 A 
HETATM   46  C   UNK N   1      27.831  18.746   7.100  0.00  0.00     0.183 A 
HETATM   47  C   UNK N   1      27.052  14.347   3.220  0.00  0.00     0.183 A 
HETATM   48  C   UNK N   1      25.682  17.179   4.518  0.00  0.00     0.183 A 
HETATM   49  C   UNK N   1      33.672  11.700   5.431  0.00  0.00     0.204 A 
HETATM   50  C   UNK N   1      32.857  14.412   6.991  0.00  0.00     0.204 A 
HETATM   51  C   UNK N   1      31.092  10.585   2.920  0.00  0.00     0.204 A 
HETATM   52  C   UNK N   1      31.824  17.543   8.735  0.00  0.00     0.204 A 
HETATM   53  C   UNK N   1      27.748  11.891   1.779  0.00  0.00     0.204 A 
HETATM   54  C   UNK N   1      28.480  18.849   7.594  0.00  0.00     0.204 A 
HETATM   55  C   UNK N   1      26.715  15.022   3.523  0.00  0.00     0.204 A 
HETATM   56  C   UNK N   1      25.900  17.734   5.084  0.00  0.00     0.204 A 
HETATM   57  C   UNK N   1      33.400  12.896   6.175  0.00  0.00     0.185 A 
HETATM   58  C   UNK N   1      31.784  11.329   3.935  0.00  0.00     0.185 A 
HETATM   59  C   UNK N   1      32.899  15.530   7.877  0.00  0.00     0.185 A 
HETATM   60  C   UNK N   1      28.997  11.746   2.469  0.00  0.00     0.185 A 
HETATM   61  C   UNK N   1      30.574  17.688   8.045  0.00  0.00     0.185 A 
HETATM   62  C   UNK N   1      26.673  13.904   2.637  0.00  0.00     0.185 A 
HETATM   63  C   UNK N   1      27.788  18.105   6.579  0.00  0.00     0.185 A 
HETATM   64  C   UNK N   1      26.171  16.538   4.339  0.00  0.00     0.185 A 
HETATM   65  C   UNK N   1      32.952  11.769   5.022  0.00  0.00     0.292 A 
HETATM   66  C   UNK N   1      33.589  14.139   7.252  0.00  0.00     0.292 A 
HETATM   67  C   UNK N   1      30.461  11.125   2.930  0.00  0.00     0.292 A 
HETATM   68  C   UNK N   1      31.998  16.848   8.313  0.00  0.00     0.292 A 
HETATM   69  C   UNK N   1      27.574  12.586   2.201  0.00  0.00     0.292 A 
HETATM   70  C   UNK N   1      29.111  18.309   7.585  0.00  0.00     0.292 A 
HETATM   71  C   UNK N   1      25.982  15.295   3.263  0.00  0.00     0.292 A 
HETATM   72  C   UNK N   1      26.620  17.665   5.493  0.00  0.00     0.292 A 
HETATM   73  O   UNK N   1      29.484  14.985   5.269  0.00  0.00    -0.650 OA
HETATM   74  O   UNK N   1      30.195  15.438   6.073  0.00  0.00    -0.776 OA
HETATM   75  O   UNK N   1      28.533  12.830   3.004  0.00  0.00    -0.650 OA
HETATM   76  O   UNK N   1      28.047  13.761   3.408  0.00  0.00    -0.776 OA
HETATM   77  O   UNK N   1      36.156  16.761  10.911  0.00  0.00    -0.650 OA
HETATM   78  O   UNK N   1      37.187  15.790  10.827  0.00  0.00    -0.776 OA
HETATM   79  O   UNK N   1      30.744  13.475   4.917  0.00  0.00    -0.650 OA
HETATM   80  O   UNK N   1      31.988  12.911   5.281  0.00  0.00    -0.776 OA
HETATM   81  O   UNK N   1      28.856  15.982   5.633  0.00  0.00    -0.650 OA
HETATM   82  O   UNK N   1      27.598  16.539   5.254  0.00  0.00    -0.776 OA
HETATM   83  O   UNK N   1      23.416  12.673  -0.397  0.00  0.00    -0.650 OA
HETATM   84  O   UNK N   1      22.384  13.644  -0.312  0.00  0.00    -0.776 OA
HETATM   85  O   UNK N   1      31.035  16.602   7.506  0.00  0.00    -0.650 OA
HETATM   86  O   UNK N   1      31.845  15.565   7.229  0.00  0.00    -0.776 OA
HETATM   87  O   UNK N   1      30.053  14.384   5.173  0.00  0.00    -0.650 OA
HETATM   88  O   UNK N   1      29.340  13.980   4.405  0.00  0.00    -0.776 OA
HETATM   89  O   UNK N   1      34.644  12.050   6.322  0.00  0.00    -0.390 OA
HETATM   90  O   UNK N   1      32.041  15.004   6.924  0.00  0.00    -0.390 OA
HETATM   91  O   UNK N   1      32.290  10.057   3.282  0.00  0.00    -0.390 OA
HETATM   92  O   UNK N   1      31.084  18.637   9.101  0.00  0.00    -0.390 OA
HETATM   93  O   UNK N   1      28.488  10.797   1.413  0.00  0.00    -0.390 OA
HETATM   94  O   UNK N   1      27.282  19.377   7.232  0.00  0.00    -0.390 OA
HETATM   95  O   UNK N   1      27.564  13.836   3.156  0.00  0.00    -0.390 OA
HETATM   96  O   UNK N   1      24.928  17.384   4.192  0.00  0.00    -0.390 OA
HETATM   97  O   UNK N   1      34.200  11.059   5.276  0.00  0.00    -0.388 OA
HETATM   98  O   UNK N   1      33.241  13.860   6.814  0.00  0.00    -0.388 OA
HETATM   99  O   UNK N   1      31.088   9.916   2.403  0.00  0.00    -0.388 OA
HETATM  100  O   UNK N   1      32.343  17.871   9.320  0.00  0.00    -0.388 OA
HETATM  101  O   UNK N   1      27.229  11.563   1.195  0.00  0.00    -0.388 OA
HETATM  102  O   UNK N   1      28.488  19.516   8.112  0.00  0.00    -0.388 OA
HETATM  103  O   UNK N   1      26.312  15.563   3.680  0.00  0.00    -0.388 OA
HETATM  104  O   UNK N   1      25.372  18.375   5.238  0.00  0.00    -0.388 OA
HETATM  105  O   UNK N   1      32.471  12.410   5.206  0.00  0.00    -0.350 OA
HETATM  106  O   UNK N   1      33.976  14.581   7.839  0.00  0.00    -0.350 OA
HETATM  107  O   UNK N   1      30.512  11.761   3.451  0.00  0.00    -0.350 OA
HETATM  108  O   UNK N   1      31.444  16.592   7.761  0.00  0.00    -0.350 OA
HETATM  109  O   UNK N   1      28.128  12.842   2.754  0.00  0.00    -0.350 OA
HETATM  110  O   UNK N   1      29.060  17.673   7.063  0.00  0.00    -0.350 OA
HETATM  111  O   UNK N   1      25.596  14.853   2.675  0.00  0.00    -0.350 OA
HETATM  112  O   UNK N   1      27.101  17.024   5.308  0.00  0.00    -0.350 OA
HETATM  113  O   UNK N   1      33.627  13.462   6.756  0.00  0.00    -0.348 OA
HETATM  114  O   UNK N   1      32.451  11.429   4.439  0.00  0.00    -0.348 OA
HETATM  115  O   UNK N   1      32.554  16.230   8.194  0.00  0.00    -0.348 OA
HETATM  116  O   UNK N   1      29.713  11.323   2.602  0.00  0.00    -0.348 OA
HETATM  117  O   UNK N   1      29.859  18.111   7.912  0.00  0.00    -0.348 OA
HETATM  118  O   UNK N   1      27.018  13.204   2.320  0.00  0.00    -0.348 OA
HETATM  119  O   UNK N   1      27.121  18.005   6.075  0.00  0.00    -0.348 OA
HETATM  120  O   UNK N   1      25.945  15.972   3.759  0.00  0.00    -0.348 OA
HETATM  121  S   UNK N   1      31.959  14.119   6.190  0.00  0.00    -0.166 SA
HETATM  122  S   UNK N   1      30.631  13.099   4.556  0.00  0.00    -0.166 SA
HETATM  123  S   UNK N   1      34.891  15.455   9.097  0.00  0.00    -0.166 SA
HETATM  124  S   UNK N   1      30.110  12.186   3.520  0.00  0.00    -0.166 SA
HETATM  125  S   UNK N   1      29.468  17.248   6.999  0.00  0.00    -0.166 SA
HETATM  126  S   UNK N   1      24.681  13.979   1.417  0.00  0.00    -0.166 SA
HETATM  127  S   UNK N   1      28.988  16.341   5.993  0.00  0.00    -0.166 SA
HETATM  128  S   UNK N   1      27.608  15.432   4.411  0.00  0.00    -0.166 SA
HETATM  129  H   UNK N   1      30.929  15.565   6.642  0.00  0.00     0.167 HD
HETATM  130  H   UNK N   1      27.921  14.535   3.921  0.00  0.00     0.167 HD
HETATM  131  H   UNK N   1      37.556  15.010  10.464  0.00  0.00     0.167 HD
HETATM  132  H   UNK N   1      32.651  12.254   5.202  0.00  0.00     0.167 HD
HETATM  133  H   UNK N   1      26.950  17.208   5.354  0.00  0.00     0.167 HD
HETATM  134  H   UNK N   1      22.015  14.425   0.051  0.00  0.00     0.167 HD
HETATM  135  H   UNK N   1      32.024  14.784   6.743  0.00  0.00     0.167 HD
HETATM  136  H   UNK N   1      28.585  13.896   3.856  0.00  0.00     0.167 HD
HETATM  137  H   UNK N   1      35.108  11.257   6.010  0.00  0.00     0.210 HD
HETATM  138  H   UNK N   1      31.304  15.634   6.935  0.00  0.00     0.210 HD
HETATM  139  H   UNK N   1      32.091   9.370   2.626  0.00  0.00     0.210 HD
HETATM  140  H   UNK N   1      31.808  18.833   9.716  0.00  0.00     0.210 HD
HETATM  141  H   UNK N   1      27.764  10.600   0.798  0.00  0.00     0.210 HD
HETATM  142  H   UNK N   1      27.481  20.064   7.887  0.00  0.00     0.210 HD
HETATM  143  H   UNK N   1      27.447  13.110   2.523  0.00  0.00     0.210 HD
HETATM  144  H   UNK N   1      24.464  18.178   4.505  0.00  0.00     0.210 HD
HETATM  145  H   UNK N   1      33.968  10.389   4.613  0.00  0.00     0.210 HD
HETATM  146  H   UNK N   1      32.921  13.245   6.136  0.00  0.00     0.210 HD
HETATM  147  H   UNK N   1      30.337   9.768   1.808  0.00  0.00     0.210 HD
HETATM  148  H   UNK N   1      33.184  17.433   9.522  0.00  0.00     0.210 HD
HETATM  149  H   UNK N   1      26.388  12.001   0.992  0.00  0.00     0.210 HD
HETATM  150  H   UNK N   1      29.242  19.658   8.705  0.00  0.00     0.210 HD
HETATM  151  H   UNK N   1      26.595  16.202   4.352  0.00  0.00     0.210 HD
HETATM  152  H   UNK N   1      25.604  19.045   5.901  0.00  0.00     0.210 HD
ENDROOT
TORSDOF 16
ENDMDL
MODEL 4
REMARK VINA RESULT:     -25.7      2.095      7.242
REMARK  16 active torsions:
REMARK  status: ('A' for Active; 'I' for Inactive)
REMARK    1  A    between atoms: O_105  and  C_65 
REMARK    2  A    between atoms: C_65  and  O_114 
REMARK    3  A    between atoms: O_106  and  C_66 
REMARK    4  A    between atoms: C_66  and  O_113 
REMARK    5  A    between atoms: O_107  and  C_67 
REMARK    6  A    between atoms: C_67  and  O_116 
REMARK    7  A    between atoms: O_108  and  C_68 
REMARK    8  A    between atoms: C_68  and  O_115 
REMARK    9  A    between atoms: O_109  and  C_69 
REMARK   10  A    between atoms: C_69  and  O_118 
REMARK   11  A    between atoms: O_110  and  C_70 
REMARK   12  A    between atoms: C_70  and  O_117 
REMARK   13  A    between atoms: O_111  and  C_71 
REMARK   14  A    between atoms: C_71  and  O_120 
REMARK   15  A    between atoms: O_112  and  C_72 
REMARK   16  A    between atoms: C_72  and  O_119 
ROOT
HETATM    1  C   UNK N   1      28.715  15.182   4.979  0.00  0.00     0.120 A 
HETATM    2  C   UNK N   1      30.363  15.811   6.503  0.00  0.00     0.120 A 
HETATM    3  C   UNK N   1      23.547  13.669   0.547  0.00  0.00     0.120 A 
HETATM    4  C   UNK N   1      28.116  17.183   6.113  0.00  0.00     0.120 A 
HETATM    5  C   UNK N   1      31.465  12.110   4.400  0.00  0.00     0.120 A 
HETATM    6  C   UNK N   1      36.052  15.614   9.971  0.00  0.00     0.120 A 
HETATM    7  C   UNK N   1      29.164  13.405   3.919  0.00  0.00     0.120 A 
HETATM    8  C   UNK N   1      30.787  14.193   5.547  0.00  0.00     0.120 A 
HETATM    9  C   UNK N   1      28.271  14.840   4.437  0.00  0.00     0.084 A 
HETATM   10  C   UNK N   1      29.673  16.095   6.279  0.00  0.00     0.084 A 
HETATM   11  C   UNK N   1      24.296  13.414   0.830  0.00  0.00     0.084 A 
HETATM   12  C   UNK N   1      28.824  17.147   6.536  0.00  0.00     0.084 A 
HETATM   13  C   UNK N   1      30.761  12.143   3.978  0.00  0.00     0.084 A 
HETATM   14  C   UNK N   1      35.303  15.870   9.689  0.00  0.00     0.084 A 
HETATM   15  C   UNK N   1      29.871  13.226   4.233  0.00  0.00     0.084 A 
HETATM   16  C   UNK N   1      31.337  14.355   6.020  0.00  0.00     0.084 A 
HETATM   17  C   UNK N   1      27.031  15.707   4.306  0.00  0.00     0.108 A 
HETATM   18  C   UNK N   1      28.484  16.837   6.085  0.00  0.00     0.108 A 
HETATM   19  C   UNK N   1      25.445  13.712   1.786  0.00  0.00     0.108 A 
HETATM   20  C   UNK N   1      30.130  17.058   7.299  0.00  0.00     0.108 A 
HETATM   21  C   UNK N   1      29.464  12.264   3.245  0.00  0.00     0.108 A 
HETATM   22  C   UNK N   1      34.153  15.572   8.732  0.00  0.00     0.108 A 
HETATM   23  C   UNK N   1      31.092  12.455   4.425  0.00  0.00     0.108 A 
HETATM   24  C   UNK N   1      32.616  13.544   6.219  0.00  0.00     0.108 A 
HETATM   25  C   UNK N   1      26.894  16.382   4.729  0.00  0.00     0.165 A 
HETATM   26  C   UNK N   1      28.418  17.504   6.548  0.00  0.00     0.165 A 
HETATM   27  C   UNK N   1      25.957  14.053   2.370  0.00  0.00     0.165 A 
HETATM   28  C   UNK N   1      30.752  16.948   7.611  0.00  0.00     0.165 A 
HETATM   29  C   UNK N   1      28.847  12.336   2.907  0.00  0.00     0.165 A 
HETATM   30  C   UNK N   1      33.642  15.230   8.148  0.00  0.00     0.165 A 
HETATM   31  C   UNK N   1      31.181  11.780   3.970  0.00  0.00     0.165 A 
HETATM   32  C   UNK N   1      32.705  12.901   5.789  0.00  0.00     0.165 A 
HETATM   33  C   UNK N   1      29.411  14.541   4.936  0.00  0.00     0.140 A 
HETATM   34  C   UNK N   1      30.923  16.018   7.015  0.00  0.00     0.140 A 
HETATM   35  C   UNK N   1      23.151  13.221  -0.044  0.00  0.00     0.140 A 
HETATM   36  C   UNK N   1      28.234  16.484   5.659  0.00  0.00     0.140 A 
HETATM   37  C   UNK N   1      31.346  12.803   4.850  0.00  0.00     0.140 A 
HETATM   38  C   UNK N   1      36.448  16.063  10.563  0.00  0.00     0.140 A 
HETATM   39  C   UNK N   1      28.456  13.351   3.427  0.00  0.00     0.140 A 
HETATM   40  C   UNK N   1      30.188  14.803   5.628  0.00  0.00     0.140 A 
HETATM   41  C   UNK N   1      25.687  17.081   4.491  0.00  0.00     0.183 A 
HETATM   42  C   UNK N   1      27.070  14.242   3.221  0.00  0.00     0.183 A 
HETATM   43  C   UNK N   1      27.825  18.680   7.062  0.00  0.00     0.183 A 
HETATM   44  C   UNK N   1      28.479  11.370   1.942  0.00  0.00     0.183 A 
HETATM   45  C   UNK N   1      31.120  17.913   8.576  0.00  0.00     0.183 A 
HETATM   46  C   UNK N   1      31.774  10.604   3.456  0.00  0.00     0.183 A 
HETATM   47  C   UNK N   1      32.528  15.042   7.297  0.00  0.00     0.183 A 
HETATM   48  C   UNK N   1      33.912  12.203   6.027  0.00  0.00     0.183 A 
HETATM   49  C   UNK N   1      25.901  17.641   5.052  0.00  0.00     0.204 A 
HETATM   50  C   UNK N   1      26.730  14.919   3.517  0.00  0.00     0.204 A 
HETATM   51  C   UNK N   1      28.473  18.789   7.556  0.00  0.00     0.204 A 
HETATM   52  C   UNK N   1      27.778  11.776   1.804  0.00  0.00     0.204 A 
HETATM   53  C   UNK N   1      31.821  17.507   8.714  0.00  0.00     0.204 A 
HETATM   54  C   UNK N   1      31.126  10.494   2.962  0.00  0.00     0.204 A 
HETATM   55  C   UNK N   1      32.868  14.365   7.001  0.00  0.00     0.204 A 
HETATM   56  C   UNK N   1      33.698  11.642   5.466  0.00  0.00     0.204 A 
HETATM   57  C   UNK N   1      26.179  16.440   4.318  0.00  0.00     0.185 A 
HETATM   58  C   UNK N   1      27.786  18.033   6.547  0.00  0.00     0.185 A 
HETATM   59  C   UNK N   1      26.694  13.792   2.641  0.00  0.00     0.185 A 
HETATM   60  C   UNK N   1      30.571  17.641   8.021  0.00  0.00     0.185 A 
HETATM   61  C   UNK N   1      29.027  11.642   2.497  0.00  0.00     0.185 A 
HETATM   62  C   UNK N   1      32.905  15.491   7.877  0.00  0.00     0.185 A 
HETATM   63  C   UNK N   1      31.813  11.250   3.971  0.00  0.00     0.185 A 
HETATM   64  C   UNK N   1      33.420  12.844   6.200  0.00  0.00     0.185 A 
HETATM   65  C   UNK N   1      26.621  17.579   5.463  0.00  0.00     0.292 A 
HETATM   66  C   UNK N   1      25.997  15.186   3.253  0.00  0.00     0.292 A 
HETATM   67  C   UNK N   1      29.106  18.252   7.553  0.00  0.00     0.292 A 
HETATM   68  C   UNK N   1      27.601  12.474   2.219  0.00  0.00     0.292 A 
HETATM   69  C   UNK N   1      31.998  16.810   8.299  0.00  0.00     0.292 A 
HETATM   70  C   UNK N   1      30.492  11.031   2.966  0.00  0.00     0.292 A 
HETATM   71  C   UNK N   1      33.602  14.098   7.265  0.00  0.00     0.292 A 
HETATM   72  C   UNK N   1      32.978  11.704   5.055  0.00  0.00     0.292 A 
HETATM   73  O   UNK N   1      30.103  14.375   5.250  0.00  0.00    -0.650 OA
HETATM   74  O   UNK N   1      29.395  13.912   4.449  0.00  0.00    -0.776 OA
HETATM   75  O   UNK N   1      31.041  16.554   7.496  0.00  0.00    -0.650 OA
HETATM   76  O   UNK N   1      31.532  15.622   7.103  0.00  0.00    -0.776 OA
HETATM   77  O   UNK N   1      23.447  12.521  -0.386  0.00  0.00    -0.650 OA
HETATM   78  O   UNK N   1      22.411  13.488  -0.313  0.00  0.00    -0.776 OA
HETATM   79  O   UNK N   1      28.836  15.883   5.587  0.00  0.00    -0.650 OA
HETATM   80  O   UNK N   1      27.591  16.438   5.215  0.00  0.00    -0.776 OA
HETATM   81  O   UNK N   1      30.736  13.377   4.896  0.00  0.00    -0.650 OA
HETATM   82  O   UNK N   1      31.994  12.829   5.282  0.00  0.00    -0.776 OA
HETATM   83  O   UNK N   1      36.152  16.763  10.905  0.00  0.00    -0.650 OA
HETATM   84  O   UNK N   1      37.188  15.796  10.831  0.00  0.00    -0.776 OA
HETATM   85  O   UNK N   1      28.561  12.731   3.025  0.00  0.00    -0.650 OA
HETATM   86  O   UNK N   1      27.747  13.768   3.292  0.00  0.00    -0.776 OA
HETATM   87  O   UNK N   1      29.530  14.974   5.340  0.00  0.00    -0.650 OA
HETATM   88  O   UNK N   1      30.241  15.389   6.105  0.00  0.00    -0.776 OA
HETATM   89  O   UNK N   1      24.933  17.280   4.162  0.00  0.00    -0.390 OA
HETATM   90  O   UNK N   1      27.548  14.330   3.592  0.00  0.00    -0.390 OA
HETATM   91  O   UNK N   1      27.274  19.309   7.187  0.00  0.00    -0.390 OA
HETATM   92  O   UNK N   1      28.524  10.681   1.449  0.00  0.00    -0.390 OA
HETATM   93  O   UNK N   1      31.075  18.602   9.069  0.00  0.00    -0.390 OA
HETATM   94  O   UNK N   1      32.325   9.974   3.331  0.00  0.00    -0.390 OA
HETATM   95  O   UNK N   1      32.014  15.551   7.356  0.00  0.00    -0.390 OA
HETATM   96  O   UNK N   1      34.666  12.004   6.356  0.00  0.00    -0.390 OA
HETATM   97  O   UNK N   1      25.371  18.282   5.200  0.00  0.00    -0.388 OA
HETATM   98  O   UNK N   1      26.343  15.470   3.689  0.00  0.00    -0.388 OA
HETATM   99  O   UNK N   1      28.473  19.463   8.067  0.00  0.00    -0.388 OA
HETATM  100  O   UNK N   1      27.262  11.441   1.221  0.00  0.00    -0.388 OA
HETATM  101  O   UNK N   1      32.337  17.843   9.297  0.00  0.00    -0.388 OA
HETATM  102  O   UNK N   1      31.121   9.823   2.450  0.00  0.00    -0.388 OA
HETATM  103  O   UNK N   1      33.274  13.824   6.849  0.00  0.00    -0.388 OA
HETATM  104  O   UNK N   1      34.228  11.002   5.318  0.00  0.00    -0.388 OA
HETATM  105  O   UNK N   1      27.105  16.938   5.285  0.00  0.00    -0.350 OA
HETATM  106  O   UNK N   1      25.613  14.737   2.669  0.00  0.00    -0.350 OA
HETATM  107  O   UNK N   1      29.059  17.612   7.037  0.00  0.00    -0.350 OA
HETATM  108  O   UNK N   1      28.153  12.737   2.770  0.00  0.00    -0.350 OA
HETATM  109  O   UNK N   1      31.446  16.546   7.748  0.00  0.00    -0.350 OA
HETATM  110  O   UNK N   1      30.540  11.672   3.481  0.00  0.00    -0.350 OA
HETATM  111  O   UNK N   1      33.986  14.546   7.849  0.00  0.00    -0.350 OA
HETATM  112  O   UNK N   1      32.494  12.346   5.233  0.00  0.00    -0.350 OA
HETATM  113  O   UNK N   1      25.956  15.867   3.743  0.00  0.00    -0.348 OA
HETATM  114  O   UNK N   1      27.120  17.926   6.042  0.00  0.00    -0.348 OA
HETATM  115  O   UNK N   1      27.042  13.091   2.331  0.00  0.00    -0.348 OA
HETATM  116  O   UNK N   1      29.854  18.061   7.883  0.00  0.00    -0.348 OA
HETATM  117  O   UNK N   1      29.745  11.223   2.635  0.00  0.00    -0.348 OA
HETATM  118  O   UNK N   1      32.557  16.193   8.187  0.00  0.00    -0.348 OA
HETATM  119  O   UNK N   1      32.479  11.357   4.476  0.00  0.00    -0.348 OA
HETATM  120  O   UNK N   1      33.643  13.416   6.775  0.00  0.00    -0.348 OA
HETATM  121  S   UNK N   1      27.626  15.223   4.317  0.00  0.00    -0.166 SA
HETATM  122  S   UNK N   1      28.947  16.263   5.944  0.00  0.00    -0.166 SA
HETATM  123  S   UNK N   1      24.703  13.848   1.418  0.00  0.00    -0.166 SA
HETATM  124  S   UNK N   1      29.463  17.188   6.973  0.00  0.00    -0.166 SA
HETATM  125  S   UNK N   1      30.130  12.096   3.541  0.00  0.00    -0.166 SA
HETATM  126  S   UNK N   1      34.895  15.435   9.100  0.00  0.00    -0.166 SA
HETATM  127  S   UNK N   1      30.605  13.014   4.539  0.00  0.00    -0.166 SA
HETATM  128  S   UNK N   1      31.979  13.943   6.116  0.00  0.00    -0.166 SA
HETATM  129  H   UNK N   1      28.662  13.777   3.881  0.00  0.00     0.167 HD
HETATM  130  H   UNK N   1      31.662  14.844   6.596  0.00  0.00     0.167 HD
HETATM  131  H   UNK N   1      22.039  14.270   0.043  0.00  0.00     0.167 HD
HETATM  132  H   UNK N   1      26.924  17.093   5.287  0.00  0.00     0.167 HD
HETATM  133  H   UNK N   1      32.645  12.161   5.190  0.00  0.00     0.167 HD
HETATM  134  H   UNK N   1      37.561  15.013  10.475  0.00  0.00     0.167 HD
HETATM  135  H   UNK N   1      27.565  14.552   3.770  0.00  0.00     0.167 HD
HETATM  136  H   UNK N   1      30.995  15.480   6.654  0.00  0.00     0.167 HD
HETATM  137  H   UNK N   1      24.465  18.073   4.466  0.00  0.00     0.210 HD
HETATM  138  H   UNK N   1      28.288  13.703   3.587  0.00  0.00     0.210 HD
HETATM  139  H   UNK N   1      27.469  20.003   7.837  0.00  0.00     0.210 HD
HETATM  140  H   UNK N   1      27.801  10.477   0.835  0.00  0.00     0.210 HD
HETATM  141  H   UNK N   1      31.797  18.808   9.684  0.00  0.00     0.210 HD
HETATM  142  H   UNK N   1      32.131   9.281   2.682  0.00  0.00     0.210 HD
HETATM  143  H   UNK N   1      32.127  16.283   7.982  0.00  0.00     0.210 HD
HETATM  144  H   UNK N   1      35.133  11.210   6.052  0.00  0.00     0.210 HD
HETATM  145  H   UNK N   1      25.599  18.958   5.857  0.00  0.00     0.210 HD
HETATM  146  H   UNK N   1      26.660  16.093   4.362  0.00  0.00     0.210 HD
HETATM  147  H   UNK N   1      29.223  19.619   8.662  0.00  0.00     0.210 HD
HETATM  148  H   UNK N   1      26.419  11.873   1.013  0.00  0.00     0.210 HD
HETATM  149  H   UNK N   1      33.179  17.410   9.505  0.00  0.00     0.210 HD
HETATM  150  H   UNK N   1      30.368   9.672   1.857  0.00  0.00     0.210 HD
HETATM  151  H   UNK N   1      32.995  13.178   6.182  0.00  0.00     0.210 HD
HETATM  152  H   UNK N   1      34.000  10.325   4.661  0.00  0.00     0.210 HD
ENDROOT
TORSDOF 16
ENDMDL
MODEL 5
REMARK VINA RESULT:     -25.5      1.046      7.178
REMARK  16 active torsions:
REMARK  status: ('A' for Active; 'I' for Inactive)
REMARK    1  A    between atoms: O_105  and  C_65 
REMARK    2  A    between atoms: C_65  and  O_114 
REMARK    3  A    between atoms: O_106  and  C_66 
REMARK    4  A    between atoms: C_66  and  O_113 
REMARK    5  A    between atoms: O_107  and  C_67 
REMARK    6  A    between atoms: C_67  and  O_116 
REMARK    7  A    between atoms: O_108  and  C_68 
REMARK    8  A    between atoms: C_68  and  O_115 
REMARK    9  A    between atoms: O_109  and  C_69 
REMARK   10  A    between atoms: C_69  and  O_118 
REMARK   11  A    between atoms: O_110  and  C_70 
REMARK   12  A    between atoms: C_70  and  O_117 
REMARK   13  A    between atoms: O_111  and  C_71 
REMARK   14  A    between atoms: C_71  and  O_120 
REMARK   15  A    between atoms: O_112  and  C_72 
REMARK   16  A    between atoms: C_72  and  O_119 
ROOT
HETATM    1  C   UNK N   1      29.796  15.598   5.378  0.00  0.00     0.120 A 
HETATM    2  C   UNK N   1      32.108  15.294   5.395  0.00  0.00     0.120 A 
HETATM    3  C   UNK N   1      22.930  16.781   5.688  0.00  0.00     0.120 A 
HETATM    4  C   UNK N   1      30.811  16.835   7.135  0.00  0.00     0.120 A 
HETATM    5  C   UNK N   1      30.224  13.007   2.147  0.00  0.00     0.120 A 
HETATM    6  C   UNK N   1      38.117  13.050   3.582  0.00  0.00     0.120 A 
HETATM    7  C   UNK N   1      28.805  14.530   3.842  0.00  0.00     0.120 A 
HETATM    8  C   UNK N   1      31.222  14.317   3.992  0.00  0.00     0.120 A 
HETATM    9  C   UNK N   1      29.030  15.592   5.236  0.00  0.00     0.084 A 
HETATM   10  C   UNK N   1      31.595  15.698   5.821  0.00  0.00     0.084 A 
HETATM   11  C   UNK N   1      23.530  16.369   5.267  0.00  0.00     0.084 A 
HETATM   12  C   UNK N   1      31.549  16.550   6.900  0.00  0.00     0.084 A 
HETATM   13  C   UNK N   1      29.488  13.289   2.377  0.00  0.00     0.084 A 
HETATM   14  C   UNK N   1      37.517  13.462   4.002  0.00  0.00     0.084 A 
HETATM   15  C   UNK N   1      29.424  14.173   3.494  0.00  0.00     0.084 A 
HETATM   16  C   UNK N   1      31.954  14.191   3.959  0.00  0.00     0.084 A 
HETATM   17  C   UNK N   1      28.406  16.498   6.284  0.00  0.00     0.108 A 
HETATM   18  C   UNK N   1      30.923  16.521   6.754  0.00  0.00     0.108 A 
HETATM   19  C   UNK N   1      25.026  16.086   5.168  0.00  0.00     0.108 A 
HETATM   20  C   UNK N   1      32.892  16.013   6.449  0.00  0.00     0.108 A 
HETATM   21  C   UNK N   1      28.181  13.840   2.852  0.00  0.00     0.108 A 
HETATM   22  C   UNK N   1      36.021  13.745   4.101  0.00  0.00     0.108 A 
HETATM   23  C   UNK N   1      30.107  13.323   2.528  0.00  0.00     0.108 A 
HETATM   24  C   UNK N   1      32.667  13.299   2.946  0.00  0.00     0.108 A 
HETATM   25  C   UNK N   1      28.819  16.891   6.858  0.00  0.00     0.165 A 
HETATM   26  C   UNK N   1      31.405  16.884   7.301  0.00  0.00     0.165 A 
HETATM   27  C   UNK N   1      25.865  16.066   5.289  0.00  0.00     0.165 A 
HETATM   28  C   UNK N   1      33.475  15.723   6.181  0.00  0.00     0.165 A 
HETATM   29  C   UNK N   1      27.572  14.109   3.088  0.00  0.00     0.165 A 
HETATM   30  C   UNK N   1      35.182  13.765   3.980  0.00  0.00     0.165 A 
HETATM   31  C   UNK N   1      29.642  12.947   1.968  0.00  0.00     0.165 A 
HETATM   32  C   UNK N   1      32.229  12.940   2.411  0.00  0.00     0.165 A 
HETATM   33  C   UNK N   1      30.018  15.011   4.668  0.00  0.00     0.140 A 
HETATM   34  C   UNK N   1      32.887  15.188   5.396  0.00  0.00     0.140 A 
HETATM   35  C   UNK N   1      22.128  16.703   5.448  0.00  0.00     0.140 A 
HETATM   36  C   UNK N   1      30.358  16.438   6.548  0.00  0.00     0.140 A 
HETATM   37  C   UNK N   1      30.672  13.403   2.730  0.00  0.00     0.140 A 
HETATM   38  C   UNK N   1      38.920  13.128   3.821  0.00  0.00     0.140 A 
HETATM   39  C   UNK N   1      27.992  14.769   4.005  0.00  0.00     0.140 A 
HETATM   40  C   UNK N   1      31.079  14.850   4.648  0.00  0.00     0.140 A 
HETATM   41  C   UNK N   1      28.090  17.699   7.762  0.00  0.00     0.183 A 
HETATM   42  C   UNK N   1      27.230  15.742   5.114  0.00  0.00     0.183 A 
HETATM   43  C   UNK N   1      31.741  17.702   8.404  0.00  0.00     0.183 A 
HETATM   44  C   UNK N   1      26.369  13.759   2.432  0.00  0.00     0.183 A 
HETATM   45  C   UNK N   1      34.678  16.072   6.837  0.00  0.00     0.183 A 
HETATM   46  C   UNK N   1      29.306  12.129   0.865  0.00  0.00     0.183 A 
HETATM   47  C   UNK N   1      33.817  14.089   4.156  0.00  0.00     0.183 A 
HETATM   48  C   UNK N   1      32.957  12.132   1.507  0.00  0.00     0.183 A 
HETATM   49  C   UNK N   1      28.789  17.902   8.143  0.00  0.00     0.204 A 
HETATM   50  C   UNK N   1      27.424  16.212   5.748  0.00  0.00     0.204 A 
HETATM   51  C   UNK N   1      32.535  17.513   8.302  0.00  0.00     0.204 A 
HETATM   52  C   UNK N   1      25.947  14.228   2.957  0.00  0.00     0.204 A 
HETATM   53  C   UNK N   1      35.101  15.603   6.312  0.00  0.00     0.204 A 
HETATM   54  C   UNK N   1      28.513  12.318   0.967  0.00  0.00     0.204 A 
HETATM   55  C   UNK N   1      33.623  13.619   3.521  0.00  0.00     0.204 A 
HETATM   56  C   UNK N   1      32.258  11.929   1.126  0.00  0.00     0.204 A 
HETATM   57  C   UNK N   1      28.091  17.189   7.112  0.00  0.00     0.185 A 
HETATM   58  C   UNK N   1      31.160  17.390   7.904  0.00  0.00     0.185 A 
HETATM   59  C   UNK N   1      26.448  15.656   4.867  0.00  0.00     0.185 A 
HETATM   60  C   UNK N   1      33.857  16.141   6.782  0.00  0.00     0.185 A 
HETATM   61  C   UNK N   1      27.191  13.690   2.487  0.00  0.00     0.185 A 
HETATM   62  C   UNK N   1      34.600  14.175   4.402  0.00  0.00     0.185 A 
HETATM   63  C   UNK N   1      29.887  12.441   1.365  0.00  0.00     0.185 A 
HETATM   64  C   UNK N   1      32.956  12.642   2.157  0.00  0.00     0.185 A 
HETATM   65  C   UNK N   1      29.519  17.599   7.884  0.00  0.00     0.292 A 
HETATM   66  C   UNK N   1      26.851  16.624   6.173  0.00  0.00     0.292 A 
HETATM   67  C   UNK N   1      32.775  17.003   7.692  0.00  0.00     0.292 A 
HETATM   68  C   UNK N   1      26.335  14.648   3.560  0.00  0.00     0.292 A 
HETATM   69  C   UNK N   1      34.713  15.183   5.709  0.00  0.00     0.292 A 
HETATM   70  C   UNK N   1      28.272  12.828   1.577  0.00  0.00     0.292 A 
HETATM   71  C   UNK N   1      34.197  13.207   3.096  0.00  0.00     0.292 A 
HETATM   72  C   UNK N   1      31.528  12.232   1.385  0.00  0.00     0.292 A 
HETATM   73  O   UNK N   1      30.631  14.666   4.335  0.00  0.00    -0.650 OA
HETATM   74  O   UNK N   1      29.477  14.699   4.175  0.00  0.00    -0.776 OA
HETATM   75  O   UNK N   1      33.462  15.415   5.785  0.00  0.00    -0.650 OA
HETATM   76  O   UNK N   1      33.218  14.758   4.905  0.00  0.00    -0.776 OA
HETATM   77  O   UNK N   1      21.866  16.238   4.808  0.00  0.00    -0.650 OA
HETATM   78  O   UNK N   1      21.547  17.117   5.875  0.00  0.00    -0.776 OA
HETATM   79  O   UNK N   1      30.511  15.906   5.897  0.00  0.00    -0.650 OA
HETATM   80  O   UNK N   1      29.621  16.657   6.699  0.00  0.00    -0.776 OA
HETATM   81  O   UNK N   1      30.487  13.923   3.361  0.00  0.00    -0.650 OA
HETATM   82  O   UNK N   1      31.397  13.171   2.561  0.00  0.00    -0.776 OA
HETATM   83  O   UNK N   1      39.181  13.593   4.461  0.00  0.00    -0.650 OA
HETATM   84  O   UNK N   1      39.500  12.714   3.394  0.00  0.00    -0.776 OA
HETATM   85  O   UNK N   1      27.591  14.416   3.484  0.00  0.00    -0.650 OA
HETATM   86  O   UNK N   1      27.569  15.247   4.541  0.00  0.00    -0.776 OA
HETATM   87  O   UNK N   1      30.508  15.185   4.976  0.00  0.00    -0.650 OA
HETATM   88  O   UNK N   1      31.624  15.127   5.097  0.00  0.00    -0.776 OA
HETATM   89  O   UNK N   1      27.438  18.084   8.139  0.00  0.00    -0.390 OA
HETATM   90  O   UNK N   1      27.822  15.607   5.044  0.00  0.00    -0.390 OA
HETATM   91  O   UNK N   1      31.666  18.228   9.063  0.00  0.00    -0.390 OA
HETATM   92  O   UNK N   1      25.845  13.394   1.874  0.00  0.00    -0.390 OA
HETATM   93  O   UNK N   1      35.203  16.438   7.395  0.00  0.00    -0.390 OA
HETATM   94  O   UNK N   1      29.381  11.603   0.207  0.00  0.00    -0.390 OA
HETATM   95  O   UNK N   1      33.683  14.541   4.708  0.00  0.00    -0.390 OA
HETATM   96  O   UNK N   1      33.610  11.747   1.130  0.00  0.00    -0.390 OA
HETATM   97  O   UNK N   1      28.747  18.426   8.804  0.00  0.00    -0.388 OA
HETATM   98  O   UNK N   1      27.463  16.637   6.297  0.00  0.00    -0.388 OA
HETATM   99  O   UNK N   1      33.096  17.854   8.835  0.00  0.00    -0.388 OA
HETATM  100  O   UNK N   1      25.107  14.253   2.842  0.00  0.00    -0.388 OA
HETATM  101  O   UNK N   1      35.940  15.578   6.427  0.00  0.00    -0.388 OA
HETATM  102  O   UNK N   1      27.949  11.980   0.438  0.00  0.00    -0.388 OA
HETATM  103  O   UNK N   1      33.613  13.192   2.975  0.00  0.00    -0.388 OA
HETATM  104  O   UNK N   1      32.300  11.405   0.465  0.00  0.00    -0.388 OA
HETATM  105  O   UNK N   1      29.510  17.092   7.236  0.00  0.00    -0.350 OA
HETATM  106  O   UNK N   1      26.061  16.542   5.930  0.00  0.00    -0.350 OA
HETATM  107  O   UNK N   1      32.190  16.697   7.199  0.00  0.00    -0.350 OA
HETATM  108  O   UNK N   1      27.153  14.573   3.608  0.00  0.00    -0.350 OA
HETATM  109  O   UNK N   1      33.894  15.258   5.661  0.00  0.00    -0.350 OA
HETATM  110  O   UNK N   1      28.857  13.134   2.070  0.00  0.00    -0.350 OA
HETATM  111  O   UNK N   1      34.986  13.289   3.339  0.00  0.00    -0.350 OA
HETATM  112  O   UNK N   1      31.537  12.739   2.033  0.00  0.00    -0.350 OA
HETATM  113  O   UNK N   1      27.372  16.984   6.724  0.00  0.00    -0.348 OA
HETATM  114  O   UNK N   1      30.349  17.586   8.013  0.00  0.00    -0.348 OA
HETATM  115  O   UNK N   1      26.242  15.170   4.211  0.00  0.00    -0.348 OA
HETATM  116  O   UNK N   1      33.427  16.624   7.323  0.00  0.00    -0.348 OA
HETATM  117  O   UNK N   1      27.620  13.207   1.946  0.00  0.00    -0.348 OA
HETATM  118  O   UNK N   1      34.806  14.661   5.058  0.00  0.00    -0.348 OA
HETATM  119  O   UNK N   1      30.699  12.245   1.256  0.00  0.00    -0.348 OA
HETATM  120  O   UNK N   1      33.675  12.847   2.545  0.00  0.00    -0.348 OA
HETATM  121  S   UNK N   1      28.648  16.029   5.727  0.00  0.00    -0.166 SA
HETATM  122  S   UNK N   1      30.947  16.057   6.165  0.00  0.00    -0.166 SA
HETATM  123  S   UNK N   1      24.334  16.435   5.492  0.00  0.00    -0.166 SA
HETATM  124  S   UNK N   1      32.276  16.330   6.746  0.00  0.00    -0.166 SA
HETATM  125  S   UNK N   1      28.765  13.503   2.524  0.00  0.00    -0.166 SA
HETATM  126  S   UNK N   1      36.713  13.396   3.777  0.00  0.00    -0.166 SA
HETATM  127  S   UNK N   1      30.044  13.789   3.112  0.00  0.00    -0.166 SA
HETATM  128  S   UNK N   1      32.307  13.741   3.447  0.00  0.00    -0.166 SA
HETATM  129  H   UNK N   1      28.570  14.907   4.282  0.00  0.00     0.167 HD
HETATM  130  H   UNK N   1      32.712  14.316   4.252  0.00  0.00     0.167 HD
HETATM  131  H   UNK N   1      21.794  17.653   6.602  0.00  0.00     0.167 HD
HETATM  132  H   UNK N   1      29.444  17.239   7.412  0.00  0.00     0.167 HD
HETATM  133  H   UNK N   1      31.548  12.588   1.843  0.00  0.00     0.167 HD
HETATM  134  H   UNK N   1      39.254  12.178   2.666  0.00  0.00     0.167 HD
HETATM  135  H   UNK N   1      28.024  15.713   5.215  0.00  0.00     0.167 HD
HETATM  136  H   UNK N   1      32.519  14.889   4.949  0.00  0.00     0.167 HD
HETATM  137  H   UNK N   1      27.590  18.662   8.903  0.00  0.00     0.210 HD
HETATM  138  H   UNK N   1      28.103  15.011   4.333  0.00  0.00     0.210 HD
HETATM  139  H   UNK N   1      32.455  18.506   9.555  0.00  0.00     0.210 HD
HETATM  140  H   UNK N   1      24.891  13.563   1.923  0.00  0.00     0.210 HD
HETATM  141  H   UNK N   1      36.157  16.269   7.347  0.00  0.00     0.210 HD
HETATM  142  H   UNK N   1      28.593  11.326  -0.285  0.00  0.00     0.210 HD
HETATM  143  H   UNK N   1      34.415  14.868   5.255  0.00  0.00     0.210 HD
HETATM  144  H   UNK N   1      33.456  11.169   0.365  0.00  0.00     0.210 HD
HETATM  145  H   UNK N   1      29.557  18.682   9.273  0.00  0.00     0.210 HD
HETATM  146  H   UNK N   1      28.325  16.833   6.698  0.00  0.00     0.210 HD
HETATM  147  H   UNK N   1      34.039  17.650   8.740  0.00  0.00     0.210 HD
HETATM  148  H   UNK N   1      24.553  14.789   3.430  0.00  0.00     0.210 HD
HETATM  149  H   UNK N   1      36.494  15.042   5.839  0.00  0.00     0.210 HD
HETATM  150  H   UNK N   1      27.006  12.188   0.537  0.00  0.00     0.210 HD
HETATM  151  H   UNK N   1      32.773  12.971   2.546  0.00  0.00     0.210 HD
HETATM  152  H   UNK N   1      31.490  11.149  -0.004  0.00  0.00     0.210 HD
ENDROOT
TORSDOF 16
ENDMDL
MODEL 6
REMARK VINA RESULT:     -25.5      1.053      5.485
REMARK  16 active torsions:
REMARK  status: ('A' for Active; 'I' for Inactive)
REMARK    1  A    between atoms: O_105  and  C_65 
REMARK    2  A    between atoms: C_65  and  O_114 
REMARK    3  A    between atoms: O_106  and  C_66 
REMARK    4  A    between atoms: C_66  and  O_113 
REMARK    5  A    between atoms: O_107  and  C_67 
REMARK    6  A    between atoms: C_67  and  O_116 
REMARK    7  A    between atoms: O_108  and  C_68 
REMARK    8  A    between atoms: C_68  and  O_115 
REMARK    9  A    between atoms: O_109  and  C_69 
REMARK   10  A    between atoms: C_69  and  O_118 
REMARK   11  A    between atoms: O_110  and  C_70 
REMARK   12  A    between atoms: C_70  and  O_117 
REMARK   13  A    between atoms: O_111  and  C_71 
REMARK   14  A    between atoms: C_71  and  O_120 
REMARK   15  A    between atoms: O_112  and  C_72 
REMARK   16  A    between atoms: C_72  and  O_119 
ROOT
HETATM    1  C   UNK N   1      31.252  14.231   3.893  0.00  0.00     0.120 A 
HETATM    2  C   UNK N   1      28.940  14.535   3.876  0.00  0.00     0.120 A 
HETATM    3  C   UNK N   1      38.118  13.049   3.585  0.00  0.00     0.120 A 
HETATM    4  C   UNK N   1      30.237  12.992   2.136  0.00  0.00     0.120 A 
HETATM    5  C   UNK N   1      30.824  16.823   7.123  0.00  0.00     0.120 A 
HETATM    6  C   UNK N   1      22.930  16.779   5.688  0.00  0.00     0.120 A 
HETATM    7  C   UNK N   1      32.242  15.300   5.429  0.00  0.00     0.120 A 
HETATM    8  C   UNK N   1      29.826  15.513   5.278  0.00  0.00     0.120 A 
HETATM    9  C   UNK N   1      32.018  14.237   4.035  0.00  0.00     0.084 A 
HETATM   10  C   UNK N   1      29.453  14.130   3.450  0.00  0.00     0.084 A 
HETATM   11  C   UNK N   1      37.518  13.460   4.005  0.00  0.00     0.084 A 
HETATM   12  C   UNK N   1      29.499  13.278   2.371  0.00  0.00     0.084 A 
HETATM   13  C   UNK N   1      31.559  16.541   6.893  0.00  0.00     0.084 A 
HETATM   14  C   UNK N   1      23.531  16.367   5.267  0.00  0.00     0.084 A 
HETATM   15  C   UNK N   1      31.624  15.657   5.776  0.00  0.00     0.084 A 
HETATM   16  C   UNK N   1      29.094  15.639   5.311  0.00  0.00     0.084 A 
HETATM   17  C   UNK N   1      32.642  13.331   2.988  0.00  0.00     0.108 A 
HETATM   18  C   UNK N   1      30.125  13.307   2.517  0.00  0.00     0.108 A 
HETATM   19  C   UNK N   1      36.022  13.743   4.104  0.00  0.00     0.108 A 
HETATM   20  C   UNK N   1      28.156  13.815   2.822  0.00  0.00     0.108 A 
HETATM   21  C   UNK N   1      32.866  15.991   6.419  0.00  0.00     0.108 A 
HETATM   22  C   UNK N   1      25.026  16.085   5.168  0.00  0.00     0.108 A 
HETATM   23  C   UNK N   1      30.940  16.508   6.742  0.00  0.00     0.108 A 
HETATM   24  C   UNK N   1      28.381  16.531   6.324  0.00  0.00     0.108 A 
HETATM   25  C   UNK N   1      32.229  12.937   2.414  0.00  0.00     0.165 A 
HETATM   26  C   UNK N   1      29.643  12.944   1.971  0.00  0.00     0.165 A 
HETATM   27  C   UNK N   1      35.183  13.763   3.983  0.00  0.00     0.165 A 
HETATM   28  C   UNK N   1      27.573  14.106   3.090  0.00  0.00     0.165 A 
HETATM   29  C   UNK N   1      33.476  15.722   6.182  0.00  0.00     0.165 A 
HETATM   30  C   UNK N   1      25.866  16.064   5.289  0.00  0.00     0.165 A 
HETATM   31  C   UNK N   1      31.405  16.883   7.302  0.00  0.00     0.165 A 
HETATM   32  C   UNK N   1      28.819  16.890   6.859  0.00  0.00     0.165 A 
HETATM   33  C   UNK N   1      31.030  14.818   4.603  0.00  0.00     0.140 A 
HETATM   34  C   UNK N   1      28.161  14.641   3.875  0.00  0.00     0.140 A 
HETATM   35  C   UNK N   1      38.920  13.126   3.824  0.00  0.00     0.140 A 
HETATM   36  C   UNK N   1      30.690  13.391   2.723  0.00  0.00     0.140 A 
HETATM   37  C   UNK N   1      30.376  16.427   6.540  0.00  0.00     0.140 A 
HETATM   38  C   UNK N   1      22.128  16.701   5.448  0.00  0.00     0.140 A 
HETATM   39  C   UNK N   1      33.055  15.061   5.266  0.00  0.00     0.140 A 
HETATM   40  C   UNK N   1      29.969  14.979   4.622  0.00  0.00     0.140 A 
HETATM   41  C   UNK N   1      32.958  12.129   1.510  0.00  0.00     0.183 A 
HETATM   42  C   UNK N   1      33.818  14.087   4.158  0.00  0.00     0.183 A 
HETATM   43  C   UNK N   1      29.307  12.125   0.868  0.00  0.00     0.183 A 
HETATM   44  C   UNK N   1      34.679  16.072   6.839  0.00  0.00     0.183 A 
HETATM   45  C   UNK N   1      26.370  13.756   2.434  0.00  0.00     0.183 A 
HETATM   46  C   UNK N   1      31.741  17.702   8.404  0.00  0.00     0.183 A 
HETATM   47  C   UNK N   1      27.230  15.740   5.114  0.00  0.00     0.183 A 
HETATM   48  C   UNK N   1      28.090  17.699   7.762  0.00  0.00     0.183 A 
HETATM   49  C   UNK N   1      32.259  11.926   1.129  0.00  0.00     0.204 A 
HETATM   50  C   UNK N   1      33.624  13.616   3.524  0.00  0.00     0.204 A 
HETATM   51  C   UNK N   1      28.514  12.314   0.970  0.00  0.00     0.204 A 
HETATM   52  C   UNK N   1      35.101  15.602   6.314  0.00  0.00     0.204 A 
HETATM   53  C   UNK N   1      25.947  14.225   2.959  0.00  0.00     0.204 A 
HETATM   54  C   UNK N   1      32.535  17.513   8.302  0.00  0.00     0.204 A 
HETATM   55  C   UNK N   1      27.424  16.211   5.749  0.00  0.00     0.204 A 
HETATM   56  C   UNK N   1      28.789  17.902   8.143  0.00  0.00     0.204 A 
HETATM   57  C   UNK N   1      32.957  12.639   2.161  0.00  0.00     0.185 A 
HETATM   58  C   UNK N   1      29.888  12.438   1.368  0.00  0.00     0.185 A 
HETATM   59  C   UNK N   1      34.600  14.173   4.404  0.00  0.00     0.185 A 
HETATM   60  C   UNK N   1      27.192  13.686   2.489  0.00  0.00     0.185 A 
HETATM   61  C   UNK N   1      33.857  16.141   6.783  0.00  0.00     0.185 A 
HETATM   62  C   UNK N   1      26.448  15.654   4.868  0.00  0.00     0.185 A 
HETATM   63  C   UNK N   1      31.160  17.390   7.904  0.00  0.00     0.185 A 
HETATM   64  C   UNK N   1      28.091  17.189   7.112  0.00  0.00     0.185 A 
HETATM   65  C   UNK N   1      31.529  12.228   1.388  0.00  0.00     0.292 A 
HETATM   66  C   UNK N   1      34.198  13.205   3.099  0.00  0.00     0.292 A 
HETATM   67  C   UNK N   1      28.273  12.825   1.579  0.00  0.00     0.292 A 
HETATM   68  C   UNK N   1      34.713  15.182   5.711  0.00  0.00     0.292 A 
HETATM   69  C   UNK N   1      26.335  14.645   3.562  0.00  0.00     0.292 A 
HETATM   70  C   UNK N   1      32.776  17.003   7.693  0.00  0.00     0.292 A 
HETATM   71  C   UNK N   1      26.851  16.623   6.174  0.00  0.00     0.292 A 
HETATM   72  C   UNK N   1      29.519  17.599   7.885  0.00  0.00     0.292 A 
HETATM   73  O   UNK N   1      30.417  15.163   4.936  0.00  0.00    -0.650 OA
HETATM   74  O   UNK N   1      31.570  15.131   5.096  0.00  0.00    -0.776 OA
HETATM   75  O   UNK N   1      27.586  14.414   3.485  0.00  0.00    -0.650 OA
HETATM   76  O   UNK N   1      27.829  15.071   4.366  0.00  0.00    -0.776 OA
HETATM   77  O   UNK N   1      39.182  13.592   4.464  0.00  0.00    -0.650 OA
HETATM   78  O   UNK N   1      39.501  12.712   3.398  0.00  0.00    -0.776 OA
HETATM   79  O   UNK N   1      30.537  13.922   3.374  0.00  0.00    -0.650 OA
HETATM   80  O   UNK N   1      31.427  13.172   2.573  0.00  0.00    -0.776 OA
HETATM   81  O   UNK N   1      30.561  15.907   5.909  0.00  0.00    -0.650 OA
HETATM   82  O   UNK N   1      29.650  16.659   6.709  0.00  0.00    -0.776 OA
HETATM   83  O   UNK N   1      21.867  16.235   4.809  0.00  0.00    -0.650 OA
HETATM   84  O   UNK N   1      21.548  17.115   5.875  0.00  0.00    -0.776 OA
HETATM   85  O   UNK N   1      33.457  15.414   5.786  0.00  0.00    -0.650 OA
HETATM   86  O   UNK N   1      33.479  14.582   4.730  0.00  0.00    -0.776 OA
HETATM   87  O   UNK N   1      30.539  14.644   4.295  0.00  0.00    -0.650 OA
HETATM   88  O   UNK N   1      29.424  14.702   4.174  0.00  0.00    -0.776 OA
HETATM   89  O   UNK N   1      33.611  11.743   1.133  0.00  0.00    -0.390 OA
HETATM   90  O   UNK N   1      33.226  14.223   4.227  0.00  0.00    -0.390 OA
HETATM   91  O   UNK N   1      29.382  11.599   0.210  0.00  0.00    -0.390 OA
HETATM   92  O   UNK N   1      35.203  16.438   7.397  0.00  0.00    -0.390 OA
HETATM   93  O   UNK N   1      25.845  13.390   1.876  0.00  0.00    -0.390 OA
HETATM   94  O   UNK N   1      31.666  18.229   9.063  0.00  0.00    -0.390 OA
HETATM   95  O   UNK N   1      27.365  15.288   4.562  0.00  0.00    -0.390 OA
HETATM   96  O   UNK N   1      27.438  18.084   8.139  0.00  0.00    -0.390 OA
HETATM   97  O   UNK N   1      32.302  11.401   0.468  0.00  0.00    -0.388 OA
HETATM   98  O   UNK N   1      33.585  13.191   2.975  0.00  0.00    -0.388 OA
HETATM   99  O   UNK N   1      27.953  11.973   0.438  0.00  0.00    -0.388 OA
HETATM  100  O   UNK N   1      35.940  15.577   6.429  0.00  0.00    -0.388 OA
HETATM  101  O   UNK N   1      25.108  14.250   2.844  0.00  0.00    -0.388 OA
HETATM  102  O   UNK N   1      33.099  17.852   8.832  0.00  0.00    -0.388 OA
HETATM  103  O   UNK N   1      27.434  16.638   6.295  0.00  0.00    -0.388 OA
HETATM  104  O   UNK N   1      28.747  18.426   8.804  0.00  0.00    -0.388 OA
HETATM  105  O   UNK N   1      31.538  12.736   2.036  0.00  0.00    -0.350 OA
HETATM  106  O   UNK N   1      34.987  13.287   3.342  0.00  0.00    -0.350 OA
HETATM  107  O   UNK N   1      28.858  13.131   2.072  0.00  0.00    -0.350 OA
HETATM  108  O   UNK N   1      33.895  15.257   5.663  0.00  0.00    -0.350 OA
HETATM  109  O   UNK N   1      27.154  14.571   3.610  0.00  0.00    -0.350 OA
HETATM  110  O   UNK N   1      32.191  16.696   7.200  0.00  0.00    -0.350 OA
HETATM  111  O   UNK N   1      26.061  16.540   5.930  0.00  0.00    -0.350 OA
HETATM  112  O   UNK N   1      29.511  17.092   7.236  0.00  0.00    -0.350 OA
HETATM  113  O   UNK N   1      33.676  12.844   2.548  0.00  0.00    -0.348 OA
HETATM  114  O   UNK N   1      30.700  12.241   1.259  0.00  0.00    -0.348 OA
HETATM  115  O   UNK N   1      34.806  14.659   5.060  0.00  0.00    -0.348 OA
HETATM  116  O   UNK N   1      27.621  13.204   1.949  0.00  0.00    -0.348 OA
HETATM  117  O   UNK N   1      33.427  16.624   7.324  0.00  0.00    -0.348 OA
HETATM  118  O   UNK N   1      26.242  15.168   4.212  0.00  0.00    -0.348 OA
HETATM  119  O   UNK N   1      30.349  17.586   8.013  0.00  0.00    -0.348 OA
HETATM  120  O   UNK N   1      27.373  16.983   6.724  0.00  0.00    -0.348 OA
HETATM  121  S   UNK N   1      32.400  13.800   3.544  0.00  0.00    -0.166 SA
HETATM  122  S   UNK N   1      30.101  13.772   3.106  0.00  0.00    -0.166 SA
HETATM  123  S   UNK N   1      36.714  13.394   3.780  0.00  0.00    -0.166 SA
HETATM  124  S   UNK N   1      28.772  13.498   2.525  0.00  0.00    -0.166 SA
HETATM  125  S   UNK N   1      32.283  16.327   6.746  0.00  0.00    -0.166 SA
HETATM  126  S   UNK N   1      24.335  16.433   5.492  0.00  0.00    -0.166 SA
HETATM  127  S   UNK N   1      31.004  16.041   6.158  0.00  0.00    -0.166 SA
HETATM  128  S   UNK N   1      28.741  16.089   5.823  0.00  0.00    -0.166 SA
HETATM  129  H   UNK N   1      32.478  14.923   4.989  0.00  0.00     0.167 HD
HETATM  130  H   UNK N   1      28.335  15.514   5.019  0.00  0.00     0.167 HD
HETATM  131  H   UNK N   1      39.254  12.176   2.671  0.00  0.00     0.167 HD
HETATM  132  H   UNK N   1      31.605  12.589   1.861  0.00  0.00     0.167 HD
HETATM  133  H   UNK N   1      29.500  17.242   7.426  0.00  0.00     0.167 HD
HETATM  134  H   UNK N   1      21.794  17.652   6.602  0.00  0.00     0.167 HD
HETATM  135  H   UNK N   1      33.024  14.117   4.057  0.00  0.00     0.167 HD
HETATM  136  H   UNK N   1      28.529  14.940   4.321  0.00  0.00     0.167 HD
HETATM  137  H   UNK N   1      33.458  11.165   0.370  0.00  0.00     0.210 HD
HETATM  138  H   UNK N   1      32.945  14.819   4.938  0.00  0.00     0.210 HD
HETATM  139  H   UNK N   1      28.593  11.321  -0.282  0.00  0.00     0.210 HD
HETATM  140  H   UNK N   1      36.157  16.268   7.348  0.00  0.00     0.210 HD
HETATM  141  H   UNK N   1      24.891  13.558   1.924  0.00  0.00     0.210 HD
HETATM  142  H   UNK N   1      32.454  18.506   9.554  0.00  0.00     0.210 HD
HETATM  143  H   UNK N   1      26.633  14.960   4.016  0.00  0.00     0.210 HD
HETATM  144  H   UNK N   1      27.591  18.662   8.903  0.00  0.00     0.210 HD
HETATM  145  H   UNK N   1      31.491  11.145   0.000  0.00  0.00     0.210 HD
HETATM  146  H   UNK N   1      32.723  12.995   2.574  0.00  0.00     0.210 HD
HETATM  147  H   UNK N   1      27.009  12.177   0.532  0.00  0.00     0.210 HD
HETATM  148  H   UNK N   1      36.495  15.041   5.842  0.00  0.00     0.210 HD
HETATM  149  H   UNK N   1      24.554  14.787   3.431  0.00  0.00     0.210 HD
HETATM  150  H   UNK N   1      34.041  17.644   8.732  0.00  0.00     0.210 HD
HETATM  151  H   UNK N   1      28.274  16.859   6.724  0.00  0.00     0.210 HD
HETATM  152  H   UNK N   1      29.557  18.682   9.272  0.00  0.00     0.210 HD
ENDROOT
TORSDOF 16
ENDMDL
MODEL 7
REMARK VINA RESULT:     -25.4      4.312      8.095
REMARK  16 active torsions:
REMARK  status: ('A' for Active; 'I' for Inactive)
REMARK    1  A    between atoms: O_105  and  C_65 
REMARK    2  A    between atoms: C_65  and  O_114 
REMARK    3  A    between atoms: O_106  and  C_66 
REMARK    4  A    between atoms: C_66  and  O_113 
REMARK    5  A    between atoms: O_107  and  C_67 
REMARK    6  A    between atoms: C_67  and  O_116 
REMARK    7  A    between atoms: O_108  and  C_68 
REMARK    8  A    between atoms: C_68  and  O_115 
REMARK    9  A    between atoms: O_109  and  C_69 
REMARK   10  A    between atoms: C_69  and  O_118 
REMARK   11  A    between atoms: O_110  and  C_70 
REMARK   12  A    between atoms: C_70  and  O_117 
REMARK   13  A    between atoms: O_111  and  C_71 
REMARK   14  A    between atoms: C_71  and  O_120 
REMARK   15  A    between atoms: O_112  and  C_72 
REMARK   16  A    between atoms: C_72  and  O_119 
ROOT
HETATM    1  C   UNK N   1      33.367  13.399   6.888  0.00  0.00     0.120 A 
HETATM    2  C   UNK N   1      34.319  14.239   8.844  0.00  0.00     0.120 A 
HETATM    3  C   UNK N   1      30.538  11.310   0.865  0.00  0.00     0.120 A 
HETATM    4  C   UNK N   1      33.766  15.736   6.713  0.00  0.00     0.120 A 
HETATM    5  C   UNK N   1      33.579   9.916   9.159  0.00  0.00     0.120 A 
HETATM    6  C   UNK N   1      36.811  14.332  15.025  0.00  0.00     0.120 A 
HETATM    7  C   UNK N   1      32.976  11.320   6.952  0.00  0.00     0.120 A 
HETATM    8  C   UNK N   1      33.969  12.347   8.919  0.00  0.00     0.120 A 
HETATM    9  C   UNK N   1      33.054  12.968   6.319  0.00  0.00     0.084 A 
HETATM   10  C   UNK N   1      34.103  14.536   8.156  0.00  0.00     0.084 A 
HETATM   11  C   UNK N   1      30.790  11.050   1.624  0.00  0.00     0.084 A 
HETATM   12  C   UNK N   1      34.072  15.734   7.480  0.00  0.00     0.084 A 
HETATM   13  C   UNK N   1      33.274   9.915   8.397  0.00  0.00     0.084 A 
HETATM   14  C   UNK N   1      36.560  14.592  14.267  0.00  0.00     0.084 A 
HETATM   15  C   UNK N   1      33.235  11.148   7.683  0.00  0.00     0.084 A 
HETATM   16  C   UNK N   1      34.271  12.569   9.560  0.00  0.00     0.084 A 
HETATM   17  C   UNK N   1      32.785  13.925   5.171  0.00  0.00     0.108 A 
HETATM   18  C   UNK N   1      33.816  15.347   7.034  0.00  0.00     0.108 A 
HETATM   19  C   UNK N   1      31.407  11.470   2.954  0.00  0.00     0.108 A 
HETATM   20  C   UNK N   1      34.630  15.703   8.888  0.00  0.00     0.108 A 
HETATM   21  C   UNK N   1      32.731   9.985   7.005  0.00  0.00     0.108 A 
HETATM   22  C   UNK N   1      35.943  14.173  12.936  0.00  0.00     0.108 A 
HETATM   23  C   UNK N   1      33.527  10.304   8.834  0.00  0.00     0.108 A 
HETATM   24  C   UNK N   1      34.575  11.683  10.765  0.00  0.00     0.108 A 
HETATM   25  C   UNK N   1      32.949  14.717   5.182  0.00  0.00     0.165 A 
HETATM   26  C   UNK N   1      34.009  16.133   7.121  0.00  0.00     0.165 A 
HETATM   27  C   UNK N   1      31.751  11.903   3.597  0.00  0.00     0.165 A 
HETATM   28  C   UNK N   1      34.873  15.608   9.543  0.00  0.00     0.165 A 
HETATM   29  C   UNK N   1      32.477  10.034   6.347  0.00  0.00     0.165 A 
HETATM   30  C   UNK N   1      35.599  13.739  12.294  0.00  0.00     0.165 A 
HETATM   31  C   UNK N   1      33.341   9.509   8.769  0.00  0.00     0.165 A 
HETATM   32  C   UNK N   1      34.401  10.925  10.708  0.00  0.00     0.165 A 
HETATM   33  C   UNK N   1      33.466  12.679   7.495  0.00  0.00     0.140 A 
HETATM   34  C   UNK N   1      34.639  14.516   9.506  0.00  0.00     0.140 A 
HETATM   35  C   UNK N   1      30.211  10.756   0.324  0.00  0.00     0.140 A 
HETATM   36  C   UNK N   1      33.586  14.915   6.674  0.00  0.00     0.140 A 
HETATM   37  C   UNK N   1      33.757  10.731   9.196  0.00  0.00     0.140 A 
HETATM   38  C   UNK N   1      37.139  14.886  15.567  0.00  0.00     0.140 A 
HETATM   39  C   UNK N   1      32.640  11.215   6.164  0.00  0.00     0.140 A 
HETATM   40  C   UNK N   1      33.903  13.034   8.410  0.00  0.00     0.140 A 
HETATM   41  C   UNK N   1      32.639  15.476   4.029  0.00  0.00     0.183 A 
HETATM   42  C   UNK N   1      32.314  12.191   4.861  0.00  0.00     0.183 A 
HETATM   43  C   UNK N   1      34.135  17.493   6.756  0.00  0.00     0.183 A 
HETATM   44  C   UNK N   1      31.989   8.869   5.712  0.00  0.00     0.183 A 
HETATM   45  C   UNK N   1      35.361  16.774  10.179  0.00  0.00     0.183 A 
HETATM   46  C   UNK N   1      33.215   8.149   9.135  0.00  0.00     0.183 A 
HETATM   47  C   UNK N   1      35.036  13.452  11.029  0.00  0.00     0.183 A 
HETATM   48  C   UNK N   1      34.711  10.167  11.861  0.00  0.00     0.183 A 
HETATM   49  C   UNK N   1      32.923  16.152   4.399  0.00  0.00     0.204 A 
HETATM   50  C   UNK N   1      32.387  12.974   4.652  0.00  0.00     0.204 A 
HETATM   51  C   UNK N   1      34.462  17.660   7.491  0.00  0.00     0.204 A 
HETATM   52  C   UNK N   1      31.810   9.310   5.043  0.00  0.00     0.204 A 
HETATM   53  C   UNK N   1      35.540  16.333  10.848  0.00  0.00     0.204 A 
HETATM   54  C   UNK N   1      32.887   7.983   8.400  0.00  0.00     0.204 A 
HETATM   55  C   UNK N   1      34.963  12.669  11.239  0.00  0.00     0.204 A 
HETATM   56  C   UNK N   1      34.427   9.490  11.491  0.00  0.00     0.204 A 
HETATM   57  C   UNK N   1      32.647  14.744   4.414  0.00  0.00     0.185 A 
HETATM   58  C   UNK N   1      33.901  16.725   6.557  0.00  0.00     0.185 A 
HETATM   59  C   UNK N   1      31.995  11.636   4.341  0.00  0.00     0.185 A 
HETATM   60  C   UNK N   1      35.023  16.420   9.512  0.00  0.00     0.185 A 
HETATM   61  C   UNK N   1      32.327   9.223   6.378  0.00  0.00     0.185 A 
HETATM   62  C   UNK N   1      35.355  14.006  11.549  0.00  0.00     0.185 A 
HETATM   63  C   UNK N   1      33.449   8.918   9.334  0.00  0.00     0.185 A 
HETATM   64  C   UNK N   1      34.703  10.898  11.476  0.00  0.00     0.185 A 
HETATM   65  C   UNK N   1      33.226  16.120   5.172  0.00  0.00     0.292 A 
HETATM   66  C   UNK N   1      32.146  13.248   3.913  0.00  0.00     0.292 A 
HETATM   67  C   UNK N   1      34.568  17.060   8.055  0.00  0.00     0.292 A 
HETATM   68  C   UNK N   1      31.963  10.126   5.016  0.00  0.00     0.292 A 
HETATM   69  C   UNK N   1      35.387  15.516  10.874  0.00  0.00     0.292 A 
HETATM   70  C   UNK N   1      32.782   8.582   7.835  0.00  0.00     0.292 A 
HETATM   71  C   UNK N   1      35.203  12.394  11.978  0.00  0.00     0.292 A 
HETATM   72  C   UNK N   1      34.124   9.522  10.718  0.00  0.00     0.292 A 
HETATM   73  O   UNK N   1      33.722  12.522   8.213  0.00  0.00    -0.650 OA
HETATM   74  O   UNK N   1      33.249  11.933   7.327  0.00  0.00    -0.776 OA
HETATM   75  O   UNK N   1      34.871  15.158   9.765  0.00  0.00    -0.650 OA
HETATM   76  O   UNK N   1      34.781  14.082  10.078  0.00  0.00    -0.776 OA
HETATM   77  O   UNK N   1      30.110   9.944   0.479  0.00  0.00    -0.650 OA
HETATM   78  O   UNK N   1      29.967  11.030  -0.422  0.00  0.00    -0.776 OA
HETATM   79  O   UNK N   1      33.656  14.237   7.189  0.00  0.00    -0.650 OA
HETATM   80  O   UNK N   1      33.281  14.823   5.959  0.00  0.00    -0.776 OA
HETATM   81  O   UNK N   1      33.674  11.376   8.666  0.00  0.00    -0.650 OA
HETATM   82  O   UNK N   1      34.057  10.799   9.912  0.00  0.00    -0.776 OA
HETATM   83  O   UNK N   1      37.240  15.699  15.411  0.00  0.00    -0.650 OA
HETATM   84  O   UNK N   1      37.382  14.612  16.312  0.00  0.00    -0.776 OA
HETATM   85  O   UNK N   1      32.481  10.487   6.130  0.00  0.00    -0.650 OA
HETATM   86  O   UNK N   1      32.460  11.668   5.487  0.00  0.00    -0.776 OA
HETATM   87  O   UNK N   1      33.665  13.200   7.731  0.00  0.00    -0.650 OA
HETATM   88  O   UNK N   1      34.123  13.732   8.608  0.00  0.00    -0.776 OA
HETATM   89  O   UNK N   1      32.367  15.668   3.251  0.00  0.00    -0.390 OA
HETATM   90  O   UNK N   1      32.559  12.323   5.405  0.00  0.00    -0.390 OA
HETATM   91  O   UNK N   1      34.097  18.207   6.303  0.00  0.00    -0.390 OA
HETATM   92  O   UNK N   1      31.780   8.055   5.595  0.00  0.00    -0.390 OA
HETATM   93  O   UNK N   1      35.570  17.587  10.295  0.00  0.00    -0.390 OA
HETATM   94  O   UNK N   1      33.253   7.435   9.587  0.00  0.00    -0.390 OA
HETATM   95  O   UNK N   1      34.974  14.026  10.589  0.00  0.00    -0.390 OA
HETATM   96  O   UNK N   1      34.983   9.974  12.639  0.00  0.00    -0.390 OA
HETATM   97  O   UNK N   1      32.898  16.881   3.973  0.00  0.00    -0.388 OA
HETATM   98  O   UNK N   1      32.397  13.605   4.360  0.00  0.00    -0.388 OA
HETATM   99  O   UNK N   1      34.687  18.458   7.653  0.00  0.00    -0.388 OA
HETATM  100  O   UNK N   1      31.465   8.883   4.396  0.00  0.00    -0.388 OA
HETATM  101  O   UNK N   1      35.884  16.760  11.494  0.00  0.00    -0.388 OA
HETATM  102  O   UNK N   1      32.661   7.186   8.233  0.00  0.00    -0.388 OA
HETATM  103  O   UNK N   1      34.965  12.051  11.553  0.00  0.00    -0.388 OA
HETATM  104  O   UNK N   1      34.452   8.762  11.918  0.00  0.00    -0.388 OA
HETATM  105  O   UNK N   1      33.229  15.388   5.548  0.00  0.00    -0.350 OA
HETATM  106  O   UNK N   1      31.824  12.694   3.385  0.00  0.00    -0.350 OA
HETATM  107  O   UNK N   1      34.333  16.298   7.849  0.00  0.00    -0.350 OA
HETATM  108  O   UNK N   1      32.299  10.470   5.684  0.00  0.00    -0.350 OA
HETATM  109  O   UNK N   1      35.051  15.172  10.206  0.00  0.00    -0.350 OA
HETATM  110  O   UNK N   1      33.017   9.345   8.042  0.00  0.00    -0.350 OA
HETATM  111  O   UNK N   1      35.526  12.948  12.506  0.00  0.00    -0.350 OA
HETATM  112  O   UNK N   1      34.120  10.255  10.343  0.00  0.00    -0.350 OA
HETATM  113  O   UNK N   1      32.355  14.053   4.032  0.00  0.00    -0.348 OA
HETATM  114  O   UNK N   1      33.566  16.560   5.802  0.00  0.00    -0.348 OA
HETATM  115  O   UNK N   1      31.917  10.825   4.553  0.00  0.00    -0.348 OA
HETATM  116  O   UNK N   1      34.840  16.876   8.828  0.00  0.00    -0.348 OA
HETATM  117  O   UNK N   1      32.509   8.767   7.062  0.00  0.00    -0.348 OA
HETATM  118  O   UNK N   1      35.432  14.817  11.337  0.00  0.00    -0.348 OA
HETATM  119  O   UNK N   1      33.784   9.083  10.088  0.00  0.00    -0.348 OA
HETATM  120  O   UNK N   1      34.995  11.590  11.859  0.00  0.00    -0.348 OA
HETATM  121  S   UNK N   1      32.891  13.385   5.705  0.00  0.00    -0.166 SA
HETATM  122  S   UNK N   1      33.832  14.693   7.402  0.00  0.00    -0.166 SA
HETATM  123  S   UNK N   1      31.118  11.589   2.175  0.00  0.00    -0.166 SA
HETATM  124  S   UNK N   1      34.373  15.819   8.189  0.00  0.00    -0.166 SA
HETATM  125  S   UNK N   1      32.974   9.823   7.695  0.00  0.00    -0.166 SA
HETATM  126  S   UNK N   1      36.231  14.054  13.716  0.00  0.00    -0.166 SA
HETATM  127  S   UNK N   1      33.494  10.939   8.436  0.00  0.00    -0.166 SA
HETATM  128  S   UNK N   1      34.422  12.118  10.163  0.00  0.00    -0.166 SA
HETATM  129  H   UNK N   1      32.875  11.731   6.491  0.00  0.00     0.167 HD
HETATM  130  H   UNK N   1      34.580  13.168  10.033  0.00  0.00     0.167 HD
HETATM  131  H   UNK N   1      30.061  11.936  -0.641  0.00  0.00     0.167 HD
HETATM  132  H   UNK N   1      33.200  15.561   5.387  0.00  0.00     0.167 HD
HETATM  133  H   UNK N   1      34.127  10.045  10.464  0.00  0.00     0.167 HD
HETATM  134  H   UNK N   1      37.289  13.706  16.532  0.00  0.00     0.167 HD
HETATM  135  H   UNK N   1      32.640  12.587   5.477  0.00  0.00     0.167 HD
HETATM  136  H   UNK N   1      34.492  13.883   9.456  0.00  0.00     0.167 HD
HETATM  137  H   UNK N   1      32.421  16.582   2.930  0.00  0.00     0.210 HD
HETATM  138  H   UNK N   1      32.682  11.622   6.064  0.00  0.00     0.210 HD
HETATM  139  H   UNK N   1      34.416  19.041   6.684  0.00  0.00     0.210 HD
HETATM  140  H   UNK N   1      31.386   7.772   4.755  0.00  0.00     0.210 HD
HETATM  141  H   UNK N   1      35.964  17.872  11.135  0.00  0.00     0.210 HD
HETATM  142  H   UNK N   1      32.934   6.602   9.207  0.00  0.00     0.210 HD
HETATM  143  H   UNK N   1      35.269  14.900  10.889  0.00  0.00     0.210 HD
HETATM  144  H   UNK N   1      34.928   9.060  12.959  0.00  0.00     0.210 HD
HETATM  145  H   UNK N   1      33.226  17.695   4.385  0.00  0.00     0.210 HD
HETATM  146  H   UNK N   1      32.748  14.361   4.857  0.00  0.00     0.210 HD
HETATM  147  H   UNK N   1      35.077  18.687   8.512  0.00  0.00     0.210 HD
HETATM  148  H   UNK N   1      31.231   9.347   3.578  0.00  0.00     0.210 HD
HETATM  149  H   UNK N   1      36.119  16.296  12.312  0.00  0.00     0.210 HD
HETATM  150  H   UNK N   1      32.272   6.964   7.372  0.00  0.00     0.210 HD
HETATM  151  H   UNK N   1      34.623  11.270  11.092  0.00  0.00     0.210 HD
HETATM  152  H   UNK N   1      34.123   7.947  11.505  0.00  0.00     0.210 HD
ENDROOT
TORSDOF 16
ENDMDL
MODEL 8
REMARK VINA RESULT:     -25.3      4.479      8.700
REMARK  16 active torsions:
REMARK  status: ('A' for Active; 'I' for Inactive)
REMARK    1  A    between atoms: O_105  and  C_65 
REMARK    2  A    between atoms: C_65  and  O_114 
REMARK    3  A    between atoms: O_106  and  C_66 
REMARK    4  A    between atoms: C_66  and  O_113 
REMARK    5  A    between atoms: O_107  and  C_67 
REMARK    6  A    between atoms: C_67  and  O_116 
REMARK    7  A    between atoms: O_108  and  C_68 
REMARK    8  A    between atoms: C_68  and  O_115 
REMARK    9  A    between atoms: O_109  and  C_69 
REMARK   10  A    between atoms: C_69  and  O_118 
REMARK   11  A    between atoms: O_110  and  C_70 
REMARK   12  A    between atoms: C_70  and  O_117 
REMARK   13  A    between atoms: O_111  and  C_71 
REMARK   14  A    between atoms: C_71  and  O_120 
REMARK   15  A    between atoms: O_112  and  C_72 
REMARK   16  A    between atoms: C_72  and  O_119 
ROOT
HETATM    1  C   UNK N   1      33.456  11.693   7.124  0.00  0.00     0.120 A 
HETATM    2  C   UNK N   1      33.964  11.589   9.397  0.00  0.00     0.120 A 
HETATM    3  C   UNK N   1      31.864  11.555   0.335  0.00  0.00     0.120 A 
HETATM    4  C   UNK N   1      33.275   9.469   7.942  0.00  0.00     0.120 A 
HETATM    5  C   UNK N   1      34.297  15.701   7.876  0.00  0.00     0.120 A 
HETATM    6  C   UNK N   1      35.713  13.630  15.497  0.00  0.00     0.120 A 
HETATM    7  C   UNK N   1      33.591  13.641   6.306  0.00  0.00     0.120 A 
HETATM    8  C   UNK N   1      34.092  13.367   8.669  0.00  0.00     0.120 A 
HETATM    9  C   UNK N   1      33.319  11.897   6.384  0.00  0.00     0.084 A 
HETATM   10  C   UNK N   1      33.752  11.077   8.848  0.00  0.00     0.084 A 
HETATM   11  C   UNK N   1      32.094  12.057   0.969  0.00  0.00     0.084 A 
HETATM   12  C   UNK N   1      33.493   9.735   8.692  0.00  0.00     0.084 A 
HETATM   13  C   UNK N   1      34.081  15.440   7.129  0.00  0.00     0.084 A 
HETATM   14  C   UNK N   1      35.483  13.128  14.863  0.00  0.00     0.084 A 
HETATM   15  C   UNK N   1      33.809  14.052   6.950  0.00  0.00     0.084 A 
HETATM   16  C   UNK N   1      34.261  13.382   9.392  0.00  0.00     0.084 A 
HETATM   17  C   UNK N   1      32.939  10.615   5.663  0.00  0.00     0.108 A 
HETATM   18  C   UNK N   1      33.388   9.939   8.091  0.00  0.00     0.108 A 
HETATM   19  C   UNK N   1      32.448  12.126   2.451  0.00  0.00     0.108 A 
HETATM   20  C   UNK N   1      33.894  10.248  10.060  0.00  0.00     0.108 A 
HETATM   21  C   UNK N   1      33.682  14.896   5.794  0.00  0.00     0.108 A 
HETATM   22  C   UNK N   1      35.129  13.059  13.381  0.00  0.00     0.108 A 
HETATM   23  C   UNK N   1      34.183  15.230   7.722  0.00  0.00     0.108 A 
HETATM   24  C   UNK N   1      34.653  14.618  10.198  0.00  0.00     0.108 A 
HETATM   25  C   UNK N   1      32.898   9.886   6.010  0.00  0.00     0.165 A 
HETATM   26  C   UNK N   1      33.369   9.241   8.510  0.00  0.00     0.165 A 
HETATM   27  C   UNK N   1      32.606  11.946   3.264  0.00  0.00     0.165 A 
HETATM   28  C   UNK N   1      34.085  10.561  10.662  0.00  0.00     0.165 A 
HETATM   29  C   UNK N   1      33.492  14.624   5.170  0.00  0.00     0.165 A 
HETATM   30  C   UNK N   1      34.971  13.239  12.567  0.00  0.00     0.165 A 
HETATM   31  C   UNK N   1      34.209  15.944   7.322  0.00  0.00     0.165 A 
HETATM   32  C   UNK N   1      34.680  15.299   9.822  0.00  0.00     0.165 A 
HETATM   33  C   UNK N   1      33.669  12.569   7.415  0.00  0.00     0.140 A 
HETATM   34  C   UNK N   1      34.136  11.560  10.164  0.00  0.00     0.140 A 
HETATM   35  C   UNK N   1      31.742  11.881  -0.430  0.00  0.00     0.140 A 
HETATM   36  C   UNK N   1      33.310  10.216   7.556  0.00  0.00     0.140 A 
HETATM   37  C   UNK N   1      34.261  14.959   8.257  0.00  0.00     0.140 A 
HETATM   38  C   UNK N   1      35.836  13.304  16.262  0.00  0.00     0.140 A 
HETATM   39  C   UNK N   1      33.374  13.467   5.489  0.00  0.00     0.140 A 
HETATM   40  C   UNK N   1      33.909  12.555   8.461  0.00  0.00     0.140 A 
HETATM   41  C   UNK N   1      32.528   8.786   5.200  0.00  0.00     0.183 A 
HETATM   42  C   UNK N   1      32.949  12.115   4.625  0.00  0.00     0.183 A 
HETATM   43  C   UNK N   1      33.188   7.856   8.727  0.00  0.00     0.183 A 
HETATM   44  C   UNK N   1      33.377  15.484   4.053  0.00  0.00     0.183 A 
HETATM   45  C   UNK N   1      34.200   9.701  11.778  0.00  0.00     0.183 A 
HETATM   46  C   UNK N   1      34.389  17.329   7.105  0.00  0.00     0.183 A 
HETATM   47  C   UNK N   1      34.629  13.070  11.206  0.00  0.00     0.183 A 
HETATM   48  C   UNK N   1      35.049  16.399  10.631  0.00  0.00     0.183 A 
HETATM   49  C   UNK N   1      32.595   8.287   5.849  0.00  0.00     0.204 A 
HETATM   50  C   UNK N   1      32.846  11.318   4.751  0.00  0.00     0.204 A 
HETATM   51  C   UNK N   1      33.388   7.955   9.518  0.00  0.00     0.204 A 
HETATM   52  C   UNK N   1      33.163  14.846   3.584  0.00  0.00     0.204 A 
HETATM   53  C   UNK N   1      34.415  10.339  12.248  0.00  0.00     0.204 A 
HETATM   54  C   UNK N   1      34.190  17.230   6.313  0.00  0.00     0.204 A 
HETATM   55  C   UNK N   1      34.732  13.867  11.080  0.00  0.00     0.204 A 
HETATM   56  C   UNK N   1      34.983  16.898   9.983  0.00  0.00     0.204 A 
HETATM   57  C   UNK N   1      32.678   9.596   5.268  0.00  0.00     0.185 A 
HETATM   58  C   UNK N   1      33.175   8.499   8.207  0.00  0.00     0.185 A 
HETATM   59  C   UNK N   1      32.833  12.449   3.881  0.00  0.00     0.185 A 
HETATM   60  C   UNK N   1      34.031   9.799  10.975  0.00  0.00     0.185 A 
HETATM   61  C   UNK N   1      33.547  15.386   4.856  0.00  0.00     0.185 A 
HETATM   62  C   UNK N   1      34.745  12.736  11.951  0.00  0.00     0.185 A 
HETATM   63  C   UNK N   1      34.403  16.686   7.625  0.00  0.00     0.185 A 
HETATM   64  C   UNK N   1      34.899  15.589  10.564  0.00  0.00     0.185 A 
HETATM   65  C   UNK N   1      32.816   8.583   6.593  0.00  0.00     0.292 A 
HETATM   66  C   UNK N   1      32.620  10.809   4.143  0.00  0.00     0.292 A 
HETATM   67  C   UNK N   1      33.581   8.704   9.818  0.00  0.00     0.292 A 
HETATM   68  C   UNK N   1      33.109  14.080   3.904  0.00  0.00     0.292 A 
HETATM   69  C   UNK N   1      34.468  11.105  11.928  0.00  0.00     0.292 A 
HETATM   70  C   UNK N   1      33.996  16.481   6.014  0.00  0.00     0.292 A 
HETATM   71  C   UNK N   1      34.957  14.376  11.688  0.00  0.00     0.292 A 
HETATM   72  C   UNK N   1      34.761  16.602   9.238  0.00  0.00     0.292 A 
HETATM   73  O   UNK N   1      33.882  12.961   8.052  0.00  0.00    -0.650 OA
HETATM   74  O   UNK N   1      33.663  13.202   6.933  0.00  0.00    -0.776 OA
HETATM   75  O   UNK N   1      34.174  11.054  10.689  0.00  0.00    -0.650 OA
HETATM   76  O   UNK N   1      34.323  12.159  10.540  0.00  0.00    -0.776 OA
HETATM   77  O   UNK N   1      31.832  12.688  -0.622  0.00  0.00    -0.650 OA
HETATM   78  O   UNK N   1      31.515  11.371  -1.045  0.00  0.00    -0.776 OA
HETATM   79  O   UNK N   1      33.495  11.021   7.774  0.00  0.00    -0.650 OA
HETATM   80  O   UNK N   1      33.112  10.055   6.816  0.00  0.00    -0.776 OA
HETATM   81  O   UNK N   1      34.075  14.179   8.010  0.00  0.00    -0.650 OA
HETATM   82  O   UNK N   1      34.461  15.143   8.988  0.00  0.00    -0.776 OA
HETATM   83  O   UNK N   1      35.746  12.498  16.453  0.00  0.00    -0.650 OA
HETATM   84  O   UNK N   1      36.062  13.814  16.877  0.00  0.00    -0.776 OA
HETATM   85  O   UNK N   1      33.405  14.130   5.148  0.00  0.00    -0.650 OA
HETATM   86  O   UNK N   1      33.156  12.815   5.018  0.00  0.00    -0.776 OA
HETATM   87  O   UNK N   1      33.707  12.168   7.866  0.00  0.00    -0.650 OA
HETATM   88  O   UNK N   1      33.926  11.978   8.951  0.00  0.00    -0.776 OA
HETATM   89  O   UNK N   1      32.297   8.340   4.519  0.00  0.00    -0.390 OA
HETATM   90  O   UNK N   1      33.096  12.180   5.215  0.00  0.00    -0.390 OA
HETATM   91  O   UNK N   1      33.020   7.039   8.586  0.00  0.00    -0.390 OA
HETATM   92  O   UNK N   1      33.390  16.198   3.594  0.00  0.00    -0.390 OA
HETATM   93  O   UNK N   1      34.187   8.987  12.237  0.00  0.00    -0.390 OA
HETATM   94  O   UNK N   1      34.558  18.146   7.246  0.00  0.00    -0.390 OA
HETATM   95  O   UNK N   1      34.471  12.387  11.017  0.00  0.00    -0.390 OA
HETATM   96  O   UNK N   1      35.281  16.845  11.312  0.00  0.00    -0.390 OA
HETATM   97  O   UNK N   1      32.433   7.465   5.739  0.00  0.00    -0.388 OA
HETATM   98  O   UNK N   1      32.727  10.633   4.733  0.00  0.00    -0.388 OA
HETATM   99  O   UNK N   1      33.389   7.271  10.016  0.00  0.00    -0.388 OA
HETATM  100  O   UNK N   1      33.003  15.019   2.769  0.00  0.00    -0.388 OA
HETATM  101  O   UNK N   1      34.574  10.166  13.062  0.00  0.00    -0.388 OA
HETATM  102  O   UNK N   1      34.187  17.910   5.813  0.00  0.00    -0.388 OA
HETATM  103  O   UNK N   1      34.856  14.547  11.127  0.00  0.00    -0.388 OA
HETATM  104  O   UNK N   1      35.145  17.720  10.092  0.00  0.00    -0.388 OA
HETATM  105  O   UNK N   1      32.964   9.390   6.652  0.00  0.00    -0.350 OA
HETATM  106  O   UNK N   1      32.502  11.140   3.391  0.00  0.00    -0.350 OA
HETATM  107  O   UNK N   1      33.566   9.339   9.293  0.00  0.00    -0.350 OA
HETATM  108  O   UNK N   1      33.279  13.992   4.704  0.00  0.00    -0.350 OA
HETATM  109  O   UNK N   1      34.298  11.193  11.128  0.00  0.00    -0.350 OA
HETATM  110  O   UNK N   1      34.012  15.846   6.539  0.00  0.00    -0.350 OA
HETATM  111  O   UNK N   1      35.076  14.045  12.440  0.00  0.00    -0.350 OA
HETATM  112  O   UNK N   1      34.614  15.795   9.180  0.00  0.00    -0.350 OA
HETATM  113  O   UNK N   1      32.609  10.105   4.600  0.00  0.00    -0.348 OA
HETATM  114  O   UNK N   1      32.970   8.392   7.397  0.00  0.00    -0.348 OA
HETATM  115  O   UNK N   1      32.938  13.273   3.745  0.00  0.00    -0.348 OA
HETATM  116  O   UNK N   1      33.811   9.141  10.497  0.00  0.00    -0.348 OA
HETATM  117  O   UNK N   1      33.766  16.044   5.334  0.00  0.00    -0.348 OA
HETATM  118  O   UNK N   1      34.639  11.912  12.086  0.00  0.00    -0.348 OA
HETATM  119  O   UNK N   1      34.607  16.793   8.435  0.00  0.00    -0.348 OA
HETATM  120  O   UNK N   1      34.969  15.080  11.231  0.00  0.00    -0.348 OA
HETATM  121  S   UNK N   1      33.121  11.299   5.958  0.00  0.00    -0.166 SA
HETATM  122  S   UNK N   1      33.529  10.671   8.175  0.00  0.00    -0.166 SA
HETATM  123  S   UNK N   1      32.221  11.748   1.737  0.00  0.00    -0.166 SA
HETATM  124  S   UNK N   1      33.689   9.900   9.424  0.00  0.00    -0.166 SA
HETATM  125  S   UNK N   1      33.886  15.283   6.401  0.00  0.00    -0.166 SA
HETATM  126  S   UNK N   1      35.357  13.438  14.095  0.00  0.00    -0.166 SA
HETATM  127  S   UNK N   1      34.034  14.505   7.600  0.00  0.00    -0.166 SA
HETATM  128  S   UNK N   1      34.458  14.007   9.792  0.00  0.00    -0.166 SA
HETATM  129  H   UNK N   1      33.438  13.102   6.029  0.00  0.00     0.167 HD
HETATM  130  H   UNK N   1      34.362  12.990  10.109  0.00  0.00     0.167 HD
HETATM  131  H   UNK N   1      31.402  10.457  -0.877  0.00  0.00     0.167 HD
HETATM  132  H   UNK N   1      32.909   9.174   6.568  0.00  0.00     0.167 HD
HETATM  133  H   UNK N   1      34.660  16.031   9.210  0.00  0.00     0.167 HD
HETATM  134  H   UNK N   1      36.176  14.729  16.709  0.00  0.00     0.167 HD
HETATM  135  H   UNK N   1      33.101  11.960   5.396  0.00  0.00     0.167 HD
HETATM  136  H   UNK N   1      34.158  12.129   9.847  0.00  0.00     0.167 HD
HETATM  137  H   UNK N   1      32.154   7.383   4.591  0.00  0.00     0.210 HD
HETATM  138  H   UNK N   1      33.322  13.055   5.564  0.00  0.00     0.210 HD
HETATM  139  H   UNK N   1      33.081   6.398   9.312  0.00  0.00     0.210 HD
HETATM  140  H   UNK N   1      33.168  16.171   2.651  0.00  0.00     0.210 HD
HETATM  141  H   UNK N   1      34.410   9.013  13.181  0.00  0.00     0.210 HD
HETATM  142  H   UNK N   1      34.497  18.787   6.521  0.00  0.00     0.210 HD
HETATM  143  H   UNK N   1      34.507  11.681  11.681  0.00  0.00     0.210 HD
HETATM  144  H   UNK N   1      35.424  17.802  11.240  0.00  0.00     0.210 HD
HETATM  145  H   UNK N   1      32.504   6.853   6.489  0.00  0.00     0.210 HD
HETATM  146  H   UNK N   1      32.826  10.103   5.540  0.00  0.00     0.210 HD
HETATM  147  H   UNK N   1      33.620   7.355  10.954  0.00  0.00     0.210 HD
HETATM  148  H   UNK N   1      32.745  14.307   2.164  0.00  0.00     0.210 HD
HETATM  149  H   UNK N   1      34.833  10.878  13.668  0.00  0.00     0.210 HD
HETATM  150  H   UNK N   1      33.956  17.820   4.875  0.00  0.00     0.210 HD
HETATM  151  H   UNK N   1      34.769  15.112  10.344  0.00  0.00     0.210 HD
HETATM  152  H   UNK N   1      35.073  18.332   9.343  0.00  0.00     0.210 HD
ENDROOT
TORSDOF 16
ENDMDL
MODEL 9
REMARK VINA RESULT:     -25.3      1.813      2.408
REMARK  16 active torsions:
REMARK  status: ('A' for Active; 'I' for Inactive)
REMARK    1  A    between atoms: O_105  and  C_65 
REMARK    2  A    between atoms: C_65  and  O_114 
REMARK    3  A    between atoms: O_106  and  C_66 
REMARK    4  A    between atoms: C_66  and  O_113 
REMARK    5  A    between atoms: O_107  and  C_67 
REMARK    6  A    between atoms: C_67  and  O_116 
REMARK    7  A    between atoms: O_108  and  C_68 
REMARK    8  A    between atoms: C_68  and  O_115 
REMARK    9  A    between atoms: O_109  and  C_69 
REMARK   10  A    between atoms: C_69  and  O_118 
REMARK   11  A    between atoms: O_110  and  C_70 
REMARK   12  A    between atoms: C_70  and  O_117 
REMARK   13  A    between atoms: O_111  and  C_71 
REMARK   14  A    between atoms: C_71  and  O_120 
REMARK   15  A    between atoms: O_112  and  C_72 
REMARK   16  A    between atoms: C_72  and  O_119 
ROOT
HETATM    1  C   UNK N   1      30.647  15.182   6.085  0.00  0.00     0.120 A 
HETATM    2  C   UNK N   1      28.574  15.439   5.050  0.00  0.00     0.120 A 
HETATM    3  C   UNK N   1      36.758  14.790   9.424  0.00  0.00     0.120 A 
HETATM    4  C   UNK N   1      29.509  17.100   6.908  0.00  0.00     0.120 A 
HETATM    5  C   UNK N   1      30.685  11.893   3.532  0.00  0.00     0.120 A 
HETATM    6  C   UNK N   1      23.427  14.191   1.002  0.00  0.00     0.120 A 
HETATM    7  C   UNK N   1      31.735  13.495   5.413  0.00  0.00     0.120 A 
HETATM    8  C   UNK N   1      29.550  13.900   4.427  0.00  0.00     0.120 A 
HETATM    9  C   UNK N   1      31.352  14.957   6.329  0.00  0.00     0.084 A 
HETATM   10  C   UNK N   1      28.978  15.825   5.593  0.00  0.00     0.084 A 
HETATM   11  C   UNK N   1      36.275  14.419   8.845  0.00  0.00     0.084 A 
HETATM   12  C   UNK N   1      28.878  16.934   6.402  0.00  0.00     0.084 A 
HETATM   13  C   UNK N   1      31.314  12.056   4.034  0.00  0.00     0.084 A 
HETATM   14  C   UNK N   1      23.910  14.563   1.581  0.00  0.00     0.084 A 
HETATM   15  C   UNK N   1      31.226  13.200   4.879  0.00  0.00     0.084 A 
HETATM   16  C   UNK N   1      28.899  13.942   4.072  0.00  0.00     0.084 A 
HETATM   17  C   UNK N   1      31.774  15.973   7.377  0.00  0.00     0.108 A 
HETATM   18  C   UNK N   1      29.458  16.718   6.579  0.00  0.00     0.108 A 
HETATM   19  C   UNK N   1      34.948  14.471   8.094  0.00  0.00     0.108 A 
HETATM   20  C   UNK N   1      27.734  16.608   5.464  0.00  0.00     0.108 A 
HETATM   21  C   UNK N   1      32.423  12.409   4.973  0.00  0.00     0.108 A 
HETATM   22  C   UNK N   1      25.237  14.510   2.331  0.00  0.00     0.108 A 
HETATM   23  C   UNK N   1      30.740  12.275   3.864  0.00  0.00     0.108 A 
HETATM   24  C   UNK N   1      28.392  12.971   3.008  0.00  0.00     0.108 A 
HETATM   25  C   UNK N   1      31.330  16.607   7.609  0.00  0.00     0.165 A 
HETATM   26  C   UNK N   1      28.955  17.332   6.760  0.00  0.00     0.165 A 
HETATM   27  C   UNK N   1      34.180  14.683   7.802  0.00  0.00     0.165 A 
HETATM   28  C   UNK N   1      27.246  16.391   5.004  0.00  0.00     0.165 A 
HETATM   29  C   UNK N   1      32.938  12.590   5.422  0.00  0.00     0.165 A 
HETATM   30  C   UNK N   1      26.004  14.298   2.623  0.00  0.00     0.165 A 
HETATM   31  C   UNK N   1      31.230  11.649   3.666  0.00  0.00     0.165 A 
HETATM   32  C   UNK N   1      28.855  12.374   2.817  0.00  0.00     0.165 A 
HETATM   33  C   UNK N   1      30.541  14.473   5.466  0.00  0.00     0.140 A 
HETATM   34  C   UNK N   1      27.876  15.520   4.697  0.00  0.00     0.140 A 
HETATM   35  C   UNK N   1      37.508  14.461   9.613  0.00  0.00     0.140 A 
HETATM   36  C   UNK N   1      29.991  16.447   6.685  0.00  0.00     0.140 A 
HETATM   37  C   UNK N   1      30.208  12.541   3.755  0.00  0.00     0.140 A 
HETATM   38  C   UNK N   1      22.677  14.521   0.813  0.00  0.00     0.140 A 
HETATM   39  C   UNK N   1      32.442  13.579   5.901  0.00  0.00     0.140 A 
HETATM   40  C   UNK N   1      29.593  14.562   4.971  0.00  0.00     0.140 A 
HETATM   41  C   UNK N   1      31.864  17.464   8.599  0.00  0.00     0.183 A 
HETATM   42  C   UNK N   1      32.980  14.644   7.056  0.00  0.00     0.183 A 
HETATM   43  C   UNK N   1      28.510  18.504   7.413  0.00  0.00     0.183 A 
HETATM   44  C   UNK N   1      34.101  11.788   5.488  0.00  0.00     0.183 A 
HETATM   45  C   UNK N   1      26.083  17.193   4.938  0.00  0.00     0.183 A 
HETATM   46  C   UNK N   1      31.674  10.477   3.013  0.00  0.00     0.183 A 
HETATM   47  C   UNK N   1      27.204  14.338   3.370  0.00  0.00     0.183 A 
HETATM   48  C   UNK N   1      28.320  11.517   1.826  0.00  0.00     0.183 A 
HETATM   49  C   UNK N   1      31.188  17.930   8.560  0.00  0.00     0.204 A 
HETATM   50  C   UNK N   1      32.724  15.318   7.431  0.00  0.00     0.204 A 
HETATM   51  C   UNK N   1      27.812  18.481   6.978  0.00  0.00     0.204 A 
HETATM   52  C   UNK N   1      34.411  12.286   6.063  0.00  0.00     0.204 A 
HETATM   53  C   UNK N   1      25.773  16.695   4.363  0.00  0.00     0.204 A 
HETATM   54  C   UNK N   1      32.372  10.500   3.447  0.00  0.00     0.204 A 
HETATM   55  C   UNK N   1      27.461  13.663   2.995  0.00  0.00     0.204 A 
HETATM   56  C   UNK N   1      28.996  11.052   1.865  0.00  0.00     0.204 A 
HETATM   57  C   UNK N   1      31.948  16.794   8.124  0.00  0.00     0.185 A 
HETATM   58  C   UNK N   1      29.096  17.929   7.311  0.00  0.00     0.185 A 
HETATM   59  C   UNK N   1      33.713  14.309   7.231  0.00  0.00     0.185 A 
HETATM   60  C   UNK N   1      26.826  17.051   5.270  0.00  0.00     0.185 A 
HETATM   61  C   UNK N   1      33.358  11.931   5.156  0.00  0.00     0.185 A 
HETATM   62  C   UNK N   1      26.471  14.672   3.195  0.00  0.00     0.185 A 
HETATM   63  C   UNK N   1      31.089  11.053   3.114  0.00  0.00     0.185 A 
HETATM   64  C   UNK N   1      28.236  12.188   2.302  0.00  0.00     0.185 A 
HETATM   65  C   UNK N   1      30.569  17.738   8.041  0.00  0.00     0.292 A 
HETATM   66  C   UNK N   1      33.182  15.697   8.001  0.00  0.00     0.292 A 
HETATM   67  C   UNK N   1      27.676  17.878   6.425  0.00  0.00     0.292 A 
HETATM   68  C   UNK N   1      33.985  12.949   6.328  0.00  0.00     0.292 A 
HETATM   69  C   UNK N   1      26.199  16.032   4.098  0.00  0.00     0.292 A 
HETATM   70  C   UNK N   1      32.508  11.104   4.001  0.00  0.00     0.292 A 
HETATM   71  C   UNK N   1      27.002  13.284   2.424  0.00  0.00     0.292 A 
HETATM   72  C   UNK N   1      29.616  11.243   2.385  0.00  0.00     0.292 A 
HETATM   73  O   UNK N   1      30.035  14.193   4.946  0.00  0.00    -0.650 OA
HETATM   74  O   UNK N   1      31.089  13.908   5.352  0.00  0.00    -0.776 OA
HETATM   75  O   UNK N   1      27.310  15.982   4.721  0.00  0.00    -0.650 OA
HETATM   76  O   UNK N   1      27.643  15.048   4.188  0.00  0.00    -0.776 OA
HETATM   77  O   UNK N   1      37.825  13.773   9.264  0.00  0.00    -0.650 OA
HETATM   78  O   UNK N   1      37.972  14.840  10.188  0.00  0.00    -0.776 OA
HETATM   79  O   UNK N   1      29.939  15.792   6.140  0.00  0.00    -0.650 OA
HETATM   80  O   UNK N   1      30.631  16.527   7.129  0.00  0.00    -0.776 OA
HETATM   81  O   UNK N   1      30.291  13.173   4.300  0.00  0.00    -0.650 OA
HETATM   82  O   UNK N   1      29.580  12.443   3.303  0.00  0.00    -0.776 OA
HETATM   83  O   UNK N   1      22.359  15.208   1.161  0.00  0.00    -0.650 OA
HETATM   84  O   UNK N   1      22.213  14.141   0.238  0.00  0.00    -0.776 OA
HETATM   85  O   UNK N   1      32.869  13.001   5.702  0.00  0.00    -0.650 OA
HETATM   86  O   UNK N   1      32.751  14.088   6.484  0.00  0.00    -0.776 OA
HETATM   87  O   UNK N   1      30.061  14.841   5.469  0.00  0.00    -0.650 OA
HETATM   88  O   UNK N   1      29.046  15.081   5.051  0.00  0.00    -0.776 OA
HETATM   89  O   UNK N   1      32.400  17.786   9.171  0.00  0.00    -0.390 OA
HETATM   90  O   UNK N   1      32.459  14.633   6.737  0.00  0.00    -0.390 OA
HETATM   91  O   UNK N   1      28.491  19.176   7.928  0.00  0.00    -0.390 OA
HETATM   92  O   UNK N   1      34.644  11.159   5.318  0.00  0.00    -0.390 OA
HETATM   93  O   UNK N   1      25.540  17.823   5.107  0.00  0.00    -0.390 OA
HETATM   94  O   UNK N   1      31.693   9.805   2.498  0.00  0.00    -0.390 OA
HETATM   95  O   UNK N   1      27.252  14.894   3.834  0.00  0.00    -0.390 OA
HETATM   96  O   UNK N   1      27.785  11.195   1.255  0.00  0.00    -0.390 OA
HETATM   97  O   UNK N   1      31.140  18.607   9.063  0.00  0.00    -0.388 OA
HETATM   98  O   UNK N   1      32.617  15.888   7.814  0.00  0.00    -0.388 OA
HETATM   99  O   UNK N   1      27.240  19.089   7.113  0.00  0.00    -0.388 OA
HETATM  100  O   UNK N   1      35.178  12.081   6.360  0.00  0.00    -0.388 OA
HETATM  101  O   UNK N   1      25.006  16.900   4.066  0.00  0.00    -0.388 OA
HETATM  102  O   UNK N   1      32.946   9.895   3.316  0.00  0.00    -0.388 OA
HETATM  103  O   UNK N   1      27.541  13.099   2.601  0.00  0.00    -0.388 OA
HETATM  104  O   UNK N   1      29.044  10.374   1.363  0.00  0.00    -0.388 OA
HETATM  105  O   UNK N   1      30.661  17.069   7.571  0.00  0.00    -0.350 OA
HETATM  106  O   UNK N   1      33.921  15.365   8.182  0.00  0.00    -0.350 OA
HETATM  107  O   UNK N   1      28.265  17.309   6.330  0.00  0.00    -0.350 OA
HETATM  108  O   UNK N   1      33.246  13.083   5.991  0.00  0.00    -0.350 OA
HETATM  109  O   UNK N   1      26.939  15.898   4.434  0.00  0.00    -0.350 OA
HETATM  110  O   UNK N   1      31.920  11.673   4.096  0.00  0.00    -0.350 OA
HETATM  111  O   UNK N   1      26.263  13.617   2.244  0.00  0.00    -0.350 OA
HETATM  112  O   UNK N   1      29.524  11.913   2.854  0.00  0.00    -0.350 OA
HETATM  113  O   UNK N   1      32.643  16.319   8.167  0.00  0.00    -0.348 OA
HETATM  114  O   UNK N   1      29.808  17.957   7.759  0.00  0.00    -0.348 OA
HETATM  115  O   UNK N   1      33.983  13.611   6.845  0.00  0.00    -0.348 OA
HETATM  116  O   UNK N   1      27.140  17.564   5.859  0.00  0.00    -0.348 OA
HETATM  117  O   UNK N   1      33.044  11.417   4.567  0.00  0.00    -0.348 OA
HETATM  118  O   UNK N   1      26.201  15.371   3.581  0.00  0.00    -0.348 OA
HETATM  119  O   UNK N   1      30.376  11.024   2.667  0.00  0.00    -0.348 OA
HETATM  120  O   UNK N   1      27.542  12.662   2.259  0.00  0.00    -0.348 OA
HETATM  121  S   UNK N   1      31.630  15.424   6.861  0.00  0.00    -0.166 SA
HETATM  122  S   UNK N   1      29.513  16.113   6.139  0.00  0.00    -0.166 SA
HETATM  123  S   UNK N   1      35.525  14.734   8.645  0.00  0.00    -0.166 SA
HETATM  124  S   UNK N   1      28.247  16.850   5.960  0.00  0.00    -0.166 SA
HETATM  125  S   UNK N   1      31.943  12.132   4.470  0.00  0.00    -0.166 SA
HETATM  126  S   UNK N   1      24.659  14.247   1.781  0.00  0.00    -0.166 SA
HETATM  127  S   UNK N   1      30.720  12.871   4.319  0.00  0.00    -0.166 SA
HETATM  128  S   UNK N   1      28.650  13.450   3.537  0.00  0.00    -0.166 SA
HETATM  129  H   UNK N   1      31.889  13.925   5.841  0.00  0.00     0.167 HD
HETATM  130  H   UNK N   1      28.181  14.322   3.941  0.00  0.00     0.167 HD
HETATM  131  H   UNK N   1      37.656  15.616  10.607  0.00  0.00     0.167 HD
HETATM  132  H   UNK N   1      30.698  17.243   7.730  0.00  0.00     0.167 HD
HETATM  133  H   UNK N   1      29.539  11.718   2.711  0.00  0.00     0.167 HD
HETATM  134  H   UNK N   1      22.528  13.365  -0.182  0.00  0.00     0.167 HD
HETATM  135  H   UNK N   1      32.256  14.830   6.770  0.00  0.00     0.167 HD
HETATM  136  H   UNK N   1      28.264  15.022   4.538  0.00  0.00     0.167 HD
HETATM  137  H   UNK N   1      32.163  18.590   9.659  0.00  0.00     0.210 HD
HETATM  138  H   UNK N   1      32.301  13.929   6.090  0.00  0.00     0.210 HD
HETATM  139  H   UNK N   1      27.720  19.765   7.929  0.00  0.00     0.210 HD
HETATM  140  H   UNK N   1      35.492  11.111   5.787  0.00  0.00     0.210 HD
HETATM  141  H   UNK N   1      24.692  17.872   4.640  0.00  0.00     0.210 HD
HETATM  142  H   UNK N   1      32.463   9.217   2.496  0.00  0.00     0.210 HD
HETATM  143  H   UNK N   1      26.526  15.533   3.902  0.00  0.00     0.210 HD
HETATM  144  H   UNK N   1      28.022  10.391   0.767  0.00  0.00     0.210 HD
HETATM  145  H   UNK N   1      30.353  19.174   9.037  0.00  0.00     0.210 HD
HETATM  146  H   UNK N   1      31.793  16.391   7.716  0.00  0.00     0.210 HD
HETATM  147  H   UNK N   1      26.407  19.089   6.616  0.00  0.00     0.210 HD
HETATM  148  H   UNK N   1      35.598  12.630   7.040  0.00  0.00     0.210 HD
HETATM  149  H   UNK N   1      24.586  16.352   3.386  0.00  0.00     0.210 HD
HETATM  150  H   UNK N   1      33.777   9.901   3.816  0.00  0.00     0.210 HD
HETATM  151  H   UNK N   1      28.350  12.569   2.668  0.00  0.00     0.210 HD
HETATM  152  H   UNK N   1      29.831   9.807   1.388  0.00  0.00     0.210 HD
ENDROOT
TORSDOF 16
ENDMDL
