MODEL 1
REMARK VINA RESULT:      -7.6      0.000      0.000
REMARK  14 active torsions:
REMARK  status: ('A' for Active; 'I' for Inactive)
REMARK    1  A    between atoms: C_1  and  C_2 
REMARK    2  A    between atoms: C_7  and  O_13 
REMARK    3  A    between atoms: C_20  and  N_23 
REMARK    4  A    between atoms: C_21  and  N_25 
REMARK       I    between atoms: N_23  and  C_28 
REMARK       I    between atoms: N_25  and  C_31 
REMARK    5  A    between atoms: C_26  and  C_33 
REMARK       I    between atoms: C_28  and  N_34 
REMARK    6  A    between atoms: C_31  and  C_37 
REMARK    7  A    between atoms: C_33  and  O_40 
REMARK    8  A    between atoms: C_36  and  C_41 
REMARK    9  A    between atoms: C_37  and  C_42 
REMARK   10  A    between atoms: C_42  and  C_45 
REMARK   11  A    between atoms: C_42  and  N_46 
REMARK   12  A    between atoms: C_45  and  C_47 
REMARK   13  A    between atoms: C_47  and  C_48 
REMARK   14  A    between atoms: C_48  and  N_49 
ROOT
HETATM    1  C   UNK N   1      27.732  20.481   4.535  0.00  0.00     0.199 C 
HETATM    2  O   UNK N   1      27.465  20.543   5.903  0.00  0.00    -0.398 OA
HETATM    3  H   UNK N   1      27.427  20.612   6.871  0.00  0.00     0.209 HD
ENDROOT
BRANCH   1   4
HETATM    4  C   UNK N   1      27.480  19.081   3.985  0.00  0.00     0.200 C 
HETATM    5  N   UNK N   1      28.197  18.082   4.751  0.00  0.00    -0.344 N 
HETATM    6  C   UNK N   1      28.259  16.796   4.332  0.00  0.00     0.242 C 
HETATM    7  H   UNK N   1      28.647  18.342   5.588  0.00  0.00     0.163 HD
HETATM    8  C   UNK N   1      28.918  15.737   5.167  0.00  0.00     0.194 C 
HETATM    9  O   UNK N   1      27.707  16.462   3.291  0.00  0.00    -0.271 OA
HETATM   10  C   UNK N   1      28.767  14.273   4.807  0.00  0.00     0.157 C 
HETATM   11  N   UNK N   1      27.404  13.789   4.934  0.00  0.00    -0.357 N 
HETATM   12  C   UNK N   1      26.325  14.417   5.496  0.00  0.00     0.242 C 
HETATM   13  H   UNK N   1      27.233  12.890   4.570  0.00  0.00     0.162 HD
HETATM   14  C   UNK N   1      24.996  13.741   5.447  0.00  0.00     0.200 C 
HETATM   15  O   UNK N   1      26.413  15.518   6.017  0.00  0.00    -0.271 OA
HETATM   16  N   UNK N   1      24.739  13.318   4.080  0.00  0.00    -0.340 N 
HETATM   17  C   UNK N   1      23.749  13.811   3.291  0.00  0.00     0.270 C 
HETATM   18  H   UNK N   1      25.325  12.624   3.700  0.00  0.00     0.163 HD
HETATM   19  C   UNK N   1      22.966  15.014   3.663  0.00  0.00     0.118 C 
HETATM   20  O   UNK N   1      23.441  13.190   2.285  0.00  0.00    -0.266 OA
HETATM   21  N   UNK N   1      23.635  16.257   3.942  0.00  0.00    -0.320 N 
HETATM   22  C   UNK N   1      21.628  14.929   3.595  0.00  0.00     0.128 C 
HETATM   23  C   UNK N   1      23.301  17.103   4.953  0.00  0.00     0.247 C 
HETATM   24  H   UNK N   1      24.386  16.513   3.359  0.00  0.00     0.169 HD
HETATM   25  C   UNK N   1      23.765  18.541   4.956  0.00  0.00     0.200 C 
HETATM   26  O   UNK N   1      22.566  16.727   5.854  0.00  0.00    -0.271 OA
HETATM   27  N   UNK N   1      25.210  18.732   4.979  0.00  0.00    -0.344 N 
HETATM   28  C   UNK N   1      26.004  18.759   3.870  0.00  0.00     0.243 C 
HETATM   29  H   UNK N   1      25.641  18.850   5.855  0.00  0.00     0.163 HD
HETATM   30  O   UNK N   1      25.534  18.548   2.763  0.00  0.00    -0.271 OA
BRANCH   8  31
HETATM   31  N   UNK N   1      29.824  16.049   6.245  0.00  0.00    -0.346 N 
HETATM   32  C   UNK N   1      31.013  16.670   6.024  0.00  0.00     0.220 C 
HETATM   33  O   UNK N   1      31.401  16.896   4.887  0.00  0.00    -0.274 OA
HETATM   34  H   UNK N   1      29.575  15.804   7.164  0.00  0.00     0.163 HD
BRANCH  32  35
HETATM   35  C   UNK N   1      31.817  17.178   7.181  0.00  0.00     0.127 C 
BRANCH  35  36
HETATM   36  C   UNK N   1      31.082  16.994   8.515  0.00  0.00     0.082 C 
BRANCH  36  37
HETATM   37  C   UNK N   1      30.668  18.345   9.097  0.00  0.00     0.026 C 
BRANCH  37  38
HETATM   38  C   UNK N   1      29.365  18.281   9.884  0.00  0.00     0.021 C 
BRANCH  38  39
HETATM   39  C   UNK N   1      28.207  17.825   9.013  0.00  0.00     0.111 C 
BRANCH  39  40
HETATM   40  N   UNK N   1      27.496  18.980   8.493  0.00  0.00    -0.430 N 
HETATM   41  H   UNK N   1      26.884  19.611   9.013  0.00  0.00     0.149 HD
HETATM   42  H   UNK N   1      27.622  19.183   7.502  0.00  0.00     0.149 HD
ENDBRANCH  39  40
ENDBRANCH  38  39
ENDBRANCH  37  38
ENDBRANCH  36  37
BRANCH  36  43
HETATM   43  N   UNK N   1      31.908  16.253   9.461  0.00  0.00    -0.426 N 
HETATM   44  H   UNK N   1      32.585  15.524   9.237  0.00  0.00     0.150 HD
HETATM   45  H   UNK N   1      31.797  16.489  10.446  0.00  0.00     0.150 HD
ENDBRANCH  36  43
ENDBRANCH  35  36
ENDBRANCH  32  35
ENDBRANCH   8  31
BRANCH  14  46
HETATM   46  C   UNK N   1      24.955  12.533   6.409  0.00  0.00     0.135 C 
HETATM   47  C   UNK N   1      23.824  11.542   6.100  0.00  0.00     0.082 C 
HETATM   48  C   UNK N   1      23.927  10.367   7.063  0.00  0.00     0.237 C 
HETATM   49  N   UNK N   1      23.817  10.838   8.424  0.00  0.00    -0.200 N 
HETATM   50  C   UNK N   1      24.316  12.119   8.786  0.00  0.00     0.669 C 
HETATM   51  H   UNK N   1      23.392  10.268   9.106  0.00  0.00     0.180 HD
HETATM   52  N   UNK N   1      24.843  12.981   7.784  0.00  0.00    -0.220 N 
HETATM   53  N   UNK N   1      24.169  12.545   9.984  0.00  0.00    -0.235 N 
HETATM   54  H   UNK N   1      25.135  13.889   8.027  0.00  0.00     0.178 HD
HETATM   55  H   UNK N   1      23.704  11.991  10.652  0.00  0.00     0.174 HD
ATOM     56  HN  UNK N   1      24.535  13.460  10.248  1.00  0.00     0.174 HD
BRANCH  48  57
HETATM   57  O   UNK N   1      22.918   9.445   6.794  0.00  0.00    -0.376 OA
HETATM   58  H   UNK N   1      23.015   8.480   6.810  0.00  0.00     0.212 HD
ENDBRANCH  48  57
ENDBRANCH  14  46
BRANCH  25  59
HETATM   59  C   UNK N   1      23.086  19.386   3.875  0.00  0.00     0.199 C 
BRANCH  59  60
HETATM   60  O   UNK N   1      21.756  18.995   3.713  0.00  0.00    -0.398 OA
HETATM   61  H   UNK N   1      21.487  18.183   3.256  0.00  0.00     0.209 HD
ENDBRANCH  59  60
ENDBRANCH  25  59
BRANCH  22  62
HETATM   62  N   UNK N   1      20.771  16.027   3.850  0.00  0.00    -0.317 N 
HETATM   63  C   UNK N   1      19.977  16.541   2.881  0.00  0.00     0.317 C 
HETATM   64  N   UNK N   1      19.178  17.586   3.157  0.00  0.00    -0.352 N 
HETATM   65  O   UNK N   1      19.964  16.049   1.760  0.00  0.00    -0.247 OA
HETATM   66  H   UNK N   1      18.529  18.028   2.563  0.00  0.00     0.160 HD
HETATM   67  H   UNK N   1      19.251  17.956   4.066  0.00  0.00     0.160 HD
HETATM   68  H   UNK N   1      20.751  16.424   4.750  0.00  0.00     0.170 HD
ENDBRANCH  22  62
ENDBRANCH   1   4
TORSDOF 14
ENDMDL
MODEL 2
REMARK VINA RESULT:      -7.5      1.359      2.071
REMARK  14 active torsions:
REMARK  status: ('A' for Active; 'I' for Inactive)
REMARK    1  A    between atoms: C_1  and  C_2 
REMARK    2  A    between atoms: C_7  and  O_13 
REMARK    3  A    between atoms: C_20  and  N_23 
REMARK    4  A    between atoms: C_21  and  N_25 
REMARK       I    between atoms: N_23  and  C_28 
REMARK       I    between atoms: N_25  and  C_31 
REMARK    5  A    between atoms: C_26  and  C_33 
REMARK       I    between atoms: C_28  and  N_34 
REMARK    6  A    between atoms: C_31  and  C_37 
REMARK    7  A    between atoms: C_33  and  O_40 
REMARK    8  A    between atoms: C_36  and  C_41 
REMARK    9  A    between atoms: C_37  and  C_42 
REMARK   10  A    between atoms: C_42  and  C_45 
REMARK   11  A    between atoms: C_42  and  N_46 
REMARK   12  A    between atoms: C_45  and  C_47 
REMARK   13  A    between atoms: C_47  and  C_48 
REMARK   14  A    between atoms: C_48  and  N_49 
ROOT
HETATM    1  C   UNK N   1      27.039  20.947   5.312  0.00  0.00     0.199 C 
HETATM    2  O   UNK N   1      26.464  20.818   6.578  0.00  0.00    -0.398 OA
HETATM    3  H   UNK N   1      26.200  20.761   7.510  0.00  0.00     0.209 HD
ENDROOT
BRANCH   1   4
HETATM    4  C   UNK N   1      27.053  19.614   4.572  0.00  0.00     0.200 C 
HETATM    5  N   UNK N   1      27.698  18.585   5.364  0.00  0.00    -0.344 N 
HETATM    6  C   UNK N   1      27.979  17.372   4.831  0.00  0.00     0.242 C 
HETATM    7  H   UNK N   1      27.934  18.771   6.302  0.00  0.00     0.163 HD
HETATM    8  C   UNK N   1      28.559  16.271   5.670  0.00  0.00     0.194 C 
HETATM    9  O   UNK N   1      27.693  17.132   3.665  0.00  0.00    -0.271 OA
HETATM   10  C   UNK N   1      28.640  14.858   5.130  0.00  0.00     0.157 C 
HETATM   11  N   UNK N   1      27.338  14.255   4.903  0.00  0.00    -0.357 N 
HETATM   12  C   UNK N   1      26.106  14.718   5.281  0.00  0.00     0.242 C 
HETATM   13  H   UNK N   1      27.342  13.399   4.415  0.00  0.00     0.162 HD
HETATM   14  C   UNK N   1      24.895  13.951   4.871  0.00  0.00     0.200 C 
HETATM   15  O   UNK N   1      25.970  15.747   5.925  0.00  0.00    -0.271 OA
HETATM   16  N   UNK N   1      24.972  13.687   3.443  0.00  0.00    -0.340 N 
HETATM   17  C   UNK N   1      24.121  14.197   2.516  0.00  0.00     0.270 C 
HETATM   18  H   UNK N   1      25.693  13.097   3.127  0.00  0.00     0.163 HD
HETATM   19  C   UNK N   1      23.156  15.277   2.837  0.00  0.00     0.118 C 
HETATM   20  O   UNK N   1      24.093  13.688   1.405  0.00  0.00    -0.266 OA
HETATM   21  N   UNK N   1      23.618  16.523   3.387  0.00  0.00    -0.320 N 
HETATM   22  C   UNK N   1      21.877  15.095   2.470  0.00  0.00     0.128 C 
HETATM   23  C   UNK N   1      22.995  17.204   4.387  0.00  0.00     0.247 C 
HETATM   24  H   UNK N   1      24.443  16.910   3.013  0.00  0.00     0.169 HD
HETATM   25  C   UNK N   1      23.296  18.661   4.647  0.00  0.00     0.200 C 
HETATM   26  O   UNK N   1      22.134  16.658   5.060  0.00  0.00    -0.271 OA
HETATM   27  N   UNK N   1      24.676  18.961   5.004  0.00  0.00    -0.344 N 
HETATM   28  C   UNK N   1      25.676  19.194   4.105  0.00  0.00     0.243 C 
HETATM   29  H   UNK N   1      24.903  19.000   5.961  0.00  0.00     0.163 HD
HETATM   30  O   UNK N   1      25.470  19.090   2.905  0.00  0.00    -0.271 OA
BRANCH   8  31
HETATM   31  N   UNK N   1      29.184  16.513   6.946  0.00  0.00    -0.346 N 
HETATM   32  C   UNK N   1      30.462  16.968   7.043  0.00  0.00     0.220 C 
HETATM   33  O   UNK N   1      31.161  17.093   6.048  0.00  0.00    -0.274 OA
HETATM   34  H   UNK N   1      28.673  16.342   7.769  0.00  0.00     0.163 HD
BRANCH  32  35
HETATM   35  C   UNK N   1      30.996  17.420   8.367  0.00  0.00     0.127 C 
BRANCH  35  36
HETATM   36  C   UNK N   1      32.127  16.513   8.869  0.00  0.00     0.082 C 
BRANCH  36  37
HETATM   37  C   UNK N   1      33.477  17.221   8.768  0.00  0.00     0.026 C 
BRANCH  37  38
HETATM   38  C   UNK N   1      34.643  16.258   8.584  0.00  0.00     0.021 C 
BRANCH  38  39
HETATM   39  C   UNK N   1      35.347  15.974   9.900  0.00  0.00     0.111 C 
BRANCH  39  40
HETATM   40  N   UNK N   1      35.122  17.069  10.827  0.00  0.00    -0.430 N 
HETATM   41  H   UNK N   1      35.509  17.170  11.766  0.00  0.00     0.149 HD
HETATM   42  H   UNK N   1      34.511  17.819  10.504  0.00  0.00     0.149 HD
ENDBRANCH  39  40
ENDBRANCH  38  39
ENDBRANCH  37  38
ENDBRANCH  36  37
BRANCH  36  43
HETATM   43  N   UNK N   1      32.145  15.256   8.130  0.00  0.00    -0.426 N 
HETATM   44  H   UNK N   1      31.353  14.634   7.966  0.00  0.00     0.150 HD
HETATM   45  H   UNK N   1      33.041  14.970   7.736  0.00  0.00     0.150 HD
ENDBRANCH  36  43
ENDBRANCH  35  36
ENDBRANCH  32  35
ENDBRANCH   8  31
BRANCH  14  46
HETATM   46  C   UNK N   1      24.783  12.630   5.664  0.00  0.00     0.135 C 
HETATM   47  C   UNK N   1      23.510  11.832   5.348  0.00  0.00     0.082 C 
HETATM   48  C   UNK N   1      23.545  10.526   6.131  0.00  0.00     0.237 C 
HETATM   49  N   UNK N   1      23.617  10.806   7.547  0.00  0.00    -0.200 N 
HETATM   50  C   UNK N   1      24.308  11.955   8.020  0.00  0.00     0.669 C 
HETATM   51  H   UNK N   1      23.184  10.197   8.189  0.00  0.00     0.180 HD
HETATM   52  N   UNK N   1      24.851  12.885   7.090  0.00  0.00    -0.220 N 
HETATM   53  N   UNK N   1      24.324  12.218   9.273  0.00  0.00    -0.235 N 
HETATM   54  H   UNK N   1      25.279  13.709   7.419  0.00  0.00     0.178 HD
HETATM   55  H   UNK N   1      23.851  11.632   9.907  0.00  0.00     0.174 HD
ATOM     56  HN  UNK N   1      24.827  13.037   9.614  1.00  0.00     0.174 HD
BRANCH  48  57
HETATM   57  O   UNK N   1      22.405   9.776   5.851  0.00  0.00    -0.376 OA
HETATM   58  H   UNK N   1      22.016   9.101   6.429  0.00  0.00     0.212 HD
ENDBRANCH  48  57
ENDBRANCH  14  46
BRANCH  25  59
HETATM   59  C   UNK N   1      22.769  19.581   3.542  0.00  0.00     0.199 C 
BRANCH  59  60
HETATM   60  O   UNK N   1      21.587  19.072   3.003  0.00  0.00    -0.398 OA
HETATM   61  H   UNK N   1      21.562  18.371   2.333  0.00  0.00     0.209 HD
ENDBRANCH  59  60
ENDBRANCH  25  59
BRANCH  22  62
HETATM   62  N   UNK N   1      20.875  16.080   2.649  0.00  0.00    -0.317 N 
HETATM   63  C   UNK N   1      20.249  16.650   1.592  0.00  0.00     0.317 C 
HETATM   64  N   UNK N   1      19.305  17.583   1.799  0.00  0.00    -0.352 N 
HETATM   65  O   UNK N   1      20.520  16.305   0.448  0.00  0.00    -0.247 OA
HETATM   66  H   UNK N   1      18.750  18.044   1.129  0.00  0.00     0.160 HD
HETATM   67  H   UNK N   1      19.150  17.839   2.736  0.00  0.00     0.160 HD
HETATM   68  H   UNK N   1      20.629  16.356   3.561  0.00  0.00     0.170 HD
ENDBRANCH  22  62
ENDBRANCH   1   4
TORSDOF 14
ENDMDL
MODEL 3
REMARK VINA RESULT:      -7.5      5.017      8.190
REMARK  14 active torsions:
REMARK  status: ('A' for Active; 'I' for Inactive)
REMARK    1  A    between atoms: C_1  and  C_2 
REMARK    2  A    between atoms: C_7  and  O_13 
REMARK    3  A    between atoms: C_20  and  N_23 
REMARK    4  A    between atoms: C_21  and  N_25 
REMARK       I    between atoms: N_23  and  C_28 
REMARK       I    between atoms: N_25  and  C_31 
REMARK    5  A    between atoms: C_26  and  C_33 
REMARK       I    between atoms: C_28  and  N_34 
REMARK    6  A    between atoms: C_31  and  C_37 
REMARK    7  A    between atoms: C_33  and  O_40 
REMARK    8  A    between atoms: C_36  and  C_41 
REMARK    9  A    between atoms: C_37  and  C_42 
REMARK   10  A    between atoms: C_42  and  C_45 
REMARK   11  A    between atoms: C_42  and  N_46 
REMARK   12  A    between atoms: C_45  and  C_47 
REMARK   13  A    between atoms: C_47  and  C_48 
REMARK   14  A    between atoms: C_48  and  N_49 
ROOT
HETATM    1  C   UNK N   1      35.081  16.811  10.559  0.00  0.00     0.199 C 
HETATM    2  O   UNK N   1      36.364  16.429  10.954  0.00  0.00    -0.398 OA
HETATM    3  H   UNK N   1      37.272  16.305  11.275  0.00  0.00     0.209 HD
ENDROOT
BRANCH   1   4
HETATM    4  C   UNK N   1      34.928  16.751   9.042  0.00  0.00     0.200 C 
HETATM    5  N   UNK N   1      35.246  15.431   8.537  0.00  0.00    -0.344 N 
HETATM    6  C   UNK N   1      35.349  15.201   7.207  0.00  0.00     0.242 C 
HETATM    7  H   UNK N   1      35.388  14.690   9.171  0.00  0.00     0.163 HD
HETATM    8  C   UNK N   1      35.582  13.819   6.672  0.00  0.00     0.194 C 
HETATM    9  O   UNK N   1      35.177  16.115   6.411  0.00  0.00    -0.271 OA
HETATM   10  C   UNK N   1      35.452  13.538   5.189  0.00  0.00     0.157 C 
HETATM   11  N   UNK N   1      34.099  13.704   4.691  0.00  0.00    -0.357 N 
HETATM   12  C   UNK N   1      32.944  13.890   5.403  0.00  0.00     0.242 C 
HETATM   13  H   UNK N   1      33.997  13.679   3.712  0.00  0.00     0.162 HD
HETATM   14  C   UNK N   1      31.669  14.108   4.660  0.00  0.00     0.200 C 
HETATM   15  O   UNK N   1      32.930  13.902   6.625  0.00  0.00    -0.271 OA
HETATM   16  N   UNK N   1      31.880  15.150   3.669  0.00  0.00    -0.340 N 
HETATM   17  C   UNK N   1      31.278  16.367   3.686  0.00  0.00     0.270 C 
HETATM   18  H   UNK N   1      32.506  14.959   2.933  0.00  0.00     0.163 HD
HETATM   19  C   UNK N   1      30.513  16.854   4.859  0.00  0.00     0.118 C 
HETATM   20  O   UNK N   1      31.297  17.043   2.668  0.00  0.00    -0.266 OA
HETATM   21  N   UNK N   1      31.136  16.924   6.153  0.00  0.00    -0.320 N 
HETATM   22  C   UNK N   1      29.283  17.346   4.637  0.00  0.00     0.128 C 
HETATM   23  C   UNK N   1      30.534  16.568   7.321  0.00  0.00     0.247 C 
HETATM   24  H   UNK N   1      32.063  17.253   6.197  0.00  0.00     0.169 HD
HETATM   25  C   UNK N   1      31.080  17.023   8.654  0.00  0.00     0.200 C 
HETATM   26  O   UNK N   1      29.500  15.917   7.307  0.00  0.00    -0.271 OA
HETATM   27  N   UNK N   1      32.433  16.577   8.960  0.00  0.00    -0.344 N 
HETATM   28  C   UNK N   1      33.569  17.228   8.576  0.00  0.00     0.243 C 
HETATM   29  H   UNK N   1      32.534  15.748   9.481  0.00  0.00     0.163 HD
HETATM   30  O   UNK N   1      33.507  18.222   7.869  0.00  0.00    -0.271 OA
BRANCH   8  31
HETATM   31  N   UNK N   1      36.069  12.739   7.495  0.00  0.00    -0.346 N 
HETATM   32  C   UNK N   1      37.264  12.812   8.139  0.00  0.00     0.220 C 
HETATM   33  O   UNK N   1      38.016  13.759   7.962  0.00  0.00    -0.274 OA
HETATM   34  H   UNK N   1      35.522  11.927   7.592  0.00  0.00     0.163 HD
BRANCH  32  35
HETATM   35  C   UNK N   1      37.629  11.776   9.158  0.00  0.00     0.127 C 
BRANCH  35  36
HETATM   36  C   UNK N   1      37.665  12.357  10.578  0.00  0.00     0.082 C 
BRANCH  36  37
HETATM   37  C   UNK N   1      36.287  12.876  10.987  0.00  0.00     0.026 C 
BRANCH  37  38
HETATM   38  C   UNK N   1      35.910  12.505  12.416  0.00  0.00     0.021 C 
BRANCH  38  39
HETATM   39  C   UNK N   1      35.537  13.730  13.232  0.00  0.00     0.111 C 
BRANCH  39  40
HETATM   40  N   UNK N   1      36.691  14.601  13.371  0.00  0.00    -0.430 N 
HETATM   41  H   UNK N   1      37.567  14.549  12.851  0.00  0.00     0.149 HD
HETATM   42  H   UNK N   1      36.618  15.346  14.065  0.00  0.00     0.149 HD
ENDBRANCH  39  40
ENDBRANCH  38  39
ENDBRANCH  37  38
ENDBRANCH  36  37
BRANCH  36  43
HETATM   43  N   UNK N   1      38.667  13.411  10.678  0.00  0.00    -0.426 N 
HETATM   44  H   UNK N   1      38.565  14.379  10.372  0.00  0.00     0.150 HD
HETATM   45  H   UNK N   1      39.560  13.155  11.098  0.00  0.00     0.150 HD
ENDBRANCH  36  43
ENDBRANCH  35  36
ENDBRANCH  32  35
ENDBRANCH   8  31
BRANCH  14  46
HETATM   46  C   UNK N   1      31.194  12.802   3.985  0.00  0.00     0.135 C 
HETATM   47  C   UNK N   1      29.959  12.989   3.092  0.00  0.00     0.082 C 
HETATM   48  C   UNK N   1      29.628  11.657   2.431  0.00  0.00     0.237 C 
HETATM   49  N   UNK N   1      29.363  10.660   3.443  0.00  0.00    -0.200 N 
HETATM   50  C   UNK N   1      30.043  10.702   4.691  0.00  0.00     0.669 C 
HETATM   51  H   UNK N   1      28.707   9.947   3.267  0.00  0.00     0.180 HD
HETATM   52  N   UNK N   1      30.919  11.785   4.982  0.00  0.00    -0.220 N 
HETATM   53  N   UNK N   1      29.764   9.842   5.597  0.00  0.00    -0.235 N 
HETATM   54  H   UNK N   1      31.345  11.842   5.869  0.00  0.00     0.178 HD
HETATM   55  H   UNK N   1      29.075   9.159   5.435  0.00  0.00     0.174 HD
ATOM     56  HN  UNK N   1      30.257   9.865   6.490  1.00  0.00     0.174 HD
BRANCH  48  57
HETATM   57  O   UNK N   1      28.518  11.802   1.603  0.00  0.00    -0.376 OA
HETATM   58  H   UNK N   1      28.176  12.642   1.257  0.00  0.00     0.212 HD
ENDBRANCH  48  57
ENDBRANCH  14  46
BRANCH  25  59
HETATM   59  C   UNK N   1      30.898  18.525   8.888  0.00  0.00     0.199 C 
BRANCH  59  60
HETATM   60  O   UNK N   1      29.677  18.957   8.368  0.00  0.00    -0.398 OA
HETATM   61  H   UNK N   1      29.009  19.429   8.888  0.00  0.00     0.209 HD
ENDBRANCH  59  60
ENDBRANCH  25  59
BRANCH  22  62
HETATM   62  N   UNK N   1      28.482  17.912   5.659  0.00  0.00    -0.317 N 
HETATM   63  C   UNK N   1      27.868  19.107   5.493  0.00  0.00     0.317 C 
HETATM   64  N   UNK N   1      27.118  19.616   6.485  0.00  0.00    -0.352 N 
HETATM   65  O   UNK N   1      27.973  19.720   4.438  0.00  0.00    -0.247 OA
HETATM   66  H   UNK N   1      26.590  20.447   6.483  0.00  0.00     0.160 HD
HETATM   67  H   UNK N   1      27.093  19.092   7.319  0.00  0.00     0.160 HD
HETATM   68  H   UNK N   1      28.369  17.425   6.507  0.00  0.00     0.170 HD
ENDBRANCH  22  62
ENDBRANCH   1   4
TORSDOF 14
ENDMDL
MODEL 4
REMARK VINA RESULT:      -7.3      5.177     11.118
REMARK  14 active torsions:
REMARK  status: ('A' for Active; 'I' for Inactive)
REMARK    1  A    between atoms: C_1  and  C_2 
REMARK    2  A    between atoms: C_7  and  O_13 
REMARK    3  A    between atoms: C_20  and  N_23 
REMARK    4  A    between atoms: C_21  and  N_25 
REMARK       I    between atoms: N_23  and  C_28 
REMARK       I    between atoms: N_25  and  C_31 
REMARK    5  A    between atoms: C_26  and  C_33 
REMARK       I    between atoms: C_28  and  N_34 
REMARK    6  A    between atoms: C_31  and  C_37 
REMARK    7  A    between atoms: C_33  and  O_40 
REMARK    8  A    between atoms: C_36  and  C_41 
REMARK    9  A    between atoms: C_37  and  C_42 
REMARK   10  A    between atoms: C_42  and  C_45 
REMARK   11  A    between atoms: C_42  and  N_46 
REMARK   12  A    between atoms: C_45  and  C_47 
REMARK   13  A    between atoms: C_47  and  C_48 
REMARK   14  A    between atoms: C_48  and  N_49 
ROOT
HETATM    1  C   UNK N   1      35.148  10.349   4.598  0.00  0.00     0.199 C 
HETATM    2  O   UNK N   1      35.760   9.868   5.756  0.00  0.00    -0.398 OA
HETATM    3  H   UNK N   1      36.051   9.475   6.595  0.00  0.00     0.209 HD
ENDROOT
BRANCH   1   4
HETATM    4  C   UNK N   1      35.096  11.873   4.592  0.00  0.00     0.200 C 
HETATM    5  N   UNK N   1      33.910  12.352   3.910  0.00  0.00    -0.344 N 
HETATM    6  C   UNK N   1      33.752  13.668   3.631  0.00  0.00     0.242 C 
HETATM    7  H   UNK N   1      33.211  11.711   3.644  0.00  0.00     0.163 HD
HETATM    8  C   UNK N   1      32.486  14.184   3.012  0.00  0.00     0.194 C 
HETATM    9  O   UNK N   1      34.616  14.472   3.954  0.00  0.00    -0.271 OA
HETATM   10  C   UNK N   1      32.224  15.674   2.932  0.00  0.00     0.157 C 
HETATM   11  N   UNK N   1      32.063  16.298   4.233  0.00  0.00    -0.357 N 
HETATM   12  C   UNK N   1      31.935  15.698   5.457  0.00  0.00     0.242 C 
HETATM   13  H   UNK N   1      32.040  17.283   4.235  0.00  0.00     0.162 HD
HETATM   14  C   UNK N   1      31.850  16.559   6.672  0.00  0.00     0.200 C 
HETATM   15  O   UNK N   1      31.908  14.484   5.584  0.00  0.00    -0.271 OA
HETATM   16  N   UNK N   1      32.939  17.520   6.640  0.00  0.00    -0.340 N 
HETATM   17  C   UNK N   1      33.967  17.555   7.527  0.00  0.00     0.270 C 
HETATM   18  H   UNK N   1      32.931  18.194   5.922  0.00  0.00     0.163 HD
HETATM   19  C   UNK N   1      34.214  16.458   8.493  0.00  0.00     0.118 C 
HETATM   20  O   UNK N   1      34.655  18.563   7.585  0.00  0.00    -0.266 OA
HETATM   21  N   UNK N   1      34.400  15.110   8.028  0.00  0.00    -0.320 N 
HETATM   22  C   UNK N   1      34.391  16.794   9.782  0.00  0.00     0.128 C 
HETATM   23  C   UNK N   1      33.873  14.007   8.625  0.00  0.00     0.247 C 
HETATM   24  H   UNK N   1      34.949  14.976   7.221  0.00  0.00     0.169 HD
HETATM   25  C   UNK N   1      34.412  12.625   8.334  0.00  0.00     0.200 C 
HETATM   26  O   UNK N   1      32.986  14.122   9.457  0.00  0.00    -0.271 OA
HETATM   27  N   UNK N   1      34.308  12.194   6.946  0.00  0.00    -0.344 N 
HETATM   28  C   UNK N   1      35.232  12.464   5.979  0.00  0.00     0.243 C 
HETATM   29  H   UNK N   1      33.516  11.670   6.688  0.00  0.00     0.163 HD
HETATM   30  O   UNK N   1      36.199  13.170   6.224  0.00  0.00    -0.271 OA
BRANCH   8  31
HETATM   31  N   UNK N   1      31.539  13.324   2.347  0.00  0.00    -0.346 N 
HETATM   32  C   UNK N   1      30.197  13.519   2.453  0.00  0.00     0.220 C 
HETATM   33  O   UNK N   1      29.744  14.375   3.199  0.00  0.00    -0.274 OA
HETATM   34  H   UNK N   1      31.872  12.574   1.804  0.00  0.00     0.163 HD
BRANCH  32  35
HETATM   35  C   UNK N   1      29.258  12.752   1.573  0.00  0.00     0.127 C 
BRANCH  35  36
HETATM   36  C   UNK N   1      29.960  11.586   0.865  0.00  0.00     0.082 C 
BRANCH  36  37
HETATM   37  C   UNK N   1      29.999  11.813  -0.646  0.00  0.00     0.026 C 
BRANCH  37  38
HETATM   38  C   UNK N   1      30.030  10.514  -1.442  0.00  0.00     0.021 C 
BRANCH  38  39
HETATM   39  C   UNK N   1      30.767  10.684  -2.760  0.00  0.00     0.111 C 
BRANCH  39  40
HETATM   40  N   UNK N   1      29.925  11.392  -3.709  0.00  0.00    -0.430 N 
HETATM   41  H   UNK N   1      28.911  11.498  -3.671  0.00  0.00     0.149 HD
HETATM   42  H   UNK N   1      30.399  11.832  -4.498  0.00  0.00     0.149 HD
ENDBRANCH  39  40
ENDBRANCH  38  39
ENDBRANCH  37  38
ENDBRANCH  36  37
BRANCH  36  43
HETATM   43  N   UNK N   1      29.306  10.322   1.183  0.00  0.00    -0.426 N 
HETATM   44  H   UNK N   1      29.342   9.824   2.072  0.00  0.00     0.150 HD
HETATM   45  H   UNK N   1      28.757   9.892   0.439  0.00  0.00     0.150 HD
ENDBRANCH  36  43
ENDBRANCH  35  36
ENDBRANCH  32  35
ENDBRANCH   8  31
BRANCH  14  46
HETATM   46  C   UNK N   1      30.486  17.281   6.742  0.00  0.00     0.135 C 
HETATM   47  C   UNK N   1      30.044  17.619   8.173  0.00  0.00     0.082 C 
HETATM   48  C   UNK N   1      28.730  18.386   8.111  0.00  0.00     0.237 C 
HETATM   49  N   UNK N   1      27.724  17.581   7.456  0.00  0.00    -0.200 N 
HETATM   50  C   UNK N   1      28.085  16.677   6.421  0.00  0.00     0.669 C 
HETATM   51  H   UNK N   1      26.781  17.661   7.729  0.00  0.00     0.180 HD
HETATM   52  N   UNK N   1      29.457  16.492   6.092  0.00  0.00    -0.220 N 
HETATM   53  N   UNK N   1      27.192  15.935   5.883  0.00  0.00    -0.235 N 
HETATM   54  H   UNK N   1      29.710  15.823   5.415  0.00  0.00     0.178 HD
HETATM   55  H   UNK N   1      26.258  15.984   6.190  0.00  0.00     0.174 HD
ATOM     56  HN  UNK N   1      27.448  15.292   5.133  1.00  0.00     0.174 HD
BRANCH  48  57
HETATM   57  O   UNK N   1      28.313  18.716   9.398  0.00  0.00    -0.376 OA
HETATM   58  H   UNK N   1      28.321  18.122  10.165  0.00  0.00     0.212 HD
ENDBRANCH  48  57
ENDBRANCH  14  46
BRANCH  25  59
HETATM   59  C   UNK N   1      35.813  12.402   8.907  0.00  0.00     0.199 C 
BRANCH  59  60
HETATM   60  O   UNK N   1      36.435  13.624   9.169  0.00  0.00    -0.398 OA
HETATM   61  H   UNK N   1      36.091  14.477   8.864  0.00  0.00     0.209 HD
ENDBRANCH  59  60
ENDBRANCH  25  59
BRANCH  22  62
HETATM   62  N   UNK N   1      34.710  15.850  10.788  0.00  0.00    -0.317 N 
HETATM   63  C   UNK N   1      35.986  15.664  11.201  0.00  0.00     0.317 C 
HETATM   64  N   UNK N   1      36.254  14.758  12.156  0.00  0.00    -0.352 N 
HETATM   65  O   UNK N   1      36.898  16.330  10.726  0.00  0.00    -0.247 OA
HETATM   66  H   UNK N   1      37.122  14.552  12.573  0.00  0.00     0.160 HD
HETATM   67  H   UNK N   1      35.486  14.234  12.480  0.00  0.00     0.160 HD
HETATM   68  H   UNK N   1      33.989  15.319  11.197  0.00  0.00     0.170 HD
ENDBRANCH  22  62
ENDBRANCH   1   4
TORSDOF 14
ENDMDL
MODEL 5
REMARK VINA RESULT:      -7.3      6.070     11.086
REMARK  14 active torsions:
REMARK  status: ('A' for Active; 'I' for Inactive)
REMARK    1  A    between atoms: C_1  and  C_2 
REMARK    2  A    between atoms: C_7  and  O_13 
REMARK    3  A    between atoms: C_20  and  N_23 
REMARK    4  A    between atoms: C_21  and  N_25 
REMARK       I    between atoms: N_23  and  C_28 
REMARK       I    between atoms: N_25  and  C_31 
REMARK    5  A    between atoms: C_26  and  C_33 
REMARK       I    between atoms: C_28  and  N_34 
REMARK    6  A    between atoms: C_31  and  C_37 
REMARK    7  A    between atoms: C_33  and  O_40 
REMARK    8  A    between atoms: C_36  and  C_41 
REMARK    9  A    between atoms: C_37  and  C_42 
REMARK   10  A    between atoms: C_42  and  C_45 
REMARK   11  A    between atoms: C_42  and  N_46 
REMARK   12  A    between atoms: C_45  and  C_47 
REMARK   13  A    between atoms: C_47  and  C_48 
REMARK   14  A    between atoms: C_48  and  N_49 
ROOT
HETATM    1  C   UNK N   1      31.784  16.039   3.600  0.00  0.00     0.199 C 
HETATM    2  O   UNK N   1      31.389  17.342   3.292  0.00  0.00    -0.398 OA
HETATM    3  H   UNK N   1      31.150  18.213   2.936  0.00  0.00     0.209 HD
ENDROOT
BRANCH   1   4
HETATM    4  C   UNK N   1      33.025  16.032   4.487  0.00  0.00     0.200 C 
HETATM    5  N   UNK N   1      32.778  16.725   5.736  0.00  0.00    -0.344 N 
HETATM    6  C   UNK N   1      33.790  16.993   6.594  0.00  0.00     0.242 C 
HETATM    7  H   UNK N   1      31.861  17.004   5.963  0.00  0.00     0.163 HD
HETATM    8  C   UNK N   1      33.530  17.623   7.930  0.00  0.00     0.194 C 
HETATM    9  O   UNK N   1      34.934  16.653   6.320  0.00  0.00    -0.271 OA
HETATM   10  C   UNK N   1      34.627  17.693   8.972  0.00  0.00     0.157 C 
HETATM   11  N   UNK N   1      35.040  16.389   9.458  0.00  0.00    -0.357 N 
HETATM   12  C   UNK N   1      34.452  15.172   9.240  0.00  0.00     0.242 C 
HETATM   13  H   UNK N   1      35.848  16.378  10.022  0.00  0.00     0.162 HD
HETATM   14  C   UNK N   1      35.105  13.950   9.793  0.00  0.00     0.200 C 
HETATM   15  O   UNK N   1      33.424  15.055   8.591  0.00  0.00    -0.271 OA
HETATM   16  N   UNK N   1      36.509  13.961   9.417  0.00  0.00    -0.340 N 
HETATM   17  C   UNK N   1      37.094  13.061   8.584  0.00  0.00     0.270 C 
HETATM   18  H   UNK N   1      37.076  14.672   9.792  0.00  0.00     0.163 HD
HETATM   19  C   UNK N   1      36.303  12.102   7.776  0.00  0.00     0.118 C 
HETATM   20  O   UNK N   1      38.313  12.986   8.568  0.00  0.00    -0.266 OA
HETATM   21  N   UNK N   1      35.289  12.577   6.873  0.00  0.00    -0.320 N 
HETATM   22  C   UNK N   1      36.663  10.808   7.821  0.00  0.00     0.128 C 
HETATM   23  C   UNK N   1      34.070  11.996   6.705  0.00  0.00     0.247 C 
HETATM   24  H   UNK N   1      35.492  13.378   6.338  0.00  0.00     0.169 HD
HETATM   25  C   UNK N   1      33.221  12.293   5.491  0.00  0.00     0.200 C 
HETATM   26  O   UNK N   1      33.664  11.173   7.513  0.00  0.00    -0.271 OA
HETATM   27  N   UNK N   1      32.824  13.685   5.332  0.00  0.00    -0.344 N 
HETATM   28  C   UNK N   1      33.574  14.638   4.707  0.00  0.00     0.243 C 
HETATM   29  H   UNK N   1      31.953  13.957   5.701  0.00  0.00     0.163 HD
HETATM   30  O   UNK N   1      34.692  14.376   4.293  0.00  0.00    -0.271 OA
BRANCH   8  31
HETATM   31  N   UNK N   1      32.298  18.307   8.241  0.00  0.00    -0.346 N 
HETATM   32  C   UNK N   1      31.173  17.630   8.594  0.00  0.00     0.220 C 
HETATM   33  O   UNK N   1      31.140  16.408   8.564  0.00  0.00    -0.274 OA
HETATM   34  H   UNK N   1      32.271  19.289   8.194  0.00  0.00     0.163 HD
BRANCH  32  35
HETATM   35  C   UNK N   1      29.988  18.376   9.126  0.00  0.00     0.127 C 
BRANCH  35  36
HETATM   36  C   UNK N   1      28.682  17.930   8.454  0.00  0.00     0.082 C 
BRANCH  36  37
HETATM   37  C   UNK N   1      28.728  18.194   6.950  0.00  0.00     0.026 C 
BRANCH  37  38
HETATM   38  C   UNK N   1      27.922  19.419   6.535  0.00  0.00     0.021 C 
BRANCH  38  39
HETATM   39  C   UNK N   1      27.897  19.587   5.025  0.00  0.00     0.111 C 
BRANCH  39  40
HETATM   40  N   UNK N   1      28.883  18.713   4.415  0.00  0.00    -0.430 N 
HETATM   41  H   UNK N   1      28.930  17.696   4.483  0.00  0.00     0.149 HD
HETATM   42  H   UNK N   1      29.608  19.165   3.857  0.00  0.00     0.149 HD
ENDBRANCH  39  40
ENDBRANCH  38  39
ENDBRANCH  37  38
ENDBRANCH  36  37
BRANCH  36  43
HETATM   43  N   UNK N   1      27.537  18.596   9.063  0.00  0.00    -0.426 N 
HETATM   44  H   UNK N   1      26.849  18.176   9.689  0.00  0.00     0.150 HD
HETATM   45  H   UNK N   1      27.410  19.583   8.839  0.00  0.00     0.150 HD
ENDBRANCH  36  43
ENDBRANCH  35  36
ENDBRANCH  32  35
ENDBRANCH   8  31
BRANCH  14  46
HETATM   46  C   UNK N   1      34.953  13.890  11.328  0.00  0.00     0.135 C 
HETATM   47  C   UNK N   1      36.249  14.210  12.086  0.00  0.00     0.082 C 
HETATM   48  C   UNK N   1      35.960  14.188  13.581  0.00  0.00     0.237 C 
HETATM   49  N   UNK N   1      35.468  12.885  13.966  0.00  0.00    -0.200 N 
HETATM   50  C   UNK N   1      34.683  12.116  13.065  0.00  0.00     0.669 C 
HETATM   51  H   UNK N   1      35.678  12.528  14.860  0.00  0.00     0.180 HD
HETATM   52  N   UNK N   1      34.460  12.590  11.741  0.00  0.00    -0.220 N 
HETATM   53  N   UNK N   1      34.294  10.944  13.399  0.00  0.00    -0.235 N 
HETATM   54  H   UNK N   1      33.965  12.029  11.100  0.00  0.00     0.178 HD
HETATM   55  H   UNK N   1      34.544  10.571  14.275  0.00  0.00     0.174 HD
ATOM     56  HN  UNK N   1      33.723  10.394  12.757  1.00  0.00     0.174 HD
BRANCH  48  57
HETATM   57  O   UNK N   1      37.120  14.489  14.292  0.00  0.00    -0.376 OA
HETATM   58  H   UNK N   1      38.015  14.187  14.069  0.00  0.00     0.212 HD
ENDBRANCH  48  57
ENDBRANCH  14  46
BRANCH  25  59
HETATM   59  C   UNK N   1      33.802  11.704   4.203  0.00  0.00     0.199 C 
BRANCH  59  60
HETATM   60  O   UNK N   1      35.061  11.150   4.442  0.00  0.00    -0.398 OA
HETATM   61  H   UNK N   1      35.634  10.800   3.743  0.00  0.00     0.209 HD
ENDBRANCH  59  60
ENDBRANCH  25  59
BRANCH  22  62
HETATM   62  N   UNK N   1      36.039   9.806   7.038  0.00  0.00    -0.317 N 
HETATM   63  C   UNK N   1      36.743   9.062   6.153  0.00  0.00     0.317 C 
HETATM   64  N   UNK N   1      36.119   8.122   5.425  0.00  0.00    -0.352 N 
HETATM   65  O   UNK N   1      37.951   9.224   6.026  0.00  0.00    -0.247 OA
HETATM   66  H   UNK N   1      36.513   7.490   4.781  0.00  0.00     0.160 HD
HETATM   67  H   UNK N   1      35.145   8.057   5.550  0.00  0.00     0.160 HD
HETATM   68  H   UNK N   1      35.073   9.647   7.140  0.00  0.00     0.170 HD
ENDBRANCH  22  62
ENDBRANCH   1   4
TORSDOF 14
ENDMDL
MODEL 6
REMARK VINA RESULT:      -7.3      4.312     10.512
REMARK  14 active torsions:
REMARK  status: ('A' for Active; 'I' for Inactive)
REMARK    1  A    between atoms: C_1  and  C_2 
REMARK    2  A    between atoms: C_7  and  O_13 
REMARK    3  A    between atoms: C_20  and  N_23 
REMARK    4  A    between atoms: C_21  and  N_25 
REMARK       I    between atoms: N_23  and  C_28 
REMARK       I    between atoms: N_25  and  C_31 
REMARK    5  A    between atoms: C_26  and  C_33 
REMARK       I    between atoms: C_28  and  N_34 
REMARK    6  A    between atoms: C_31  and  C_37 
REMARK    7  A    between atoms: C_33  and  O_40 
REMARK    8  A    between atoms: C_36  and  C_41 
REMARK    9  A    between atoms: C_37  and  C_42 
REMARK   10  A    between atoms: C_42  and  C_45 
REMARK   11  A    between atoms: C_42  and  N_46 
REMARK   12  A    between atoms: C_45  and  C_47 
REMARK   13  A    between atoms: C_47  and  C_48 
REMARK   14  A    between atoms: C_48  and  N_49 
ROOT
HETATM    1  C   UNK N   1      33.368   9.945   5.171  0.00  0.00     0.199 C 
HETATM    2  O   UNK N   1      34.029   9.471   6.305  0.00  0.00    -0.398 OA
HETATM    3  H   UNK N   1      34.352   9.113   7.147  0.00  0.00     0.209 HD
ENDROOT
BRANCH   1   4
HETATM    4  C   UNK N   1      33.575  11.446   4.996  0.00  0.00     0.200 C 
HETATM    5  N   UNK N   1      32.421  12.063   4.373  0.00  0.00    -0.344 N 
HETATM    6  C   UNK N   1      32.459  13.352   3.962  0.00  0.00     0.242 C 
HETATM    7  H   UNK N   1      31.598  11.536   4.247  0.00  0.00     0.163 HD
HETATM    8  C   UNK N   1      31.240  14.027   3.405  0.00  0.00     0.194 C 
HETATM    9  O   UNK N   1      33.478  14.015   4.111  0.00  0.00    -0.271 OA
HETATM   10  C   UNK N   1      31.228  15.525   3.179  0.00  0.00     0.157 C 
HETATM   11  N   UNK N   1      31.318  16.290   4.409  0.00  0.00    -0.357 N 
HETATM   12  C   UNK N   1      31.224  15.844   5.701  0.00  0.00     0.242 C 
HETATM   13  H   UNK N   1      31.464  17.258   4.302  0.00  0.00     0.162 HD
HETATM   14  C   UNK N   1      31.420  16.819   6.812  0.00  0.00     0.200 C 
HETATM   15  O   UNK N   1      31.005  14.672   5.968  0.00  0.00    -0.271 OA
HETATM   16  N   UNK N   1      32.646  17.560   6.572  0.00  0.00    -0.340 N 
HETATM   17  C   UNK N   1      33.756  17.494   7.353  0.00  0.00     0.270 C 
HETATM   18  H   UNK N   1      32.675  18.152   5.786  0.00  0.00     0.163 HD
HETATM   19  C   UNK N   1      33.917  16.468   8.412  0.00  0.00     0.118 C 
HETATM   20  O   UNK N   1      34.607  18.362   7.233  0.00  0.00    -0.266 OA
HETATM   21  N   UNK N   1      33.819  15.070   8.088  0.00  0.00    -0.320 N 
HETATM   22  C   UNK N   1      34.288  16.889   9.632  0.00  0.00     0.128 C 
HETATM   23  C   UNK N   1      33.181  14.143   8.853  0.00  0.00     0.247 C 
HETATM   24  H   UNK N   1      34.245  14.763   7.256  0.00  0.00     0.169 HD
HETATM   25  C   UNK N   1      33.441  12.666   8.674  0.00  0.00     0.200 C 
HETATM   26  O   UNK N   1      32.422  14.497   9.743  0.00  0.00    -0.271 OA
HETATM   27  N   UNK N   1      33.115  12.129   7.359  0.00  0.00    -0.344 N 
HETATM   28  C   UNK N   1      33.961  12.133   6.289  0.00  0.00     0.243 C 
HETATM   29  H   UNK N   1      32.222  11.734   7.235  0.00  0.00     0.163 HD
HETATM   30  O   UNK N   1      35.054  12.673   6.363  0.00  0.00    -0.271 OA
BRANCH   8  31
HETATM   31  N   UNK N   1      30.093  13.292   2.931  0.00  0.00    -0.346 N 
HETATM   32  C   UNK N   1      28.823  13.701   3.190  0.00  0.00     0.220 C 
HETATM   33  O   UNK N   1      28.609  14.657   3.922  0.00  0.00    -0.274 OA
HETATM   34  H   UNK N   1      30.234  12.471   2.407  0.00  0.00     0.163 HD
BRANCH  32  35
HETATM   35  C   UNK N   1      27.669  13.046   2.496  0.00  0.00     0.127 C 
BRANCH  35  36
HETATM   36  C   UNK N   1      26.425  13.944   2.479  0.00  0.00     0.082 C 
BRANCH  36  37
HETATM   37  C   UNK N   1      25.232  13.208   1.871  0.00  0.00     0.026 C 
BRANCH  37  38
HETATM   38  C   UNK N   1      24.347  14.110   1.020  0.00  0.00     0.021 C 
BRANCH  38  39
HETATM   39  C   UNK N   1      23.049  14.452   1.731  0.00  0.00     0.111 C 
BRANCH  39  40
HETATM   40  N   UNK N   1      21.925  14.247   0.835  0.00  0.00    -0.430 N 
HETATM   41  H   UNK N   1      21.779  13.460   0.201  0.00  0.00     0.149 HD
HETATM   42  H   UNK N   1      21.202  14.967   0.839  0.00  0.00     0.149 HD
ENDBRANCH  39  40
ENDBRANCH  38  39
ENDBRANCH  37  38
ENDBRANCH  36  37
BRANCH  36  43
HETATM   43  N   UNK N   1      26.694  15.182   1.756  0.00  0.00    -0.426 N 
HETATM   44  H   UNK N   1      26.682  16.126   2.140  0.00  0.00     0.150 HD
HETATM   45  H   UNK N   1      26.916  15.093   0.765  0.00  0.00     0.150 HD
ENDBRANCH  36  43
ENDBRANCH  35  36
ENDBRANCH  32  35
ENDBRANCH   8  31
BRANCH  14  46
HETATM   46  C   UNK N   1      30.215  17.779   6.922  0.00  0.00     0.135 C 
HETATM   47  C   UNK N   1      29.369  17.559   8.185  0.00  0.00     0.082 C 
HETATM   48  C   UNK N   1      28.260  18.602   8.218  0.00  0.00     0.237 C 
HETATM   49  N   UNK N   1      27.434  18.478   7.038  0.00  0.00    -0.200 N 
HETATM   50  C   UNK N   1      28.001  18.060   5.803  0.00  0.00     0.669 C 
HETATM   51  H   UNK N   1      26.473  18.683   7.091  0.00  0.00     0.180 HD
HETATM   52  N   UNK N   1      29.369  17.672   5.749  0.00  0.00    -0.220 N 
HETATM   53  N   UNK N   1      27.250  17.907   4.778  0.00  0.00    -0.235 N 
HETATM   54  H   UNK N   1      29.745  17.328   4.906  0.00  0.00     0.178 HD
HETATM   55  H   UNK N   1      26.282  18.069   4.845  0.00  0.00     0.174 HD
ATOM     56  HN  UNK N   1      27.657  17.616   3.888  1.00  0.00     0.174 HD
BRANCH  48  57
HETATM   57  O   UNK N   1      27.484  18.432   9.362  0.00  0.00    -0.376 OA
HETATM   58  H   UNK N   1      26.515  18.463   9.399  0.00  0.00     0.212 HD
ENDBRANCH  48  57
ENDBRANCH  14  46
BRANCH  25  59
HETATM   59  C   UNK N   1      34.839  12.250   9.140  0.00  0.00     0.199 C 
BRANCH  59  60
HETATM   60  O   UNK N   1      35.661  13.368   9.281  0.00  0.00    -0.398 OA
HETATM   61  H   UNK N   1      36.352  13.444   9.957  0.00  0.00     0.209 HD
ENDBRANCH  59  60
ENDBRANCH  25  59
BRANCH  22  62
HETATM   62  N   UNK N   1      34.550  16.005  10.707  0.00  0.00    -0.317 N 
HETATM   63  C   UNK N   1      35.808  15.807  11.166  0.00  0.00     0.317 C 
HETATM   64  N   UNK N   1      36.021  14.958  12.186  0.00  0.00    -0.352 N 
HETATM   65  O   UNK N   1      36.753  16.411  10.674  0.00  0.00    -0.247 OA
HETATM   66  H   UNK N   1      36.870  14.753  12.639  0.00  0.00     0.160 HD
HETATM   67  H   UNK N   1      35.228  14.481  12.522  0.00  0.00     0.160 HD
HETATM   68  H   UNK N   1      33.802  15.525  11.129  0.00  0.00     0.170 HD
ENDBRANCH  22  62
ENDBRANCH   1   4
TORSDOF 14
ENDMDL
MODEL 7
REMARK VINA RESULT:      -7.1      5.266     10.593
REMARK  14 active torsions:
REMARK  status: ('A' for Active; 'I' for Inactive)
REMARK    1  A    between atoms: C_1  and  C_2 
REMARK    2  A    between atoms: C_7  and  O_13 
REMARK    3  A    between atoms: C_20  and  N_23 
REMARK    4  A    between atoms: C_21  and  N_25 
REMARK       I    between atoms: N_23  and  C_28 
REMARK       I    between atoms: N_25  and  C_31 
REMARK    5  A    between atoms: C_26  and  C_33 
REMARK       I    between atoms: C_28  and  N_34 
REMARK    6  A    between atoms: C_31  and  C_37 
REMARK    7  A    between atoms: C_33  and  O_40 
REMARK    8  A    between atoms: C_36  and  C_41 
REMARK    9  A    between atoms: C_37  and  C_42 
REMARK   10  A    between atoms: C_42  and  C_45 
REMARK   11  A    between atoms: C_42  and  N_46 
REMARK   12  A    between atoms: C_45  and  C_47 
REMARK   13  A    between atoms: C_47  and  C_48 
REMARK   14  A    between atoms: C_48  and  N_49 
ROOT
HETATM    1  C   UNK N   1      32.761   9.635   3.803  0.00  0.00     0.199 C 
HETATM    2  O   UNK N   1      31.782   9.267   4.728  0.00  0.00    -0.398 OA
HETATM    3  H   UNK N   1      31.024   8.963   5.252  0.00  0.00     0.209 HD
ENDROOT
BRANCH   1   4
HETATM    4  C   UNK N   1      32.932  11.150   3.751  0.00  0.00     0.200 C 
HETATM    5  N   UNK N   1      31.660  11.811   3.540  0.00  0.00    -0.344 N 
HETATM    6  C   UNK N   1      31.601  13.139   3.284  0.00  0.00     0.242 C 
HETATM    7  H   UNK N   1      30.827  11.287   3.582  0.00  0.00     0.163 HD
HETATM    8  C   UNK N   1      30.284  13.849   3.158  0.00  0.00     0.194 C 
HETATM    9  O   UNK N   1      32.630  13.800   3.225  0.00  0.00    -0.271 OA
HETATM   10  C   UNK N   1      30.230  15.362   3.117  0.00  0.00     0.157 C 
HETATM   11  N   UNK N   1      30.660  15.985   4.356  0.00  0.00    -0.357 N 
HETATM   12  C   UNK N   1      30.915  15.394   5.564  0.00  0.00     0.242 C 
HETATM   13  H   UNK N   1      30.783  16.962   4.324  0.00  0.00     0.162 HD
HETATM   14  C   UNK N   1      31.417  16.240   6.685  0.00  0.00     0.200 C 
HETATM   15  O   UNK N   1      30.762  14.196   5.745  0.00  0.00    -0.271 OA
HETATM   16  N   UNK N   1      32.541  17.028   6.208  0.00  0.00    -0.340 N 
HETATM   17  C   UNK N   1      33.820  16.895   6.646  0.00  0.00     0.270 C 
HETATM   18  H   UNK N   1      32.363  17.705   5.516  0.00  0.00     0.163 HD
HETATM   19  C   UNK N   1      34.250  15.759   7.497  0.00  0.00     0.118 C 
HETATM   20  O   UNK N   1      34.618  17.787   6.399  0.00  0.00    -0.266 OA
HETATM   21  N   UNK N   1      34.051  14.405   7.055  0.00  0.00    -0.320 N 
HETATM   22  C   UNK N   1      34.944  16.046   8.611  0.00  0.00     0.128 C 
HETATM   23  C   UNK N   1      33.632  13.385   7.853  0.00  0.00     0.247 C 
HETATM   24  H   UNK N   1      34.231  14.202   6.108  0.00  0.00     0.169 HD
HETATM   25  C   UNK N   1      33.817  11.943   7.442  0.00  0.00     0.200 C 
HETATM   26  O   UNK N   1      33.149  13.621   8.950  0.00  0.00    -0.271 OA
HETATM   27  N   UNK N   1      33.139  11.552   6.213  0.00  0.00    -0.344 N 
HETATM   28  C   UNK N   1      33.662  11.694   4.961  0.00  0.00     0.243 C 
HETATM   29  H   UNK N   1      32.241  11.157   6.292  0.00  0.00     0.163 HD
HETATM   30  O   UNK N   1      34.741  12.242   4.797  0.00  0.00    -0.271 OA
BRANCH   8  31
HETATM   31  N   UNK N   1      29.043  13.150   2.932  0.00  0.00    -0.346 N 
HETATM   32  C   UNK N   1      28.697  12.685   1.703  0.00  0.00     0.220 C 
HETATM   33  O   UNK N   1      29.383  12.931   0.722  0.00  0.00    -0.274 OA
HETATM   34  H   UNK N   1      28.429  13.008   3.688  0.00  0.00     0.163 HD
BRANCH  32  35
HETATM   35  C   UNK N   1      27.517  11.773   1.553  0.00  0.00     0.127 C 
BRANCH  35  36
HETATM   36  C   UNK N   1      27.944  10.326   1.273  0.00  0.00     0.082 C 
BRANCH  36  37
HETATM   37  C   UNK N   1      27.272   9.363   2.251  0.00  0.00     0.026 C 
BRANCH  37  38
HETATM   38  C   UNK N   1      27.173   9.922   3.665  0.00  0.00     0.021 C 
BRANCH  38  39
HETATM   39  C   UNK N   1      28.179   9.267   4.597  0.00  0.00     0.111 C 
BRANCH  39  40
HETATM   40  N   UNK N   1      29.014  10.282   5.215  0.00  0.00    -0.430 N 
HETATM   41  H   UNK N   1      28.918  10.668   6.154  0.00  0.00     0.149 HD
HETATM   42  H   UNK N   1      29.779  10.648   4.648  0.00  0.00     0.149 HD
ENDBRANCH  39  40
ENDBRANCH  38  39
ENDBRANCH  37  38
ENDBRANCH  36  37
BRANCH  36  43
HETATM   43  N   UNK N   1      29.395  10.196   1.334  0.00  0.00    -0.426 N 
HETATM   44  H   UNK N   1      30.047  10.282   0.554  0.00  0.00     0.150 HD
HETATM   45  H   UNK N   1      29.799  10.000   2.249  0.00  0.00     0.150 HD
ENDBRANCH  36  43
ENDBRANCH  35  36
ENDBRANCH  32  35
ENDBRANCH   8  31
BRANCH  14  46
HETATM   46  C   UNK N   1      30.299  17.159   7.227  0.00  0.00     0.135 C 
HETATM   47  C   UNK N   1      30.448  17.492   8.718  0.00  0.00     0.082 C 
HETATM   48  C   UNK N   1      29.337  18.453   9.118  0.00  0.00     0.237 C 
HETATM   49  N   UNK N   1      28.050  17.844   8.871  0.00  0.00    -0.200 N 
HETATM   50  C   UNK N   1      27.875  16.944   7.785  0.00  0.00     0.669 C 
HETATM   51  H   UNK N   1      27.289  18.053   9.460  0.00  0.00     0.180 HD
HETATM   52  N   UNK N   1      28.995  16.568   6.992  0.00  0.00    -0.220 N 
HETATM   53  N   UNK N   1      26.743  16.373   7.606  0.00  0.00    -0.235 N 
HETATM   54  H   UNK N   1      28.884  15.901   6.276  0.00  0.00     0.178 HD
HETATM   55  H   UNK N   1      25.998  16.550   8.223  0.00  0.00     0.174 HD
ATOM     56  HN  UNK N   1      26.614  15.735   6.821  1.00  0.00     0.174 HD
BRANCH  48  57
HETATM   57  O   UNK N   1      29.458  18.782  10.466  0.00  0.00    -0.376 OA
HETATM   58  H   UNK N   1      30.262  18.691  11.001  0.00  0.00     0.212 HD
ENDBRANCH  48  57
ENDBRANCH  14  46
BRANCH  25  59
HETATM   59  C   UNK N   1      35.283  11.504   7.461  0.00  0.00     0.199 C 
BRANCH  59  60
HETATM   60  O   UNK N   1      36.053  12.402   8.200  0.00  0.00    -0.398 OA
HETATM   61  H   UNK N   1      36.988  12.257   8.415  0.00  0.00     0.209 HD
ENDBRANCH  59  60
ENDBRANCH  25  59
BRANCH  22  62
HETATM   62  N   UNK N   1      35.477  15.051   9.466  0.00  0.00    -0.317 N 
HETATM   63  C   UNK N   1      36.254  15.375  10.526  0.00  0.00     0.317 C 
HETATM   64  N   UNK N   1      36.746  14.404  11.315  0.00  0.00    -0.352 N 
HETATM   65  O   UNK N   1      36.496  16.547  10.786  0.00  0.00    -0.247 OA
HETATM   66  H   UNK N   1      37.286  14.501  12.132  0.00  0.00     0.160 HD
HETATM   67  H   UNK N   1      36.541  13.481  11.041  0.00  0.00     0.160 HD
HETATM   68  H   UNK N   1      35.277  14.104   9.286  0.00  0.00     0.170 HD
ENDBRANCH  22  62
ENDBRANCH   1   4
TORSDOF 14
ENDMDL
MODEL 8
REMARK VINA RESULT:      -7.0      4.264     10.237
REMARK  14 active torsions:
REMARK  status: ('A' for Active; 'I' for Inactive)
REMARK    1  A    between atoms: C_1  and  C_2 
REMARK    2  A    between atoms: C_7  and  O_13 
REMARK    3  A    between atoms: C_20  and  N_23 
REMARK    4  A    between atoms: C_21  and  N_25 
REMARK       I    between atoms: N_23  and  C_28 
REMARK       I    between atoms: N_25  and  C_31 
REMARK    5  A    between atoms: C_26  and  C_33 
REMARK       I    between atoms: C_28  and  N_34 
REMARK    6  A    between atoms: C_31  and  C_37 
REMARK    7  A    between atoms: C_33  and  O_40 
REMARK    8  A    between atoms: C_36  and  C_41 
REMARK    9  A    between atoms: C_37  and  C_42 
REMARK   10  A    between atoms: C_42  and  C_45 
REMARK   11  A    between atoms: C_42  and  N_46 
REMARK   12  A    between atoms: C_45  and  C_47 
REMARK   13  A    between atoms: C_47  and  C_48 
REMARK   14  A    between atoms: C_48  and  N_49 
ROOT
HETATM    1  C   UNK N   1      33.606   9.190   5.546  0.00  0.00     0.199 C 
HETATM    2  O   UNK N   1      34.313   9.000   6.734  0.00  0.00    -0.398 OA
HETATM    3  H   UNK N   1      34.672   8.834   7.620  0.00  0.00     0.209 HD
ENDROOT
BRANCH   1   4
HETATM    4  C   UNK N   1      33.643  10.650   5.107  0.00  0.00     0.200 C 
HETATM    5  N   UNK N   1      32.425  11.017   4.412  0.00  0.00    -0.344 N 
HETATM    6  C   UNK N   1      32.317  12.210   3.781  0.00  0.00     0.242 C 
HETATM    7  H   UNK N   1      31.666  10.389   4.397  0.00  0.00     0.163 HD
HETATM    8  C   UNK N   1      31.029  12.637   3.141  0.00  0.00     0.194 C 
HETATM    9  O   UNK N   1      33.256  12.996   3.789  0.00  0.00    -0.271 OA
HETATM   10  C   UNK N   1      30.848  14.061   2.658  0.00  0.00     0.157 C 
HETATM   11  N   UNK N   1      30.854  15.036   3.734  0.00  0.00    -0.357 N 
HETATM   12  C   UNK N   1      30.815  14.817   5.085  0.00  0.00     0.242 C 
HETATM   13  H   UNK N   1      30.890  15.981   3.455  0.00  0.00     0.162 HD
HETATM   14  C   UNK N   1      30.902  15.988   6.004  0.00  0.00     0.200 C 
HETATM   15  O   UNK N   1      30.730  13.694   5.557  0.00  0.00    -0.271 OA
HETATM   16  N   UNK N   1      32.037  16.806   5.611  0.00  0.00    -0.340 N 
HETATM   17  C   UNK N   1      33.149  17.001   6.367  0.00  0.00     0.270 C 
HETATM   18  H   UNK N   1      31.997  17.250   4.733  0.00  0.00     0.163 HD
HETATM   19  C   UNK N   1      33.428  16.202   7.584  0.00  0.00     0.118 C 
HETATM   20  O   UNK N   1      33.898  17.922   6.078  0.00  0.00    -0.266 OA
HETATM   21  N   UNK N   1      33.487  14.767   7.512  0.00  0.00    -0.320 N 
HETATM   22  C   UNK N   1      33.752  16.869   8.704  0.00  0.00     0.128 C 
HETATM   23  C   UNK N   1      32.958  13.924   8.441  0.00  0.00     0.247 C 
HETATM   24  H   UNK N   1      33.942  14.366   6.737  0.00  0.00     0.169 HD
HETATM   25  C   UNK N   1      33.383  12.476   8.517  0.00  0.00     0.200 C 
HETATM   26  O   UNK N   1      32.167  14.343   9.273  0.00  0.00    -0.271 OA
HETATM   27  N   UNK N   1      33.115  11.683   7.324  0.00  0.00    -0.344 N 
HETATM   28  C   UNK N   1      33.952  11.592   6.250  0.00  0.00     0.243 C 
HETATM   29  H   UNK N   1      32.272  11.177   7.291  0.00  0.00     0.163 HD
HETATM   30  O   UNK N   1      34.978  12.253   6.205  0.00  0.00    -0.271 OA
BRANCH   8  31
HETATM   31  N   UNK N   1      29.971  11.708   2.829  0.00  0.00    -0.346 N 
HETATM   32  C   UNK N   1      29.136  11.225   3.788  0.00  0.00     0.220 C 
HETATM   33  O   UNK N   1      29.319  11.485   4.968  0.00  0.00    -0.274 OA
HETATM   34  H   UNK N   1      29.850  11.416   1.898  0.00  0.00     0.163 HD
BRANCH  32  35
HETATM   35  C   UNK N   1      27.917  10.447   3.395  0.00  0.00     0.127 C 
BRANCH  35  36
HETATM   36  C   UNK N   1      26.636  11.277   3.546  0.00  0.00     0.082 C 
BRANCH  36  37
HETATM   37  C   UNK N   1      26.609  12.422   2.535  0.00  0.00     0.026 C 
BRANCH  37  38
HETATM   38  C   UNK N   1      26.568  13.797   3.192  0.00  0.00     0.021 C 
BRANCH  38  39
HETATM   39  C   UNK N   1      27.299  14.837   2.360  0.00  0.00     0.111 C 
BRANCH  39  40
HETATM   40  N   UNK N   1      27.079  16.159   2.919  0.00  0.00    -0.430 N 
HETATM   41  H   UNK N   1      27.762  16.745   3.399  0.00  0.00     0.149 HD
HETATM   42  H   UNK N   1      26.139  16.544   2.820  0.00  0.00     0.149 HD
ENDBRANCH  39  40
ENDBRANCH  38  39
ENDBRANCH  37  38
ENDBRANCH  36  37
BRANCH  36  43
HETATM   43  N   UNK N   1      26.507  11.784   4.907  0.00  0.00    -0.426 N 
HETATM   44  H   UNK N   1      27.255  12.160   5.490  0.00  0.00     0.150 HD
HETATM   45  H   UNK N   1      25.573  11.761   5.316  0.00  0.00     0.150 HD
ENDBRANCH  36  43
ENDBRANCH  35  36
ENDBRANCH  32  35
ENDBRANCH   8  31
BRANCH  14  46
HETATM   46  C   UNK N   1      29.598  16.814   5.972  0.00  0.00     0.135 C 
HETATM   47  C   UNK N   1      29.690  18.072   5.095  0.00  0.00     0.082 C 
HETATM   48  C   UNK N   1      28.333  18.762   5.085  0.00  0.00     0.237 C 
HETATM   49  N   UNK N   1      27.956  19.122   6.433  0.00  0.00    -0.200 N 
HETATM   50  C   UNK N   1      28.350  18.312   7.532  0.00  0.00     0.669 C 
HETATM   51  H   UNK N   1      27.424  19.935   6.591  0.00  0.00     0.180 HD
HETATM   52  N   UNK N   1      29.199  17.190   7.315  0.00  0.00    -0.220 N 
HETATM   53  N   UNK N   1      28.052  18.667   8.725  0.00  0.00    -0.235 N 
HETATM   54  H   UNK N   1      29.517  16.664   8.084  0.00  0.00     0.178 HD
HETATM   55  H   UNK N   1      27.559  19.504   8.883  0.00  0.00     0.174 HD
ATOM     56  HN  UNK N   1      28.326  18.082   9.515  1.00  0.00     0.174 HD
BRANCH  48  57
HETATM   57  O   UNK N   1      28.387  19.900   4.285  0.00  0.00    -0.376 OA
HETATM   58  H   UNK N   1      28.579  19.915   3.334  0.00  0.00     0.212 HD
ENDBRANCH  48  57
ENDBRANCH  14  46
BRANCH  25  59
HETATM   59  C   UNK N   1      34.819  12.305   9.017  0.00  0.00     0.199 C 
BRANCH  59  60
HETATM   60  O   UNK N   1      35.222  13.427   9.743  0.00  0.00    -0.398 OA
HETATM   61  H   UNK N   1      35.096  13.520  10.700  0.00  0.00     0.209 HD
ENDBRANCH  59  60
ENDBRANCH  25  59
BRANCH  22  62
HETATM   62  N   UNK N   1      34.115  16.222   9.910  0.00  0.00    -0.317 N 
HETATM   63  C   UNK N   1      35.190  16.622  10.630  0.00  0.00     0.317 C 
HETATM   64  N   UNK N   1      35.506  15.983  11.768  0.00  0.00    -0.352 N 
HETATM   65  O   UNK N   1      35.865  17.576  10.262  0.00  0.00    -0.247 OA
HETATM   66  H   UNK N   1      36.230  16.193  12.402  0.00  0.00     0.160 HD
HETATM   67  H   UNK N   1      34.945  15.208  11.998  0.00  0.00     0.160 HD
HETATM   68  H   UNK N   1      33.573  15.467  10.233  0.00  0.00     0.170 HD
ENDBRANCH  22  62
ENDBRANCH   1   4
TORSDOF 14
ENDMDL
MODEL 9
REMARK VINA RESULT:      -6.8      3.256      8.859
REMARK  14 active torsions:
REMARK  status: ('A' for Active; 'I' for Inactive)
REMARK    1  A    between atoms: C_1  and  C_2 
REMARK    2  A    between atoms: C_7  and  O_13 
REMARK    3  A    between atoms: C_20  and  N_23 
REMARK    4  A    between atoms: C_21  and  N_25 
REMARK       I    between atoms: N_23  and  C_28 
REMARK       I    between atoms: N_25  and  C_31 
REMARK    5  A    between atoms: C_26  and  C_33 
REMARK       I    between atoms: C_28  and  N_34 
REMARK    6  A    between atoms: C_31  and  C_37 
REMARK    7  A    between atoms: C_33  and  O_40 
REMARK    8  A    between atoms: C_36  and  C_41 
REMARK    9  A    between atoms: C_37  and  C_42 
REMARK   10  A    between atoms: C_42  and  C_45 
REMARK   11  A    between atoms: C_42  and  N_46 
REMARK   12  A    between atoms: C_45  and  C_47 
REMARK   13  A    between atoms: C_47  and  C_48 
REMARK   14  A    between atoms: C_48  and  N_49 
ROOT
HETATM    1  C   UNK N   1      24.680  12.154   2.874  0.00  0.00     0.199 C 
HETATM    2  O   UNK N   1      25.333  10.990   2.467  0.00  0.00    -0.398 OA
HETATM    3  H   UNK N   1      25.782  10.141   2.329  0.00  0.00     0.209 HD
ENDROOT
BRANCH   1   4
HETATM    4  C   UNK N   1      25.563  13.382   2.675  0.00  0.00     0.200 C 
HETATM    5  N   UNK N   1      25.287  14.391   3.678  0.00  0.00    -0.344 N 
HETATM    6  C   UNK N   1      25.827  15.629   3.585  0.00  0.00     0.242 C 
HETATM    7  H   UNK N   1      24.698  14.173   4.437  0.00  0.00     0.163 HD
HETATM    8  C   UNK N   1      25.624  16.649   4.667  0.00  0.00     0.194 C 
HETATM    9  O   UNK N   1      26.558  15.912   2.644  0.00  0.00    -0.271 OA
HETATM   10  C   UNK N   1      26.427  17.934   4.671  0.00  0.00     0.157 C 
HETATM   11  N   UNK N   1      27.848  17.721   4.880  0.00  0.00    -0.357 N 
HETATM   12  C   UNK N   1      28.494  16.571   5.246  0.00  0.00     0.242 C 
HETATM   13  H   UNK N   1      28.424  18.508   4.741  0.00  0.00     0.162 HD
HETATM   14  C   UNK N   1      29.983  16.580   5.332  0.00  0.00     0.200 C 
HETATM   15  O   UNK N   1      27.890  15.536   5.487  0.00  0.00    -0.271 OA
HETATM   16  N   UNK N   1      30.517  17.145   4.103  0.00  0.00    -0.340 N 
HETATM   17  C   UNK N   1      31.258  16.459   3.195  0.00  0.00     0.270 C 
HETATM   18  H   UNK N   1      30.326  18.092   3.917  0.00  0.00     0.163 HD
HETATM   19  C   UNK N   1      31.404  14.984   3.245  0.00  0.00     0.118 C 
HETATM   20  O   UNK N   1      31.892  17.090   2.363  0.00  0.00    -0.266 OA
HETATM   21  N   UNK N   1      30.241  14.139   3.229  0.00  0.00    -0.320 N 
HETATM   22  C   UNK N   1      32.647  14.481   3.168  0.00  0.00     0.128 C 
HETATM   23  C   UNK N   1      30.084  13.026   3.996  0.00  0.00     0.247 C 
HETATM   24  H   UNK N   1      29.507  14.382   2.619  0.00  0.00     0.169 HD
HETATM   25  C   UNK N   1      29.043  11.984   3.661  0.00  0.00     0.200 C 
HETATM   26  O   UNK N   1      30.828  12.822   4.944  0.00  0.00    -0.271 OA
HETATM   27  N   UNK N   1      27.663  12.453   3.671  0.00  0.00    -0.344 N 
HETATM   28  C   UNK N   1      27.035  13.034   2.607  0.00  0.00     0.243 C 
HETATM   29  H   UNK N   1      27.148  12.342   4.502  0.00  0.00     0.163 HD
HETATM   30  O   UNK N   1      27.645  13.261   1.574  0.00  0.00    -0.271 OA
BRANCH   8  31
HETATM   31  N   UNK N   1      24.583  16.534   5.658  0.00  0.00    -0.346 N 
HETATM   32  C   UNK N   1      23.286  16.822   5.371  0.00  0.00     0.220 C 
HETATM   33  O   UNK N   1      22.972  17.287   4.285  0.00  0.00    -0.274 OA
HETATM   34  H   UNK N   1      24.818  16.240   6.567  0.00  0.00     0.163 HD
BRANCH  32  35
HETATM   35  C   UNK N   1      22.207  16.476   6.351  0.00  0.00     0.127 C 
BRANCH  35  36
HETATM   36  C   UNK N   1      20.818  16.482   5.700  0.00  0.00     0.082 C 
BRANCH  36  37
HETATM   37  C   UNK N   1      19.725  16.295   6.752  0.00  0.00     0.026 C 
BRANCH  37  38
HETATM   38  C   UNK N   1      20.164  16.715   8.149  0.00  0.00     0.021 C 
BRANCH  38  39
HETATM   39  C   UNK N   1      19.018  17.330   8.935  0.00  0.00     0.111 C 
BRANCH  39  40
HETATM   40  N   UNK N   1      19.393  18.655   9.397  0.00  0.00    -0.430 N 
HETATM   41  H   UNK N   1      19.071  19.125  10.244  0.00  0.00     0.149 HD
HETATM   42  H   UNK N   1      20.049  19.172   8.812  0.00  0.00     0.149 HD
ENDBRANCH  39  40
ENDBRANCH  38  39
ENDBRANCH  37  38
ENDBRANCH  36  37
BRANCH  36  43
HETATM   43  N   UNK N   1      20.727  15.454   4.670  0.00  0.00    -0.426 N 
HETATM   44  H   UNK N   1      21.406  14.715   4.485  0.00  0.00     0.150 HD
HETATM   45  H   UNK N   1      19.900  15.476   4.075  0.00  0.00     0.150 HD
ENDBRANCH  36  43
ENDBRANCH  35  36
ENDBRANCH  32  35
ENDBRANCH   8  31
BRANCH  14  46
HETATM   46  C   UNK N   1      30.461  17.390   6.557  0.00  0.00     0.135 C 
HETATM   47  C   UNK N   1      31.876  17.018   7.023  0.00  0.00     0.082 C 
HETATM   48  C   UNK N   1      32.261  17.925   8.185  0.00  0.00     0.237 C 
HETATM   49  N   UNK N   1      31.321  17.759   9.269  0.00  0.00    -0.200 N 
HETATM   50  C   UNK N   1      29.956  17.464   9.001  0.00  0.00     0.669 C 
HETATM   51  H   UNK N   1      31.627  17.850  10.201  0.00  0.00     0.180 HD
HETATM   52  N   UNK N   1      29.533  17.238   7.661  0.00  0.00    -0.220 N 
HETATM   53  N   UNK N   1      29.143  17.272   9.971  0.00  0.00    -0.235 N 
HETATM   54  H   UNK N   1      28.600  16.978   7.483  0.00  0.00     0.178 HD
HETATM   55  H   UNK N   1      29.463  17.319  10.900  0.00  0.00     0.174 HD
ATOM     56  HN  UNK N   1      28.162  17.069   9.780  1.00  0.00     0.174 HD
BRANCH  48  57
HETATM   57  O   UNK N   1      33.548  17.616   8.619  0.00  0.00    -0.376 OA
HETATM   58  H   UNK N   1      34.275  17.305   8.057  0.00  0.00     0.212 HD
ENDBRANCH  48  57
ENDBRANCH  14  46
BRANCH  25  59
HETATM   59  C   UNK N   1      29.379  11.197   2.392  0.00  0.00     0.199 C 
BRANCH  59  60
HETATM   60  O   UNK N   1      30.369  11.852   1.657  0.00  0.00    -0.398 OA
HETATM   61  H   UNK N   1      30.543  12.804   1.721  0.00  0.00     0.209 HD
ENDBRANCH  59  60
ENDBRANCH  25  59
BRANCH  22  62
HETATM   62  N   UNK N   1      32.916  13.091   3.128  0.00  0.00    -0.317 N 
HETATM   63  C   UNK N   1      33.399  12.498   2.011  0.00  0.00     0.317 C 
HETATM   64  N   UNK N   1      33.640  11.177   2.007  0.00  0.00    -0.352 N 
HETATM   65  O   UNK N   1      33.640  13.161   1.009  0.00  0.00    -0.247 OA
HETATM   66  H   UNK N   1      34.025  10.631   1.283  0.00  0.00     0.160 HD
HETATM   67  H   UNK N   1      33.402  10.693   2.830  0.00  0.00     0.160 HD
HETATM   68  H   UNK N   1      32.749  12.545   3.929  0.00  0.00     0.170 HD
ENDBRANCH  22  62
ENDBRANCH   1   4
TORSDOF 14
ENDMDL
