REMARK  8 active torsions:
REMARK  status: ('A' for Active; 'I' for Inactive)
REMARK    1  A    between atoms: P_1  and  O_3 
REMARK    2  A    between atoms: P_1  and  O_4 
REMARK    3  A    between atoms: P_1  and  O_5 
REMARK    4  A    between atoms: O_2  and  C_11 
REMARK    5  A    between atoms: O_2  and  C_19 
REMARK    6  A    between atoms: O_3  and  C_19 
REMARK    7  A    between atoms: C_7  and  C_9 
REMARK    8  A    between atoms: C_8  and  C_10 
ROOT
HETATM    1  C   UNK N   1       4.743  -1.824   0.119  0.00  0.00    -0.021 A 
HETATM    2  C   UNK N   1       2.308  -1.664  -0.230  0.00  0.00    -0.021 A 
HETATM    3  C   UNK N   1       3.573  -1.023  -0.088  0.00  0.00     0.085 A 
HETATM    4  C   UNK N   1       4.605  -3.218   0.214  0.00  0.00     0.010 A 
HETATM    5  C   UNK N   1       2.230  -3.058  -0.130  0.00  0.00     0.010 A 
HETATM    6  C   UNK N   1       3.363  -3.828   0.100  0.00  0.00     0.001 A 
ENDROOT
BRANCH   3   7
HETATM    7  O   UNK N   1       3.621   0.334  -0.157  0.00  0.00    -0.325 OA
BRANCH   7   8
HETATM    8  C   UNK N   1       4.543   1.139   0.464  0.00  0.00     0.357 C 
BRANCH   8   9
HETATM    9  O   UNK N   1       4.469   2.423  -0.081  0.00  0.00    -0.271 OA
BRANCH   9  10
HETATM   10  P   UNK N   1       5.749   3.317   0.685  0.00  0.00     0.392 P 
HETATM   11  O   UNK N   1       6.427   2.901  -0.650  0.00  0.00    -0.631 OA
BRANCH  10  12
HETATM   12  O   UNK N   1       4.402   4.358   0.341  0.00  0.00    -0.307 OA
HETATM   13  H   UNK N   1       4.529   5.301   0.150  0.00  0.00     0.222 HD
ENDBRANCH  10  12
BRANCH  10  14
HETATM   14  O   UNK N   1       6.284   4.834   0.035  0.00  0.00    -0.307 OA
HETATM   15  H   UNK N   1       7.168   4.999  -0.328  0.00  0.00     0.222 HD
ENDBRANCH  10  14
ENDBRANCH   9  10
ENDBRANCH   8   9
ENDBRANCH   7   8
ENDBRANCH   3   7
BRANCH   1  16
HETATM   16  C   UNK N   1       6.136  -1.221   0.205  0.00  0.00     0.013 C 
HETATM   17  C   UNK N   1       7.231  -2.226   0.544  0.00  0.00     0.015 C 
HETATM   18  C   UNK N   1       6.510  -0.555  -1.109  0.00  0.00     0.015 C 
ENDBRANCH   1  16
BRANCH   2  19
HETATM   19  C   UNK N   1       0.999  -0.930  -0.481  0.00  0.00     0.013 C 
HETATM   20  C   UNK N   1       0.031  -1.140   0.669  0.00  0.00     0.015 C 
HETATM   21  C   UNK N   1       1.069   0.555  -0.800  0.00  0.00     0.015 C 
ENDBRANCH   2  19
TORSDOF 8
