MODEL 1
REMARK VINA RESULT:      -5.4      0.000      0.000
REMARK  6 active torsions:
REMARK  status: ('A' for Active; 'I' for Inactive)
REMARK    1  A    between atoms: C_2  and  C_7 
REMARK    2  A    between atoms: C_7  and  N_8 
REMARK       I    between atoms: N_8  and  C_9 
REMARK    3  A    between atoms: C_9  and  C_11 
REMARK    4  A    between atoms: C_11  and  C_12 
REMARK    5  A    between atoms: C_11  and  N_15 
REMARK    6  A    between atoms: C_12  and  O_13 
REMARK       I    between atoms: N_15  and  C_16 
ROOT
HETATM    1  N   UNK N   1      36.065  14.113  16.817  0.00  0.00    -0.355 N 
HETATM    2  C   UNK N   1      36.738  14.361  15.664  0.00  0.00     0.242 C 
HETATM    3  O   UNK N   1      37.625  15.204  15.669  0.00  0.00    -0.271 OA
HETATM    4  H   UNK N   1      36.304  14.619  17.626  0.00  0.00     0.162 HD
ENDROOT
BRANCH   2   5
HETATM    5  C   UNK N   1      36.415  13.619  14.377  0.00  0.00     0.200 C 
BRANCH   5   6
HETATM    6  C   UNK N   1      37.256  12.345  14.279  0.00  0.00     0.202 C 
BRANCH   6   7
HETATM    7  O   UNK N   1      36.776  11.528  13.252  0.00  0.00    -0.393 OA
HETATM    8  C   UNK N   1      35.542  11.063  13.708  0.00  0.00     0.201 C 
ENDBRANCH   6   7
ENDBRANCH   5   6
BRANCH   5   9
HETATM    9  N   UNK N   1      36.666  14.471  13.227  0.00  0.00    -0.346 N 
HETATM   10  C   UNK N   1      35.759  14.723  12.250  0.00  0.00     0.214 C 
HETATM   11  O   UNK N   1      34.635  14.246  12.294  0.00  0.00    -0.274 OA
HETATM   12  C   UNK N   1      36.139  15.594  11.104  0.00  0.00     0.117 C 
HETATM   13  H   UNK N   1      37.552  14.893  13.152  0.00  0.00     0.163 HD
ENDBRANCH   5   9
ENDBRANCH   2   5
BRANCH   1  14
HETATM   14  C   UNK N   1      35.008  13.130  16.892  0.00  0.00     0.161 C 
BRANCH  14  15
HETATM   15  C   UNK N   1      35.324  11.999  17.820  0.00  0.00    -0.041 A 
HETATM   16  C   UNK N   1      35.632  10.713  17.352  0.00  0.00     0.009 A 
HETATM   17  C   UNK N   1      35.924   9.688  18.259  0.00  0.00     0.001 A 
HETATM   18  C   UNK N   1      35.905   9.944  19.633  0.00  0.00     0.000 A 
HETATM   19  C   UNK N   1      35.595  11.222  20.102  0.00  0.00     0.001 A 
HETATM   20  C   UNK N   1      35.309  12.248  19.197  0.00  0.00     0.009 A 
ENDBRANCH  14  15
ENDBRANCH   1  14
TORSDOF 6
ENDMDL
MODEL 2
REMARK VINA RESULT:      -5.4      4.955      9.806
REMARK  6 active torsions:
REMARK  status: ('A' for Active; 'I' for Inactive)
REMARK    1  A    between atoms: C_2  and  C_7 
REMARK    2  A    between atoms: C_7  and  N_8 
REMARK       I    between atoms: N_8  and  C_9 
REMARK    3  A    between atoms: C_9  and  C_11 
REMARK    4  A    between atoms: C_11  and  C_12 
REMARK    5  A    between atoms: C_11  and  N_15 
REMARK    6  A    between atoms: C_12  and  O_13 
REMARK       I    between atoms: N_15  and  C_16 
ROOT
HETATM    1  N   UNK N   1      33.746  17.512   9.166  0.00  0.00    -0.355 N 
HETATM    2  C   UNK N   1      34.785  16.937   9.825  0.00  0.00     0.242 C 
HETATM    3  O   UNK N   1      35.669  17.656  10.270  0.00  0.00    -0.271 OA
HETATM    4  H   UNK N   1      33.731  18.490   9.060  0.00  0.00     0.162 HD
ENDROOT
BRANCH   2   5
HETATM    5  C   UNK N   1      34.872  15.432  10.019  0.00  0.00     0.200 C 
BRANCH   5   6
HETATM    6  C   UNK N   1      35.335  15.111  11.441  0.00  0.00     0.202 C 
BRANCH   6   7
HETATM    7  O   UNK N   1      34.493  14.155  12.017  0.00  0.00    -0.393 OA
HETATM    8  C   UNK N   1      35.310  13.433  12.888  0.00  0.00     0.201 C 
ENDBRANCH   6   7
ENDBRANCH   5   6
BRANCH   5   9
HETATM    9  N   UNK N   1      35.789  14.851   9.052  0.00  0.00    -0.346 N 
HETATM   10  C   UNK N   1      35.411  14.049   8.026  0.00  0.00     0.214 C 
HETATM   11  O   UNK N   1      34.235  13.775   7.839  0.00  0.00    -0.274 OA
HETATM   12  C   UNK N   1      36.445  13.491   7.113  0.00  0.00     0.117 C 
HETATM   13  H   UNK N   1      36.748  15.054   9.150  0.00  0.00     0.163 HD
ENDBRANCH   5   9
ENDBRANCH   2   5
BRANCH   1  14
HETATM   14  C   UNK N   1      32.661  16.731   8.615  0.00  0.00     0.161 C 
BRANCH  14  15
HETATM   15  C   UNK N   1      32.421  17.001   7.163  0.00  0.00    -0.041 A 
HETATM   16  C   UNK N   1      31.134  16.994   6.605  0.00  0.00     0.009 A 
HETATM   17  C   UNK N   1      30.960  17.255   5.241  0.00  0.00     0.001 A 
HETATM   18  C   UNK N   1      32.069  17.519   4.433  0.00  0.00     0.000 A 
HETATM   19  C   UNK N   1      33.352  17.524   4.985  0.00  0.00     0.001 A 
HETATM   20  C   UNK N   1      33.526  17.268   6.348  0.00  0.00     0.009 A 
ENDBRANCH  14  15
ENDBRANCH   1  14
TORSDOF 6
ENDMDL
MODEL 3
REMARK VINA RESULT:      -5.4      5.860      8.140
REMARK  6 active torsions:
REMARK  status: ('A' for Active; 'I' for Inactive)
REMARK    1  A    between atoms: C_2  and  C_7 
REMARK    2  A    between atoms: C_7  and  N_8 
REMARK       I    between atoms: N_8  and  C_9 
REMARK    3  A    between atoms: C_9  and  C_11 
REMARK    4  A    between atoms: C_11  and  C_12 
REMARK    5  A    between atoms: C_11  and  N_15 
REMARK    6  A    between atoms: C_12  and  O_13 
REMARK       I    between atoms: N_15  and  C_16 
ROOT
HETATM    1  N   UNK N   1      35.105  17.273   9.766  0.00  0.00    -0.355 N 
HETATM    2  C   UNK N   1      34.624  17.975   8.707  0.00  0.00     0.242 C 
HETATM    3  O   UNK N   1      35.159  19.035   8.412  0.00  0.00    -0.271 OA
HETATM    4  H   UNK N   1      35.868  17.635  10.270  0.00  0.00     0.162 HD
ENDROOT
BRANCH   2   5
HETATM    5  C   UNK N   1      33.443  17.475   7.890  0.00  0.00     0.200 C 
BRANCH   5   6
HETATM    6  C   UNK N   1      33.755  17.585   6.396  0.00  0.00     0.202 C 
BRANCH   6   7
HETATM    7  O   UNK N   1      34.759  16.678   6.046  0.00  0.00    -0.393 OA
HETATM    8  C   UNK N   1      34.096  15.469   5.834  0.00  0.00     0.201 C 
ENDBRANCH   6   7
ENDBRANCH   5   6
BRANCH   5   9
HETATM    9  N   UNK N   1      32.250  18.241   8.208  0.00  0.00    -0.346 N 
HETATM   10  C   UNK N   1      31.109  17.704   8.708  0.00  0.00     0.214 C 
HETATM   11  O   UNK N   1      31.025  16.508   8.945  0.00  0.00    -0.274 OA
HETATM   12  C   UNK N   1      29.938  18.585   8.972  0.00  0.00     0.117 C 
HETATM   13  H   UNK N   1      32.271  19.212   8.050  0.00  0.00     0.163 HD
ENDBRANCH   5   9
ENDBRANCH   2   5
BRANCH   1  14
HETATM   14  C   UNK N   1      34.530  16.011  10.175  0.00  0.00     0.161 C 
BRANCH  14  15
HETATM   15  C   UNK N   1      35.557  15.008  10.597  0.00  0.00    -0.041 A 
HETATM   16  C   UNK N   1      36.553  14.547   9.723  0.00  0.00     0.009 A 
HETATM   17  C   UNK N   1      37.495  13.611  10.165  0.00  0.00     0.001 A 
HETATM   18  C   UNK N   1      37.441  13.130  11.477  0.00  0.00     0.000 A 
HETATM   19  C   UNK N   1      36.447  13.584  12.347  0.00  0.00     0.001 A 
HETATM   20  C   UNK N   1      35.511  14.524  11.909  0.00  0.00     0.009 A 
ENDBRANCH  14  15
ENDBRANCH   1  14
TORSDOF 6
ENDMDL
MODEL 4
REMARK VINA RESULT:      -5.4      3.457      5.541
REMARK  6 active torsions:
REMARK  status: ('A' for Active; 'I' for Inactive)
REMARK    1  A    between atoms: C_2  and  C_7 
REMARK    2  A    between atoms: C_7  and  N_8 
REMARK       I    between atoms: N_8  and  C_9 
REMARK    3  A    between atoms: C_9  and  C_11 
REMARK    4  A    between atoms: C_11  and  C_12 
REMARK    5  A    between atoms: C_11  and  N_15 
REMARK    6  A    between atoms: C_12  and  O_13 
REMARK       I    between atoms: N_15  and  C_16 
ROOT
HETATM    1  N   UNK N   1      35.675  15.683  11.670  0.00  0.00    -0.355 N 
HETATM    2  C   UNK N   1      35.327  16.415  10.581  0.00  0.00     0.242 C 
HETATM    3  O   UNK N   1      35.838  17.516  10.425  0.00  0.00    -0.271 OA
HETATM    4  H   UNK N   1      36.326  16.056  12.308  0.00  0.00     0.162 HD
ENDROOT
BRANCH   2   5
HETATM    5  C   UNK N   1      34.324  15.901   9.561  0.00  0.00     0.200 C 
BRANCH   5   6
HETATM    6  C   UNK N   1      35.052  15.420   8.305  0.00  0.00     0.202 C 
BRANCH   6   7
HETATM    7  O   UNK N   1      36.129  14.601   8.656  0.00  0.00    -0.393 OA
HETATM    8  C   UNK N   1      35.708  13.304   8.361  0.00  0.00     0.201 C 
ENDBRANCH   6   7
ENDBRANCH   5   6
BRANCH   5   9
HETATM    9  N   UNK N   1      33.373  16.945   9.218  0.00  0.00    -0.346 N 
HETATM   10  C   UNK N   1      32.126  16.714   8.738  0.00  0.00     0.214 C 
HETATM   11  O   UNK N   1      31.711  15.576   8.579  0.00  0.00    -0.274 OA
HETATM   12  C   UNK N   1      31.247  17.866   8.396  0.00  0.00     0.117 C 
HETATM   13  H   UNK N   1      33.653  17.880   9.342  0.00  0.00     0.163 HD
ENDBRANCH   5   9
ENDBRANCH   2   5
BRANCH   1  14
HETATM   14  C   UNK N   1      35.120  14.372  11.923  0.00  0.00     0.161 C 
BRANCH  14  15
HETATM   15  C   UNK N   1      35.538  13.802  13.242  0.00  0.00    -0.041 A 
HETATM   16  C   UNK N   1      36.476  14.440  14.067  0.00  0.00     0.009 A 
HETATM   17  C   UNK N   1      36.832  13.869  15.294  0.00  0.00     0.001 A 
HETATM   18  C   UNK N   1      36.257  12.660  15.697  0.00  0.00     0.000 A 
HETATM   19  C   UNK N   1      35.326  12.021  14.875  0.00  0.00     0.001 A 
HETATM   20  C   UNK N   1      34.965  12.593  13.652  0.00  0.00     0.009 A 
ENDBRANCH  14  15
ENDBRANCH   1  14
TORSDOF 6
ENDMDL
MODEL 5
REMARK VINA RESULT:      -5.4      6.114     10.481
REMARK  6 active torsions:
REMARK  status: ('A' for Active; 'I' for Inactive)
REMARK    1  A    between atoms: C_2  and  C_7 
REMARK    2  A    between atoms: C_7  and  N_8 
REMARK       I    between atoms: N_8  and  C_9 
REMARK    3  A    between atoms: C_9  and  C_11 
REMARK    4  A    between atoms: C_11  and  C_12 
REMARK    5  A    between atoms: C_11  and  N_15 
REMARK    6  A    between atoms: C_12  and  O_13 
REMARK       I    between atoms: N_15  and  C_16 
ROOT
HETATM    1  N   UNK N   1      33.029  18.299   8.413  0.00  0.00    -0.355 N 
HETATM    2  C   UNK N   1      34.375  18.131   8.344  0.00  0.00     0.242 C 
HETATM    3  O   UNK N   1      35.093  19.121   8.349  0.00  0.00    -0.271 OA
HETATM    4  H   UNK N   1      32.665  19.212   8.463  0.00  0.00     0.162 HD
ENDROOT
BRANCH   2   5
HETATM    5  C   UNK N   1      35.003  16.748   8.260  0.00  0.00     0.200 C 
BRANCH   5   6
HETATM    6  C   UNK N   1      34.542  16.039   6.986  0.00  0.00     0.202 C 
BRANCH   6   7
HETATM    7  O   UNK N   1      34.512  16.940   5.918  0.00  0.00    -0.393 OA
HETATM    8  C   UNK N   1      33.540  16.440   5.051  0.00  0.00     0.201 C 
ENDBRANCH   6   7
ENDBRANCH   5   6
BRANCH   5   9
HETATM    9  N   UNK N   1      34.643  15.960   9.427  0.00  0.00    -0.346 N 
HETATM   10  C   UNK N   1      35.399  15.869  10.550  0.00  0.00     0.214 C 
HETATM   11  O   UNK N   1      36.452  16.480  10.654  0.00  0.00    -0.274 OA
HETATM   12  C   UNK N   1      34.940  15.008  11.675  0.00  0.00     0.117 C 
HETATM   13  H   UNK N   1      33.796  15.460   9.401  0.00  0.00     0.163 HD
ENDBRANCH   5   9
ENDBRANCH   2   5
BRANCH   1  14
HETATM   14  C   UNK N   1      32.115  17.179   8.418  0.00  0.00     0.161 C 
BRANCH  14  15
HETATM   15  C   UNK N   1      30.700  17.576   8.139  0.00  0.00    -0.041 A 
HETATM   16  C   UNK N   1      29.911  18.241   9.089  0.00  0.00     0.009 A 
HETATM   17  C   UNK N   1      28.592  18.595   8.781  0.00  0.00     0.001 A 
HETATM   18  C   UNK N   1      28.058  18.281   7.528  0.00  0.00     0.000 A 
HETATM   19  C   UNK N   1      28.841  17.615   6.581  0.00  0.00     0.001 A 
HETATM   20  C   UNK N   1      30.159  17.267   6.886  0.00  0.00     0.009 A 
ENDBRANCH  14  15
ENDBRANCH   1  14
TORSDOF 6
ENDMDL
MODEL 6
REMARK VINA RESULT:      -5.3     10.105     13.049
REMARK  6 active torsions:
REMARK  status: ('A' for Active; 'I' for Inactive)
REMARK    1  A    between atoms: C_2  and  C_7 
REMARK    2  A    between atoms: C_7  and  N_8 
REMARK       I    between atoms: N_8  and  C_9 
REMARK    3  A    between atoms: C_9  and  C_11 
REMARK    4  A    between atoms: C_11  and  C_12 
REMARK    5  A    between atoms: C_11  and  N_15 
REMARK    6  A    between atoms: C_12  and  O_13 
REMARK       I    between atoms: N_15  and  C_16 
ROOT
HETATM    1  N   UNK N   1      29.161  17.341   7.251  0.00  0.00    -0.355 N 
HETATM    2  C   UNK N   1      30.301  17.014   7.914  0.00  0.00     0.242 C 
HETATM    3  O   UNK N   1      30.243  16.805   9.118  0.00  0.00    -0.271 OA
HETATM    4  H   UNK N   1      28.318  17.404   7.756  0.00  0.00     0.162 HD
ENDROOT
BRANCH   2   5
HETATM    5  C   UNK N   1      31.637  16.905   7.195  0.00  0.00     0.200 C 
BRANCH   5   6
HETATM    6  C   UNK N   1      31.990  15.434   6.964  0.00  0.00     0.202 C 
BRANCH   6   7
HETATM    7  O   UNK N   1      30.850  14.720   6.585  0.00  0.00    -0.393 OA
HETATM    8  C   UNK N   1      31.127  14.252   5.300  0.00  0.00     0.201 C 
ENDBRANCH   6   7
ENDBRANCH   5   6
BRANCH   5   9
HETATM    9  N   UNK N   1      32.681  17.551   7.972  0.00  0.00    -0.346 N 
HETATM   10  C   UNK N   1      33.844  18.016   7.451  0.00  0.00     0.214 C 
HETATM   11  O   UNK N   1      34.079  17.930   6.256  0.00  0.00    -0.274 OA
HETATM   12  C   UNK N   1      34.853  18.639   8.351  0.00  0.00     0.117 C 
HETATM   13  H   UNK N   1      32.534  17.659   8.940  0.00  0.00     0.163 HD
ENDBRANCH   5   9
ENDBRANCH   2   5
BRANCH   1  14
HETATM   14  C   UNK N   1      29.147  17.597   5.829  0.00  0.00     0.161 C 
BRANCH  14  15
HETATM   15  C   UNK N   1      28.245  18.729   5.446  0.00  0.00    -0.041 A 
HETATM   16  C   UNK N   1      27.802  18.916   4.128  0.00  0.00     0.009 A 
HETATM   17  C   UNK N   1      26.956  19.987   3.819  0.00  0.00     0.001 A 
HETATM   18  C   UNK N   1      26.557  20.875   4.822  0.00  0.00     0.000 A 
HETATM   19  C   UNK N   1      27.000  20.693   6.134  0.00  0.00     0.001 A 
HETATM   20  C   UNK N   1      27.840  19.620   6.445  0.00  0.00     0.009 A 
ENDBRANCH  14  15
ENDBRANCH   1  14
TORSDOF 6
ENDMDL
MODEL 7
REMARK VINA RESULT:      -5.1      6.755     10.296
REMARK  6 active torsions:
REMARK  status: ('A' for Active; 'I' for Inactive)
REMARK    1  A    between atoms: C_2  and  C_7 
REMARK    2  A    between atoms: C_7  and  N_8 
REMARK       I    between atoms: N_8  and  C_9 
REMARK    3  A    between atoms: C_9  and  C_11 
REMARK    4  A    between atoms: C_11  and  C_12 
REMARK    5  A    between atoms: C_11  and  N_15 
REMARK    6  A    between atoms: C_12  and  O_13 
REMARK       I    between atoms: N_15  and  C_16 
ROOT
HETATM    1  N   UNK N   1      31.571  14.840   7.290  0.00  0.00    -0.355 N 
HETATM    2  C   UNK N   1      32.715  14.456   7.914  0.00  0.00     0.242 C 
HETATM    3  O   UNK N   1      32.786  13.322   8.367  0.00  0.00    -0.271 OA
HETATM    4  H   UNK N   1      30.828  14.199   7.220  0.00  0.00     0.162 HD
ENDROOT
BRANCH   2   5
HETATM    5  C   UNK N   1      33.898  15.400   8.060  0.00  0.00     0.200 C 
BRANCH   5   6
HETATM    6  C   UNK N   1      34.982  15.044   7.042  0.00  0.00     0.202 C 
BRANCH   6   7
HETATM    7  O   UNK N   1      35.004  15.989   6.012  0.00  0.00    -0.393 OA
HETATM    8  C   UNK N   1      34.516  15.315   4.892  0.00  0.00     0.201 C 
ENDBRANCH   6   7
ENDBRANCH   5   6
BRANCH   5   9
HETATM    9  N   UNK N   1      34.437  15.327   9.408  0.00  0.00    -0.346 N 
HETATM   10  C   UNK N   1      35.010  16.370  10.059  0.00  0.00     0.214 C 
HETATM   11  O   UNK N   1      35.091  17.471   9.538  0.00  0.00    -0.274 OA
HETATM   12  C   UNK N   1      35.551  16.169  11.431  0.00  0.00     0.117 C 
HETATM   13  H   UNK N   1      34.382  14.464   9.879  0.00  0.00     0.163 HD
ENDBRANCH   5   9
ENDBRANCH   2   5
BRANCH   1  14
HETATM   14  C   UNK N   1      31.412  16.161   6.725  0.00  0.00     0.161 C 
BRANCH  14  15
HETATM   15  C   UNK N   1      30.451  17.015   7.490  0.00  0.00    -0.041 A 
HETATM   16  C   UNK N   1      29.084  17.068   7.174  0.00  0.00     0.009 A 
HETATM   17  C   UNK N   1      28.224  17.880   7.922  0.00  0.00     0.001 A 
HETATM   18  C   UNK N   1      28.725  18.643   8.981  0.00  0.00     0.000 A 
HETATM   19  C   UNK N   1      30.085  18.595   9.294  0.00  0.00     0.001 A 
HETATM   20  C   UNK N   1      30.945  17.780   8.552  0.00  0.00     0.009 A 
ENDBRANCH  14  15
ENDBRANCH   1  14
TORSDOF 6
ENDMDL
MODEL 8
REMARK VINA RESULT:      -5.1     14.663     16.339
REMARK  6 active torsions:
REMARK  status: ('A' for Active; 'I' for Inactive)
REMARK    1  A    between atoms: C_2  and  C_7 
REMARK    2  A    between atoms: C_7  and  N_8 
REMARK       I    between atoms: N_8  and  C_9 
REMARK    3  A    between atoms: C_9  and  C_11 
REMARK    4  A    between atoms: C_11  and  C_12 
REMARK    5  A    between atoms: C_11  and  N_15 
REMARK    6  A    between atoms: C_12  and  O_13 
REMARK       I    between atoms: N_15  and  C_16 
ROOT
HETATM    1  N   UNK N   1      20.681  13.723   8.273  0.00  0.00    -0.355 N 
HETATM    2  C   UNK N   1      20.707  14.605   7.241  0.00  0.00     0.242 C 
HETATM    3  O   UNK N   1      20.348  14.226   6.134  0.00  0.00    -0.271 OA
HETATM    4  H   UNK N   1      20.377  12.803   8.106  0.00  0.00     0.162 HD
ENDROOT
BRANCH   2   5
HETATM    5  C   UNK N   1      21.172  16.040   7.429  0.00  0.00     0.200 C 
BRANCH   5   6
HETATM    6  C   UNK N   1      19.976  16.943   7.740  0.00  0.00     0.202 C 
BRANCH   6   7
HETATM    7  O   UNK N   1      18.901  16.176   8.197  0.00  0.00    -0.393 OA
HETATM    8  C   UNK N   1      18.136  17.050   8.969  0.00  0.00     0.201 C 
ENDBRANCH   6   7
ENDBRANCH   5   6
BRANCH   5   9
HETATM    9  N   UNK N   1      21.855  16.510   6.235  0.00  0.00    -0.346 N 
HETATM   10  C   UNK N   1      23.150  16.237   5.939  0.00  0.00     0.214 C 
HETATM   11  O   UNK N   1      23.833  15.541   6.674  0.00  0.00    -0.274 OA
HETATM   12  C   UNK N   1      23.751  16.795   4.697  0.00  0.00     0.117 C 
HETATM   13  H   UNK N   1      21.344  17.063   5.601  0.00  0.00     0.163 HD
ENDBRANCH   5   9
ENDBRANCH   2   5
BRANCH   1  14
HETATM   14  C   UNK N   1      21.085  14.096   9.611  0.00  0.00     0.161 C 
BRANCH  14  15
HETATM   15  C   UNK N   1      22.270  13.325  10.102  0.00  0.00    -0.041 A 
HETATM   16  C   UNK N   1      22.194  12.462  11.205  0.00  0.00     0.009 A 
HETATM   17  C   UNK N   1      23.329  11.760  11.625  0.00  0.00     0.001 A 
HETATM   18  C   UNK N   1      24.542  11.922  10.949  0.00  0.00     0.000 A 
HETATM   19  C   UNK N   1      24.621  12.783   9.852  0.00  0.00     0.001 A 
HETATM   20  C   UNK N   1      23.486  13.480   9.428  0.00  0.00     0.009 A 
ENDBRANCH  14  15
ENDBRANCH   1  14
TORSDOF 6
ENDMDL
MODEL 9
REMARK VINA RESULT:      -5.1     21.420     24.736
REMARK  6 active torsions:
REMARK  status: ('A' for Active; 'I' for Inactive)
REMARK    1  A    between atoms: C_2  and  C_7 
REMARK    2  A    between atoms: C_7  and  N_8 
REMARK       I    between atoms: N_8  and  C_9 
REMARK    3  A    between atoms: C_9  and  C_11 
REMARK    4  A    between atoms: C_11  and  C_12 
REMARK    5  A    between atoms: C_11  and  N_15 
REMARK    6  A    between atoms: C_12  and  O_13 
REMARK       I    between atoms: N_15  and  C_16 
ROOT
HETATM    1  N   UNK N   1      26.884  24.173  -3.272  0.00  0.00    -0.355 N 
HETATM    2  C   UNK N   1      27.979  23.592  -2.717  0.00  0.00     0.242 C 
HETATM    3  O   UNK N   1      27.899  23.156  -1.577  0.00  0.00    -0.271 OA
HETATM    4  H   UNK N   1      26.056  24.231  -2.744  0.00  0.00     0.162 HD
ENDROOT
BRANCH   2   5
HETATM    5  C   UNK N   1      29.291  23.476  -3.476  0.00  0.00     0.200 C 
BRANCH   5   6
HETATM    6  C   UNK N   1      30.030  22.205  -3.055  0.00  0.00     0.202 C 
BRANCH   6   7
HETATM    7  O   UNK N   1      31.180  22.534  -2.332  0.00  0.00    -0.393 OA
HETATM    8  C   UNK N   1      32.182  21.716  -2.856  0.00  0.00     0.201 C 
ENDBRANCH   6   7
ENDBRANCH   5   6
BRANCH   5   9
HETATM    9  N   UNK N   1      30.122  24.642  -3.228  0.00  0.00    -0.346 N 
HETATM   10  C   UNK N   1      30.572  25.479  -4.196  0.00  0.00     0.214 C 
HETATM   11  O   UNK N   1      30.277  25.304  -5.369  0.00  0.00    -0.274 OA
HETATM   12  C   UNK N   1      31.440  26.629  -3.825  0.00  0.00     0.117 C 
HETATM   13  H   UNK N   1      30.375  24.836  -2.297  0.00  0.00     0.163 HD
ENDBRANCH   5   9
ENDBRANCH   2   5
BRANCH   1  14
HETATM   14  C   UNK N   1      26.897  24.708  -4.615  0.00  0.00     0.161 C 
BRANCH  14  15
HETATM   15  C   UNK N   1      26.766  26.198  -4.655  0.00  0.00    -0.041 A 
HETATM   16  C   UNK N   1      27.201  26.956  -5.752  0.00  0.00     0.009 A 
HETATM   17  C   UNK N   1      27.054  28.348  -5.744  0.00  0.00     0.001 A 
HETATM   18  C   UNK N   1      26.478  28.985  -4.641  0.00  0.00     0.000 A 
HETATM   19  C   UNK N   1      26.048  28.232  -3.546  0.00  0.00     0.001 A 
HETATM   20  C   UNK N   1      26.188  26.842  -3.555  0.00  0.00     0.009 A 
ENDBRANCH  14  15
ENDBRANCH   1  14
TORSDOF 6
ENDMDL
