REMARK  5 active torsions:
REMARK  status: ('A' for Active; 'I' for Inactive)
REMARK    1  A    between atoms: C_2  and  N_23 
REMARK    2  A    between atoms: C_5  and  C_7 
REMARK    3  A    between atoms: C_7  and  C_8 
REMARK    4  A    between atoms: C_8  and  N_9 
REMARK    5  A    between atoms: N_12  and  C_15 
REMARK       I    between atoms: N_23  and  C_24 
REMARK       I    between atoms: C_24  and  N_25 
ROOT
HETATM    1  C   UNK N   1       0.497   0.150   1.034  0.00  0.00     0.273 C 
ENDROOT
BRANCH   1   2
HETATM    2  C   UNK N   1      -0.068   1.523   1.357  0.00  0.00     0.034 C 
BRANCH   2   3
HETATM    3  C   UNK N   1      -1.490   1.733   0.851  0.00  0.00    -0.013 C 
HETATM    4  C   UNK N   1      -1.560   2.343  -0.537  0.00  0.00     0.007 C 
HETATM    5  C   UNK N   1      -2.991   2.832  -0.755  0.00  0.00     0.026 C 
HETATM    6  C   UNK N   1      -4.035   1.717  -0.584  0.00  0.00     0.086 C 
HETATM    7  C   UNK N   1      -3.802   0.906   0.702  0.00  0.00     0.026 C 
HETATM    8  C   UNK N   1      -2.359   0.483   0.893  0.00  0.00     0.007 C 
BRANCH   6   9
HETATM    9  N   UNK N   1      -5.327   2.350  -0.463  0.00  0.00    -0.338 N 
HETATM   10  C   UNK N   1      -6.492   1.658  -0.359  0.00  0.00     0.317 C 
HETATM   11  N   UNK N   1      -7.653   2.317  -0.090  0.00  0.00    -0.343 N 
HETATM   12  O   UNK N   1      -6.493   0.439  -0.480  0.00  0.00    -0.247 OA
HETATM   13  C   UNK N   1      -8.891   1.596   0.065  0.00  0.00     0.154 C 
HETATM   14  C   UNK N   1      -7.661   3.747   0.099  0.00  0.00     0.154 C 
HETATM   15  H   UNK N   1      -5.366   3.334  -0.455  0.00  0.00     0.164 HD
ENDBRANCH   6   9
ENDBRANCH   2   3
ENDBRANCH   1   2
BRANCH   1  16
HETATM   16  N   UNK N   1       0.985   0.065  -0.342  0.00  0.00     0.091 N 
HETATM   17  C   UNK N   1       2.279   0.753  -0.470  0.00  0.00     0.292 C 
HETATM   18  C   UNK N   1       3.339   0.120   0.437  0.00  0.00     0.153 C 
HETATM   19  N   UNK N   1       3.413  -1.301   0.183  0.00  0.00    -0.376 N 
HETATM   20  C   UNK N   1       2.168  -2.041   0.215  0.00  0.00     0.153 C 
HETATM   21  C   UNK N   1       1.144  -1.352  -0.696  0.00  0.00     0.292 C 
BRANCH  19  22
HETATM   22  C   UNK N   1       4.656  -2.003  -0.000  0.00  0.00     0.053 A 
HETATM   23  C   UNK N   1       5.932  -1.359  -0.109  0.00  0.00     0.082 A 
HETATM   24  C   UNK N   1       7.094  -2.148  -0.251  0.00  0.00     0.058 A 
HETATM   25 Cl   UNK N   1       6.139   0.398  -0.090  0.00  0.00    -0.080 Cl
HETATM   26  C   UNK N   1       7.007  -3.538  -0.285  0.00  0.00     0.026 A 
HETATM   27 Cl   UNK N   1       8.687  -1.418  -0.387  0.00  0.00    -0.082 Cl
HETATM   28  C   UNK N   1       5.773  -4.168  -0.188  0.00  0.00     0.004 A 
HETATM   29  C   UNK N   1       4.617  -3.410  -0.049  0.00  0.00     0.031 A 
ENDBRANCH  19  22
ENDBRANCH   1  16
TORSDOF 5
