MODEL 1
REMARK VINA RESULT:      -4.1      0.000      0.000
REMARK  3 active torsions:
REMARK  status: ('A' for Active; 'I' for Inactive)
REMARK    1  A    between atoms: N_2  and  C_3 
REMARK    2  A    between atoms: C_3  and  C_4 
REMARK    3  A    between atoms: C_4  and  C_5 
ROOT
HETATM    1  C   UNK N   1      30.884  17.613   8.110  0.00  0.00     0.010 A 
HETATM    2  C   UNK N   1      29.803  17.324   7.271  0.00  0.00     0.025 A 
HETATM    3  C   UNK N   1      28.507  17.615   7.702  0.00  0.00     0.003 A 
HETATM    4  C   UNK N   1      28.305  18.188   8.958  0.00  0.00     0.017 A 
HETATM    5  C   UNK N   1      29.406  18.463   9.769  0.00  0.00     0.088 A 
HETATM    6  N   UNK N   1      30.661  18.173   9.333  0.00  0.00    -0.369 N 
ATOM      7  HN  UNK N   1      31.457  18.379   9.936  1.00  0.00     0.165 HD
ENDROOT
BRANCH   1   8
HETATM    8  C   UNK N   1      32.277  17.301   7.651  0.00  0.00     0.076 C 
BRANCH   8   9
HETATM    9  C   UNK N   1      33.056  16.549   8.718  0.00  0.00     0.119 C 
BRANCH   9  10
HETATM   10  N   UNK N   1      34.060  17.407   9.312  0.00  0.00    -0.425 N 
HETATM   11  C   UNK N   1      34.525  18.273   8.244  0.00  0.00     0.139 C 
HETATM   12  H   UNK N   1      34.376  17.403  10.282  0.00  0.00     0.152 HD
ENDBRANCH   9  10
ENDBRANCH   8   9
ENDBRANCH   1   8
TORSDOF 3
ENDMDL
MODEL 2
REMARK VINA RESULT:      -4.1      4.318      5.974
REMARK  3 active torsions:
REMARK  status: ('A' for Active; 'I' for Inactive)
REMARK    1  A    between atoms: N_2  and  C_3 
REMARK    2  A    between atoms: C_3  and  C_4 
REMARK    3  A    between atoms: C_4  and  C_5 
ROOT
HETATM    1  C   UNK N   1      26.717  19.957   5.604  0.00  0.00     0.010 A 
HETATM    2  C   UNK N   1      27.087  20.549   4.393  0.00  0.00     0.025 A 
HETATM    3  C   UNK N   1      26.276  20.372   3.270  0.00  0.00     0.003 A 
HETATM    4  C   UNK N   1      25.111  19.610   3.368  0.00  0.00     0.017 A 
HETATM    5  C   UNK N   1      24.772  19.034   4.592  0.00  0.00     0.088 A 
HETATM    6  N   UNK N   1      25.575  19.217   5.675  0.00  0.00    -0.369 N 
ATOM      7  HN  UNK N   1      25.314  18.789   6.563  1.00  0.00     0.165 HD
ENDROOT
BRANCH   1   8
HETATM    8  C   UNK N   1      27.586  20.144   6.812  0.00  0.00     0.076 C 
BRANCH   8   9
HETATM    9  C   UNK N   1      28.046  18.809   7.374  0.00  0.00     0.119 C 
BRANCH   9  10
HETATM   10  N   UNK N   1      27.731  18.717   8.785  0.00  0.00    -0.425 N 
HETATM   11  C   UNK N   1      28.981  18.402   9.452  0.00  0.00     0.139 C 
HETATM   12  H   UNK N   1      26.818  18.847   9.220  0.00  0.00     0.152 HD
ENDBRANCH   9  10
ENDBRANCH   8   9
ENDBRANCH   1   8
TORSDOF 3
ENDMDL
MODEL 3
REMARK VINA RESULT:      -4.1     15.860     16.952
REMARK  3 active torsions:
REMARK  status: ('A' for Active; 'I' for Inactive)
REMARK    1  A    between atoms: N_2  and  C_3 
REMARK    2  A    between atoms: C_3  and  C_4 
REMARK    3  A    between atoms: C_4  and  C_5 
ROOT
HETATM    1  C   UNK N   1      25.960  25.246  -4.824  0.00  0.00     0.010 A 
HETATM    2  C   UNK N   1      25.210  25.984  -5.743  0.00  0.00     0.025 A 
HETATM    3  C   UNK N   1      24.935  27.328  -5.478  0.00  0.00     0.003 A 
HETATM    4  C   UNK N   1      25.410  27.916  -4.305  0.00  0.00     0.017 A 
HETATM    5  C   UNK N   1      26.156  27.149  -3.410  0.00  0.00     0.088 A 
HETATM    6  N   UNK N   1      26.414  25.842  -3.685  0.00  0.00    -0.369 N 
ATOM      7  HN  UNK N   1      26.961  25.294  -3.021  1.00  0.00     0.165 HD
ENDROOT
BRANCH   1   8
HETATM    8  C   UNK N   1      26.258  23.803  -5.104  0.00  0.00     0.076 C 
BRANCH   8   9
HETATM    9  C   UNK N   1      25.944  23.444  -6.547  0.00  0.00     0.119 C 
BRANCH   9  10
HETATM   10  N   UNK N   1      24.933  22.408  -6.604  0.00  0.00    -0.425 N 
HETATM   11  C   UNK N   1      25.152  21.707  -7.855  0.00  0.00     0.139 C 
HETATM   12  H   UNK N   1      24.214  22.212  -5.907  0.00  0.00     0.152 HD
ENDBRANCH   9  10
ENDBRANCH   8   9
ENDBRANCH   1   8
TORSDOF 3
ENDMDL
MODEL 4
REMARK VINA RESULT:      -4.1      9.317     10.900
REMARK  3 active torsions:
REMARK  status: ('A' for Active; 'I' for Inactive)
REMARK    1  A    between atoms: N_2  and  C_3 
REMARK    2  A    between atoms: C_3  and  C_4 
REMARK    3  A    between atoms: C_4  and  C_5 
ROOT
HETATM    1  C   UNK N   1      35.342  12.673  16.772  0.00  0.00     0.010 A 
HETATM    2  C   UNK N   1      35.159  13.622  17.782  0.00  0.00     0.025 A 
HETATM    3  C   UNK N   1      35.160  13.207  19.116  0.00  0.00     0.003 A 
HETATM    4  C   UNK N   1      35.343  11.859  19.424  0.00  0.00     0.017 A 
HETATM    5  C   UNK N   1      35.522  10.940  18.391  0.00  0.00     0.088 A 
HETATM    6  N   UNK N   1      35.518  11.362  17.098  0.00  0.00    -0.369 N 
ATOM      7  HN  UNK N   1      35.651  10.678  16.352  1.00  0.00     0.165 HD
ENDROOT
BRANCH   1   8
HETATM    8  C   UNK N   1      35.341  13.114  15.338  0.00  0.00     0.076 C 
BRANCH   8   9
HETATM    9  C   UNK N   1      36.750  13.406  14.849  0.00  0.00     0.119 C 
BRANCH   9  10
HETATM   10  N   UNK N   1      36.801  14.694  14.188  0.00  0.00    -0.425 N 
HETATM   11  C   UNK N   1      36.085  14.527  12.937  0.00  0.00     0.139 C 
HETATM   12  H   UNK N   1      37.248  15.544  14.532  0.00  0.00     0.152 HD
ENDBRANCH   9  10
ENDBRANCH   8   9
ENDBRANCH   1   8
TORSDOF 3
ENDMDL
MODEL 5
REMARK VINA RESULT:      -4.0      8.875     10.915
REMARK  3 active torsions:
REMARK  status: ('A' for Active; 'I' for Inactive)
REMARK    1  A    between atoms: N_2  and  C_3 
REMARK    2  A    between atoms: C_3  and  C_4 
REMARK    3  A    between atoms: C_4  and  C_5 
ROOT
HETATM    1  C   UNK N   1      22.006  13.210  10.180  0.00  0.00     0.010 A 
HETATM    2  C   UNK N   1      22.114  12.345  11.272  0.00  0.00     0.025 A 
HETATM    3  C   UNK N   1      23.359  11.800  11.591  0.00  0.00     0.003 A 
HETATM    4  C   UNK N   1      24.477  12.122  10.820  0.00  0.00     0.017 A 
HETATM    5  C   UNK N   1      24.333  12.989   9.737  0.00  0.00     0.088 A 
HETATM    6  N   UNK N   1      23.112  13.510   9.441  0.00  0.00    -0.369 N 
ATOM      7  HN  UNK N   1      23.022  14.143   8.646  1.00  0.00     0.165 HD
ENDROOT
BRANCH   1   8
HETATM    8  C   UNK N   1      20.670  13.798   9.834  0.00  0.00     0.076 C 
BRANCH   8   9
HETATM    9  C   UNK N   1      20.730  14.576   8.530  0.00  0.00     0.119 C 
BRANCH   9  10
HETATM   10  N   UNK N   1      20.701  16.001   8.787  0.00  0.00    -0.425 N 
HETATM   11  C   UNK N   1      19.299  16.376   8.792  0.00  0.00     0.139 C 
HETATM   12  H   UNK N   1      21.502  16.616   8.934  0.00  0.00     0.152 HD
ENDBRANCH   9  10
ENDBRANCH   8   9
ENDBRANCH   1   8
TORSDOF 3
ENDMDL
MODEL 6
REMARK VINA RESULT:      -4.0     17.006     18.019
REMARK  3 active torsions:
REMARK  status: ('A' for Active; 'I' for Inactive)
REMARK    1  A    between atoms: N_2  and  C_3 
REMARK    2  A    between atoms: C_3  and  C_4 
REMARK    3  A    between atoms: C_4  and  C_5 
ROOT
HETATM    1  C   UNK N   1      25.821  27.773  -5.236  0.00  0.00     0.010 A 
HETATM    2  C   UNK N   1      26.893  28.144  -6.053  0.00  0.00     0.025 A 
HETATM    3  C   UNK N   1      27.670  29.249  -5.699  0.00  0.00     0.003 A 
HETATM    4  C   UNK N   1      27.372  29.967  -4.541  0.00  0.00     0.017 A 
HETATM    5  C   UNK N   1      26.295  29.569  -3.749  0.00  0.00     0.088 A 
HETATM    6  N   UNK N   1      25.549  28.490  -4.109  0.00  0.00    -0.369 N 
ATOM      7  HN  UNK N   1      24.764  28.210  -3.520  1.00  0.00     0.165 HD
ENDROOT
BRANCH   1   8
HETATM    8  C   UNK N   1      24.984  26.588  -5.611  0.00  0.00     0.076 C 
BRANCH   8   9
HETATM    9  C   UNK N   1      25.679  25.284  -5.255  0.00  0.00     0.119 C 
BRANCH   9  10
HETATM   10  N   UNK N   1      25.347  24.253  -6.217  0.00  0.00    -0.425 N 
HETATM   11  C   UNK N   1      25.837  24.731  -7.497  0.00  0.00     0.139 C 
HETATM   12  H   UNK N   1      24.868  23.371  -6.032  0.00  0.00     0.152 HD
ENDBRANCH   9  10
ENDBRANCH   8   9
ENDBRANCH   1   8
TORSDOF 3
ENDMDL
MODEL 7
REMARK VINA RESULT:      -4.0      2.871      4.168
REMARK  3 active torsions:
REMARK  status: ('A' for Active; 'I' for Inactive)
REMARK    1  A    between atoms: N_2  and  C_3 
REMARK    2  A    between atoms: C_3  and  C_4 
REMARK    3  A    between atoms: C_4  and  C_5 
ROOT
HETATM    1  C   UNK N   1      28.029  19.020   6.830  0.00  0.00     0.010 A 
HETATM    2  C   UNK N   1      28.263  18.983   5.453  0.00  0.00     0.025 A 
HETATM    3  C   UNK N   1      27.634  19.917   4.627  0.00  0.00     0.003 A 
HETATM    4  C   UNK N   1      26.782  20.872   5.182  0.00  0.00     0.017 A 
HETATM    5  C   UNK N   1      26.570  20.881   6.560  0.00  0.00     0.088 A 
HETATM    6  N   UNK N   1      27.192  19.963   7.349  0.00  0.00    -0.369 N 
ATOM      7  HN  UNK N   1      27.028  19.982   8.356  1.00  0.00     0.165 HD
ENDROOT
BRANCH   1   8
HETATM    8  C   UNK N   1      28.702  18.020   7.721  0.00  0.00     0.076 C 
BRANCH   8   9
HETATM    9  C   UNK N   1      28.536  18.383   9.187  0.00  0.00     0.119 C 
BRANCH   9  10
HETATM   10  N   UNK N   1      29.826  18.458   9.841  0.00  0.00    -0.425 N 
HETATM   11  C   UNK N   1      30.804  18.089   8.834  0.00  0.00     0.139 C 
HETATM   12  H   UNK N   1      30.009  18.717  10.810  0.00  0.00     0.152 HD
ENDBRANCH   9  10
ENDBRANCH   8   9
ENDBRANCH   1   8
TORSDOF 3
ENDMDL
MODEL 8
REMARK VINA RESULT:      -4.0      2.103      3.248
REMARK  3 active torsions:
REMARK  status: ('A' for Active; 'I' for Inactive)
REMARK    1  A    between atoms: N_2  and  C_3 
REMARK    2  A    between atoms: C_3  and  C_4 
REMARK    3  A    between atoms: C_4  and  C_5 
ROOT
HETATM    1  C   UNK N   1      33.262  17.632   7.342  0.00  0.00     0.010 A 
HETATM    2  C   UNK N   1      33.489  17.562   5.965  0.00  0.00     0.025 A 
HETATM    3  C   UNK N   1      32.419  17.288   5.109  0.00  0.00     0.003 A 
HETATM    4  C   UNK N   1      31.143  17.090   5.635  0.00  0.00     0.017 A 
HETATM    5  C   UNK N   1      30.952  17.167   7.014  0.00  0.00     0.088 A 
HETATM    6  N   UNK N   1      32.006  17.435   7.832  0.00  0.00    -0.369 N 
ATOM      7  HN  UNK N   1      31.852  17.488   8.839  1.00  0.00     0.165 HD
ENDROOT
BRANCH   1   8
HETATM    8  C   UNK N   1      34.408  17.925   8.264  0.00  0.00     0.076 C 
BRANCH   8   9
HETATM    9  C   UNK N   1      34.688  16.752   9.189  0.00  0.00     0.119 C 
BRANCH   9  10
HETATM   10  N   UNK N   1      35.031  17.222  10.515  0.00  0.00    -0.425 N 
HETATM   11  C   UNK N   1      35.738  16.127  11.154  0.00  0.00     0.139 C 
HETATM   12  H   UNK N   1      34.820  18.135  10.917  0.00  0.00     0.152 HD
ENDBRANCH   9  10
ENDBRANCH   8   9
ENDBRANCH   1   8
TORSDOF 3
ENDMDL
MODEL 9
REMARK VINA RESULT:      -3.9      6.049      8.122
REMARK  3 active torsions:
REMARK  status: ('A' for Active; 'I' for Inactive)
REMARK    1  A    between atoms: N_2  and  C_3 
REMARK    2  A    between atoms: C_3  and  C_4 
REMARK    3  A    between atoms: C_4  and  C_5 
ROOT
HETATM    1  C   UNK N   1      36.106  14.072  13.282  0.00  0.00     0.010 A 
HETATM    2  C   UNK N   1      35.216  13.068  13.675  0.00  0.00     0.025 A 
HETATM    3  C   UNK N   1      35.164  12.690  15.019  0.00  0.00     0.003 A 
HETATM    4  C   UNK N   1      35.994  13.314  15.950  0.00  0.00     0.017 A 
HETATM    5  C   UNK N   1      36.870  14.312  15.523  0.00  0.00     0.088 A 
HETATM    6  N   UNK N   1      36.908  14.667  14.210  0.00  0.00    -0.369 N 
ATOM      7  HN  UNK N   1      37.554  15.398  13.912  1.00  0.00     0.165 HD
ENDROOT
BRANCH   1   8
HETATM    8  C   UNK N   1      36.166  14.481  11.841  0.00  0.00     0.076 C 
BRANCH   8   9
HETATM    9  C   UNK N   1      34.799  14.392  11.183  0.00  0.00     0.119 C 
BRANCH   9  10
HETATM   10  N   UNK N   1      34.244  15.714  10.986  0.00  0.00    -0.425 N 
HETATM   11  C   UNK N   1      35.369  16.576  10.673  0.00  0.00     0.139 C 
HETATM   12  H   UNK N   1      33.263  15.986  11.054  0.00  0.00     0.152 HD
ENDBRANCH   9  10
ENDBRANCH   8   9
ENDBRANCH   1   8
TORSDOF 3
ENDMDL
