MODEL 1
REMARK VINA RESULT:      -3.9      0.000      0.000
REMARK  4 active torsions:
REMARK  status: ('A' for Active; 'I' for Inactive)
REMARK    1  A    between atoms: C_2  and  C_3 
REMARK    2  A    between atoms: C_2  and  O_8 
REMARK    3  A    between atoms: C_3  and  N_4 
REMARK    4  A    between atoms: O_8  and  C_9 
ROOT
HETATM    1  C   UNK N   1      33.101  17.599   4.576  0.00  0.00     0.042 C 
HETATM    2  C   UNK N   1      33.628  17.000   5.876  0.00  0.00     0.153 C 
ENDROOT
BRANCH   2   3
HETATM    3  C   UNK N   1      34.502  15.792   5.518  0.00  0.00     0.268 C 
BRANCH   3   4
HETATM    4  N   UNK N   1      34.297  14.577   6.322  0.00  0.00    -0.076 N 
HETATM    5  C   UNK N   1      34.532  13.322   5.620  0.00  0.00     0.271 C 
HETATM    6  C   UNK N   1      35.208  14.635   7.450  0.00  0.00     0.271 C 
HETATM    7  C   UNK N   1      32.941  14.575   6.840  0.00  0.00     0.271 C 
ENDBRANCH   3   4
ENDBRANCH   2   3
BRANCH   2   8
HETATM    8  O   UNK N   1      34.414  17.918   6.546  0.00  0.00    -0.315 OA
BRANCH   8   9
HETATM    9  C   UNK N   1      34.216  18.336   7.826  0.00  0.00     0.255 C 
HETATM   10  O   UNK N   1      35.028  19.083   8.341  0.00  0.00    -0.266 OA
HETATM   11  C   UNK N   1      33.018  17.913   8.620  0.00  0.00     0.126 C 
ENDBRANCH   8   9
ENDBRANCH   2   8
TORSDOF 4
ENDMDL
MODEL 2
REMARK VINA RESULT:      -3.9      2.188      3.335
REMARK  4 active torsions:
REMARK  status: ('A' for Active; 'I' for Inactive)
REMARK    1  A    between atoms: C_2  and  C_3 
REMARK    2  A    between atoms: C_2  and  O_8 
REMARK    3  A    between atoms: C_3  and  N_4 
REMARK    4  A    between atoms: O_8  and  C_9 
ROOT
HETATM    1  C   UNK N   1      35.581  16.312  11.175  0.00  0.00     0.042 C 
HETATM    2  C   UNK N   1      34.943  16.273   9.790  0.00  0.00     0.153 C 
ENDROOT
BRANCH   2   3
HETATM    3  C   UNK N   1      33.854  15.195   9.802  0.00  0.00     0.268 C 
BRANCH   3   4
HETATM    4  N   UNK N   1      33.910  14.197   8.721  0.00  0.00    -0.076 N 
HETATM    5  C   UNK N   1      35.035  14.338   7.806  0.00  0.00     0.271 C 
HETATM    6  C   UNK N   1      33.995  12.886   9.336  0.00  0.00     0.271 C 
HETATM    7  C   UNK N   1      32.677  14.258   7.958  0.00  0.00     0.271 C 
ENDBRANCH   3   4
ENDBRANCH   2   3
BRANCH   2   8
HETATM    8  O   UNK N   1      34.346  17.486   9.499  0.00  0.00    -0.315 OA
BRANCH   8   9
HETATM    9  C   UNK N   1      34.556  18.214   8.369  0.00  0.00     0.255 C 
HETATM   10  O   UNK N   1      35.288  19.186   8.415  0.00  0.00    -0.266 OA
HETATM   11  C   UNK N   1      33.922  17.848   7.063  0.00  0.00     0.126 C 
ENDBRANCH   8   9
ENDBRANCH   2   8
TORSDOF 4
ENDMDL
MODEL 3
REMARK VINA RESULT:      -3.8      1.507      2.175
REMARK  4 active torsions:
REMARK  status: ('A' for Active; 'I' for Inactive)
REMARK    1  A    between atoms: C_2  and  C_3 
REMARK    2  A    between atoms: C_2  and  O_8 
REMARK    3  A    between atoms: C_3  and  N_4 
REMARK    4  A    between atoms: O_8  and  C_9 
ROOT
HETATM    1  C   UNK N   1      34.575  15.633   5.387  0.00  0.00     0.042 C 
HETATM    2  C   UNK N   1      34.238  16.160   6.778  0.00  0.00     0.153 C 
ENDROOT
BRANCH   2   3
HETATM    3  C   UNK N   1      34.952  15.272   7.804  0.00  0.00     0.268 C 
BRANCH   3   4
HETATM    4  N   UNK N   1      34.099  14.615   8.806  0.00  0.00    -0.076 N 
HETATM    5  C   UNK N   1      32.675  14.602   8.495  0.00  0.00     0.271 C 
HETATM    6  C   UNK N   1      34.542  13.238   8.928  0.00  0.00     0.271 C 
HETATM    7  C   UNK N   1      34.290  15.264  10.090  0.00  0.00     0.271 C 
ENDBRANCH   3   4
ENDBRANCH   2   3
BRANCH   2   8
HETATM    8  O   UNK N   1      34.700  17.453   6.930  0.00  0.00    -0.315 OA
BRANCH   8   9
HETATM    9  C   UNK N   1      34.326  18.311   7.918  0.00  0.00     0.255 C 
HETATM   10  O   UNK N   1      35.155  19.059   8.402  0.00  0.00    -0.266 OA
HETATM   11  C   UNK N   1      32.916  18.371   8.420  0.00  0.00     0.126 C 
ENDBRANCH   8   9
ENDBRANCH   2   8
TORSDOF 4
ENDMDL
MODEL 4
REMARK VINA RESULT:      -3.7      2.040      3.476
REMARK  4 active torsions:
REMARK  status: ('A' for Active; 'I' for Inactive)
REMARK    1  A    between atoms: C_2  and  C_3 
REMARK    2  A    between atoms: C_2  and  O_8 
REMARK    3  A    between atoms: C_3  and  N_4 
REMARK    4  A    between atoms: O_8  and  C_9 
ROOT
HETATM    1  C   UNK N   1      31.144  17.753   8.569  0.00  0.00     0.042 C 
HETATM    2  C   UNK N   1      32.477  17.165   8.120  0.00  0.00     0.153 C 
ENDROOT
BRANCH   2   3
HETATM    3  C   UNK N   1      32.691  15.850   8.879  0.00  0.00     0.268 C 
BRANCH   3   4
HETATM    4  N   UNK N   1      34.037  15.626   9.431  0.00  0.00    -0.076 N 
HETATM    5  C   UNK N   1      34.074  14.912  10.701  0.00  0.00     0.271 C 
HETATM    6  C   UNK N   1      34.789  14.853   8.461  0.00  0.00     0.271 C 
HETATM    7  C   UNK N   1      34.699  16.907   9.597  0.00  0.00     0.271 C 
ENDBRANCH   3   4
ENDBRANCH   2   3
BRANCH   2   8
HETATM    8  O   UNK N   1      32.449  16.883   6.768  0.00  0.00    -0.315 OA
BRANCH   8   9
HETATM    9  C   UNK N   1      33.250  17.457   5.828  0.00  0.00     0.255 C 
HETATM   10  O   UNK N   1      34.348  17.869   6.154  0.00  0.00    -0.266 OA
HETATM   11  C   UNK N   1      32.823  17.587   4.398  0.00  0.00     0.126 C 
ENDBRANCH   8   9
ENDBRANCH   2   8
TORSDOF 4
ENDMDL
MODEL 5
REMARK VINA RESULT:      -3.7     15.316     17.345
REMARK  4 active torsions:
REMARK  status: ('A' for Active; 'I' for Inactive)
REMARK    1  A    between atoms: C_2  and  C_3 
REMARK    2  A    between atoms: C_2  and  O_8 
REMARK    3  A    between atoms: C_3  and  N_4 
REMARK    4  A    between atoms: O_8  and  C_9 
ROOT
HETATM    1  C   UNK N   1      25.013  26.459  -5.569  0.00  0.00     0.042 C 
HETATM    2  C   UNK N   1      26.095  26.785  -4.545  0.00  0.00     0.153 C 
ENDROOT
BRANCH   2   3
HETATM    3  C   UNK N   1      25.756  28.142  -3.916  0.00  0.00     0.268 C 
BRANCH   3   4
HETATM    4  N   UNK N   1      26.804  29.172  -3.979  0.00  0.00    -0.076 N 
HETATM    5  C   UNK N   1      26.376  30.516  -3.614  0.00  0.00     0.271 C 
HETATM    6  C   UNK N   1      27.865  28.778  -3.071  0.00  0.00     0.271 C 
HETATM    7  C   UNK N   1      27.353  29.206  -5.323  0.00  0.00     0.271 C 
ENDBRANCH   3   4
ENDBRANCH   2   3
BRANCH   2   8
HETATM    8  O   UNK N   1      26.110  25.836  -3.541  0.00  0.00    -0.315 OA
BRANCH   8   9
HETATM    9  C   UNK N   1      26.999  24.810  -3.443  0.00  0.00     0.255 C 
HETATM   10  O   UNK N   1      26.780  23.906  -2.657  0.00  0.00    -0.266 OA
HETATM   11  C   UNK N   1      28.235  24.751  -4.287  0.00  0.00     0.126 C 
ENDBRANCH   8   9
ENDBRANCH   2   8
TORSDOF 4
ENDMDL
MODEL 6
REMARK VINA RESULT:      -3.7     11.052     12.576
REMARK  4 active torsions:
REMARK  status: ('A' for Active; 'I' for Inactive)
REMARK    1  A    between atoms: C_2  and  C_3 
REMARK    2  A    between atoms: C_2  and  O_8 
REMARK    3  A    between atoms: C_3  and  N_4 
REMARK    4  A    between atoms: O_8  and  C_9 
ROOT
HETATM    1  C   UNK N   1      33.343  20.963  -2.676  0.00  0.00     0.042 C 
HETATM    2  C   UNK N   1      32.182  21.776  -3.239  0.00  0.00     0.153 C 
ENDROOT
BRANCH   2   3
HETATM    3  C   UNK N   1      31.336  20.845  -4.116  0.00  0.00     0.268 C 
BRANCH   3   4
HETATM    4  N   UNK N   1      31.136  21.265  -5.512  0.00  0.00    -0.076 N 
HETATM    5  C   UNK N   1      31.967  22.379  -5.950  0.00  0.00     0.271 C 
HETATM    6  C   UNK N   1      31.432  20.126  -6.362  0.00  0.00     0.271 C 
HETATM    7  C   UNK N   1      29.742  21.619  -5.704  0.00  0.00     0.271 C 
ENDBRANCH   3   4
ENDBRANCH   2   3
BRANCH   2   8
HETATM    8  O   UNK N   1      31.383  22.249  -2.216  0.00  0.00    -0.315 OA
BRANCH   8   9
HETATM    9  C   UNK N   1      30.411  23.192  -2.350  0.00  0.00     0.255 C 
HETATM   10  O   UNK N   1      30.706  24.295  -2.774  0.00  0.00    -0.266 OA
HETATM   11  C   UNK N   1      28.982  22.910  -2.002  0.00  0.00     0.126 C 
ENDBRANCH   8   9
ENDBRANCH   2   8
TORSDOF 4
ENDMDL
MODEL 7
REMARK VINA RESULT:      -3.6      2.654      3.863
REMARK  4 active torsions:
REMARK  status: ('A' for Active; 'I' for Inactive)
REMARK    1  A    between atoms: C_2  and  C_3 
REMARK    2  A    between atoms: C_2  and  O_8 
REMARK    3  A    between atoms: C_3  and  N_4 
REMARK    4  A    between atoms: O_8  and  C_9 
ROOT
HETATM    1  C   UNK N   1      32.065  15.649   8.756  0.00  0.00     0.042 C 
HETATM    2  C   UNK N   1      33.548  16.006   8.787  0.00  0.00     0.153 C 
ENDROOT
BRANCH   2   3
HETATM    3  C   UNK N   1      34.299  14.839   9.438  0.00  0.00     0.268 C 
BRANCH   3   4
HETATM    4  N   UNK N   1      35.314  15.195  10.442  0.00  0.00    -0.076 N 
HETATM    5  C   UNK N   1      35.428  16.619  10.732  0.00  0.00     0.271 C 
HETATM    6  C   UNK N   1      34.971  14.514  11.677  0.00  0.00     0.271 C 
HETATM    7  C   UNK N   1      36.608  14.704  10.002  0.00  0.00     0.271 C 
ENDBRANCH   3   4
ENDBRANCH   2   3
BRANCH   2   8
HETATM    8  O   UNK N   1      34.032  16.168   7.503  0.00  0.00    -0.315 OA
BRANCH   8   9
HETATM    9  C   UNK N   1      34.022  17.334   6.801  0.00  0.00     0.255 C 
HETATM   10  O   UNK N   1      34.591  18.309   7.257  0.00  0.00    -0.266 OA
HETATM   11  C   UNK N   1      33.339  17.451   5.473  0.00  0.00     0.126 C 
ENDBRANCH   8   9
ENDBRANCH   2   8
TORSDOF 4
ENDMDL
MODEL 8
REMARK VINA RESULT:      -3.6      1.895      2.818
REMARK  4 active torsions:
REMARK  status: ('A' for Active; 'I' for Inactive)
REMARK    1  A    between atoms: C_2  and  C_3 
REMARK    2  A    between atoms: C_2  and  O_8 
REMARK    3  A    between atoms: C_3  and  N_4 
REMARK    4  A    between atoms: O_8  and  C_9 
ROOT
HETATM    1  C   UNK N   1      31.435  17.957   8.447  0.00  0.00     0.042 C 
HETATM    2  C   UNK N   1      32.491  17.289   7.574  0.00  0.00     0.153 C 
ENDROOT
BRANCH   2   3
HETATM    3  C   UNK N   1      31.901  17.115   6.170  0.00  0.00     0.268 C 
BRANCH   3   4
HETATM    4  N   UNK N   1      31.769  15.732   5.683  0.00  0.00    -0.076 N 
HETATM    5  C   UNK N   1      32.594  14.750   6.374  0.00  0.00     0.271 C 
HETATM    6  C   UNK N   1      30.381  15.340   5.841  0.00  0.00     0.271 C 
HETATM    7  C   UNK N   1      32.088  15.697   4.267  0.00  0.00     0.271 C 
ENDBRANCH   3   4
ENDBRANCH   2   3
BRANCH   2   8
HETATM    8  O   UNK N   1      33.613  18.090   7.475  0.00  0.00    -0.315 OA
BRANCH   8   9
HETATM    9  C   UNK N   1      34.597  18.183   8.410  0.00  0.00     0.255 C 
HETATM   10  O   UNK N   1      35.286  19.186   8.451  0.00  0.00    -0.266 OA
HETATM   11  C   UNK N   1      34.852  17.089   9.401  0.00  0.00     0.126 C 
ENDBRANCH   8   9
ENDBRANCH   2   8
TORSDOF 4
ENDMDL
MODEL 9
REMARK VINA RESULT:      -3.5     10.236     10.960
REMARK  4 active torsions:
REMARK  status: ('A' for Active; 'I' for Inactive)
REMARK    1  A    between atoms: C_2  and  C_3 
REMARK    2  A    between atoms: C_2  and  O_8 
REMARK    3  A    between atoms: C_3  and  N_4 
REMARK    4  A    between atoms: O_8  and  C_9 
ROOT
HETATM    1  C   UNK N   1      40.936  24.339   1.099  0.00  0.00     0.042 C 
HETATM    2  C   UNK N   1      41.569  23.109   1.740  0.00  0.00     0.153 C 
ENDROOT
BRANCH   2   3
HETATM    3  C   UNK N   1      41.599  21.992   0.690  0.00  0.00     0.268 C 
BRANCH   3   4
HETATM    4  N   UNK N   1      40.849  20.769   1.014  0.00  0.00    -0.076 N 
HETATM    5  C   UNK N   1      39.977  20.866   2.178  0.00  0.00     0.271 C 
HETATM    6  C   UNK N   1      40.026  20.439  -0.135  0.00  0.00     0.271 C 
HETATM    7  C   UNK N   1      41.787  19.681   1.223  0.00  0.00     0.271 C 
ENDBRANCH   3   4
ENDBRANCH   2   3
BRANCH   2   8
HETATM    8  O   UNK N   1      42.869  23.378   2.121  0.00  0.00    -0.315 OA
BRANCH   8   9
HETATM    9  C   UNK N   1      43.407  23.093   3.339  0.00  0.00     0.255 C 
HETATM   10  O   UNK N   1      43.846  23.999   4.022  0.00  0.00    -0.266 OA
HETATM   11  C   UNK N   1      43.462  21.693   3.870  0.00  0.00     0.126 C 
ENDBRANCH   8   9
ENDBRANCH   2   8
TORSDOF 4
ENDMDL
