MODEL 1
REMARK VINA RESULT:      -6.5      0.000      0.000
REMARK  10 active torsions:
REMARK  status: ('A' for Active; 'I' for Inactive)
REMARK    1  A    between atoms: S_1  and  C_17 
REMARK    2  A    between atoms: S_1  and  C_21 
REMARK    3  A    between atoms: S_2  and  N_11 
REMARK    4  A    between atoms: S_2  and  N_12 
REMARK    5  A    between atoms: C_19  and  O_4 
REMARK    6  A    between atoms: O_5  and  C_26 
REMARK    7  A    between atoms: N_11  and  C_27 
REMARK    8  A    between atoms: C_14  and  C_19 
REMARK    9  A    between atoms: C_18  and  C_26 
REMARK   10  A    between atoms: C_23  and  C_27 
ROOT
HETATM    1  O   UNK N   1      19.292  14.305   9.687  0.00  0.00    -0.279 OA
HETATM    2  N   UNK N   1      21.376  14.905   9.100  0.00  0.00    -0.206 NA
HETATM    3  C   UNK N   1      22.336  13.858   8.927  0.00  0.00     0.095 A 
HETATM    4  C   UNK N   1      21.270  12.896   9.672  0.00  0.00     0.120 A 
HETATM    5  C   UNK N   1      22.519  13.842   7.376  0.00  0.00     0.043 A 
HETATM    6  C   UNK N   1      20.504  14.172   9.756  0.00  0.00     0.213 A 
HETATM    7  C   UNK N   1      21.646  14.982   6.890  0.00  0.00     0.013 A 
HETATM    8  C   UNK N   1      21.031  15.566   7.912  0.00  0.00     0.105 A 
HETATM    9  C   UNK N   1      22.153  12.509   6.749  0.00  0.00     0.017 C 
ENDROOT
BRANCH   7  10
HETATM   10  S   UNK N   1      21.490  15.444   5.151  0.00  0.00    -0.125 SA
BRANCH  10  11
HETATM   11  C   UNK N   1      22.904  16.584   5.194  0.00  0.00     0.071 C 
HETATM   12  C   UNK N   1      23.832  16.377   4.034  0.00  0.00     0.043 C 
HETATM   13  C   UNK N   1      24.601  17.685   4.011  0.00  0.00     0.096 C 
HETATM   14  N   UNK N   1      23.700  18.714   4.541  0.00  0.00    -0.414 N 
HETATM   15  C   UNK N   1      22.498  18.016   4.995  0.00  0.00     0.129 C 
HETATM   16  H   UNK N   1      23.876  19.717   4.584  0.00  0.00     0.153 HD
BRANCH  13  17
HETATM   17  C   UNK N   1      25.817  17.552   4.928  0.00  0.00     0.158 C 
BRANCH  17  18
HETATM   18  N   UNK N   1      25.991  18.722   5.789  0.00  0.00    -0.301 N 
HETATM   19  H   UNK N   1      25.450  18.903   6.636  0.00  0.00     0.173 HD
BRANCH  18  20
HETATM   20  S   UNK N   1      27.267  19.786   5.163  0.00  0.00     0.312 S 
HETATM   21  O   UNK N   1      25.979  20.609   5.327  0.00  0.00    -0.183 OA
HETATM   22  O   UNK N   1      27.720  19.349   6.565  0.00  0.00    -0.183 OA
BRANCH  20  23
HETATM   23  N   UNK N   1      27.643  21.245   6.079  0.00  0.00    -0.312 N 
HETATM   24  H   UNK N   1      26.890  21.810   6.470  0.00  0.00     0.170 HD
HETATM   25  H   UNK N   1      28.615  21.524   6.217  0.00  0.00     0.170 HD
ENDBRANCH  20  23
ENDBRANCH  18  20
ENDBRANCH  17  18
ENDBRANCH  13  17
ENDBRANCH  10  11
ENDBRANCH   7  10
BRANCH   8  26
HETATM   26  C   UNK N   1      20.072  16.698   7.850  0.00  0.00     0.189 C 
HETATM   27  O   UNK N   1      20.484  17.846   7.920  0.00  0.00    -0.645 OA
BRANCH  26  28
HETATM   28  O   UNK N   1      18.751  16.482   7.711  0.00  0.00    -0.772 OA
HETATM   29  H   UNK N   1      18.257  15.804   8.129  0.00  0.00     0.167 HD
ENDBRANCH  26  28
ENDBRANCH   8  26
BRANCH   4  30
HETATM   30  C   UNK N   1      21.721  12.316  11.013  0.00  0.00     0.128 C 
HETATM   31  C   UNK N   1      20.508  11.927  11.836  0.00  0.00     0.040 C 
BRANCH  30  32
HETATM   32  O   UNK N   1      22.551  11.205  10.849  0.00  0.00    -0.395 OA
HETATM   33  H   UNK N   1      23.251  10.535  10.886  0.00  0.00     0.210 HD
ENDBRANCH  30  32
ENDBRANCH   4  30
TORSDOF 10
ENDMDL
MODEL 2
REMARK VINA RESULT:      -6.4      9.654     11.535
REMARK  10 active torsions:
REMARK  status: ('A' for Active; 'I' for Inactive)
REMARK    1  A    between atoms: S_1  and  C_17 
REMARK    2  A    between atoms: S_1  and  C_21 
REMARK    3  A    between atoms: S_2  and  N_11 
REMARK    4  A    between atoms: S_2  and  N_12 
REMARK    5  A    between atoms: C_19  and  O_4 
REMARK    6  A    between atoms: O_5  and  C_26 
REMARK    7  A    between atoms: N_11  and  C_27 
REMARK    8  A    between atoms: C_14  and  C_19 
REMARK    9  A    between atoms: C_18  and  C_26 
REMARK   10  A    between atoms: C_23  and  C_27 
ROOT
HETATM    1  O   UNK N   1      35.443  17.255  10.460  0.00  0.00    -0.279 OA
HETATM    2  N   UNK N   1      34.551  15.813   8.986  0.00  0.00    -0.206 NA
HETATM    3  C   UNK N   1      33.773  14.734   9.513  0.00  0.00     0.095 A 
HETATM    4  C   UNK N   1      34.404  15.116  10.953  0.00  0.00     0.120 A 
HETATM    5  C   UNK N   1      32.324  15.153   9.109  0.00  0.00     0.043 A 
HETATM    6  C   UNK N   1      35.127  16.124  10.126  0.00  0.00     0.213 A 
HETATM    7  C   UNK N   1      32.518  16.431   8.318  0.00  0.00     0.013 A 
HETATM    8  C   UNK N   1      33.805  16.754   8.262  0.00  0.00     0.105 A 
HETATM    9  C   UNK N   1      31.403  15.331  10.303  0.00  0.00     0.017 C 
ENDROOT
BRANCH   7  10
HETATM   10  S   UNK N   1      31.157  17.357   7.576  0.00  0.00    -0.125 SA
BRANCH  10  11
HETATM   11  C   UNK N   1      31.349  16.582   5.944  0.00  0.00     0.071 C 
HETATM   12  C   UNK N   1      30.230  15.633   5.633  0.00  0.00     0.043 C 
HETATM   13  C   UNK N   1      30.333  15.511   4.124  0.00  0.00     0.096 C 
HETATM   14  N   UNK N   1      30.879  16.780   3.634  0.00  0.00    -0.414 N 
HETATM   15  C   UNK N   1      31.221  17.567   4.818  0.00  0.00     0.129 C 
HETATM   16  H   UNK N   1      30.996  17.060   2.660  0.00  0.00     0.153 HD
BRANCH  13  17
HETATM   17  C   UNK N   1      31.304  14.377   3.792  0.00  0.00     0.158 C 
BRANCH  17  18
HETATM   18  N   UNK N   1      32.021  14.613   2.539  0.00  0.00    -0.301 N 
HETATM   19  H   UNK N   1      31.577  14.868   1.657  0.00  0.00     0.173 HD
BRANCH  18  20
HETATM   20  S   UNK N   1      33.769  14.390   2.758  0.00  0.00     0.312 S 
HETATM   21  O   UNK N   1      33.302  13.491   1.602  0.00  0.00    -0.183 OA
HETATM   22  O   UNK N   1      33.572  15.849   2.319  0.00  0.00    -0.183 OA
BRANCH  20  23
HETATM   23  N   UNK N   1      34.814  14.673   1.366  0.00  0.00    -0.312 N 
HETATM   24  H   UNK N   1      34.666  15.490   0.775  0.00  0.00     0.170 HD
HETATM   25  H   UNK N   1      35.567  14.018   1.153  0.00  0.00     0.170 HD
ENDBRANCH  20  23
ENDBRANCH  18  20
ENDBRANCH  17  18
ENDBRANCH  13  17
ENDBRANCH  10  11
ENDBRANCH   7  10
BRANCH   8  26
HETATM   26  C   UNK N   1      34.400  17.945   7.606  0.00  0.00     0.189 C 
HETATM   27  O   UNK N   1      34.530  17.968   6.392  0.00  0.00    -0.645 OA
BRANCH  26  28
HETATM   28  O   UNK N   1      34.796  19.011   8.328  0.00  0.00    -0.772 OA
HETATM   29  H   UNK N   1      34.993  19.012   9.244  0.00  0.00     0.167 HD
ENDBRANCH  26  28
ENDBRANCH   8  26
BRANCH   4  30
HETATM   30  C   UNK N   1      35.287  14.046  11.598  0.00  0.00     0.128 C 
HETATM   31  C   UNK N   1      35.993  14.627  12.807  0.00  0.00     0.040 C 
BRANCH  30  32
HETATM   32  O   UNK N   1      34.550  12.924  11.982  0.00  0.00    -0.395 OA
HETATM   33  H   UNK N   1      33.867  12.262  12.175  0.00  0.00     0.210 HD
ENDBRANCH  30  32
ENDBRANCH   4  30
TORSDOF 10
ENDMDL
MODEL 3
REMARK VINA RESULT:      -6.1     11.867     13.960
REMARK  10 active torsions:
REMARK  status: ('A' for Active; 'I' for Inactive)
REMARK    1  A    between atoms: S_1  and  C_17 
REMARK    2  A    between atoms: S_1  and  C_21 
REMARK    3  A    between atoms: S_2  and  N_11 
REMARK    4  A    between atoms: S_2  and  N_12 
REMARK    5  A    between atoms: C_19  and  O_4 
REMARK    6  A    between atoms: O_5  and  C_26 
REMARK    7  A    between atoms: N_11  and  C_27 
REMARK    8  A    between atoms: C_14  and  C_19 
REMARK    9  A    between atoms: C_18  and  C_26 
REMARK   10  A    between atoms: C_23  and  C_27 
ROOT
HETATM    1  O   UNK N   1      35.874  14.894  12.811  0.00  0.00    -0.279 OA
HETATM    2  N   UNK N   1      37.216  13.128  12.446  0.00  0.00    -0.206 NA
HETATM    3  C   UNK N   1      36.840  11.885  13.046  0.00  0.00     0.095 A 
HETATM    4  C   UNK N   1      35.802  12.745  13.940  0.00  0.00     0.120 A 
HETATM    5  C   UNK N   1      36.372  11.058  11.806  0.00  0.00     0.043 A 
HETATM    6  C   UNK N   1      36.425  13.872  13.189  0.00  0.00     0.213 A 
HETATM    7  C   UNK N   1      36.631  11.979  10.630  0.00  0.00     0.013 A 
HETATM    8  C   UNK N   1      37.128  13.138  11.047  0.00  0.00     0.105 A 
HETATM    9  C   UNK N   1      34.923  10.614  11.900  0.00  0.00     0.017 C 
ENDROOT
BRANCH   7  10
HETATM   10  S   UNK N   1      36.291  11.524   8.916  0.00  0.00    -0.125 SA
BRANCH  10  11
HETATM   11  C   UNK N   1      34.845  12.615   8.778  0.00  0.00     0.071 C 
HETATM   12  C   UNK N   1      34.913  13.495   7.567  0.00  0.00     0.043 C 
HETATM   13  C   UNK N   1      33.465  13.916   7.403  0.00  0.00     0.096 C 
HETATM   14  N   UNK N   1      32.644  12.823   7.935  0.00  0.00    -0.414 N 
HETATM   15  C   UNK N   1      33.573  11.858   8.522  0.00  0.00     0.129 C 
HETATM   16  H   UNK N   1      31.628  12.750   7.901  0.00  0.00     0.153 HD
BRANCH  13  17
HETATM   17  C   UNK N   1      33.228  15.180   8.230  0.00  0.00     0.158 C 
BRANCH  17  18
HETATM   18  N   UNK N   1      34.341  16.125   8.126  0.00  0.00    -0.301 N 
HETATM   19  H   UNK N   1      35.312  15.859   7.960  0.00  0.00     0.173 HD
BRANCH  18  20
HETATM   20  S   UNK N   1      33.775  17.795   8.331  0.00  0.00     0.312 S 
HETATM   21  O   UNK N   1      34.652  17.423   9.538  0.00  0.00    -0.183 OA
HETATM   22  O   UNK N   1      34.675  17.795   7.086  0.00  0.00    -0.183 OA
BRANCH  20  23
HETATM   23  N   UNK N   1      34.990  19.053   8.553  0.00  0.00    -0.312 N 
HETATM   24  H   UNK N   1      35.900  18.969   8.101  0.00  0.00     0.170 HD
HETATM   25  H   UNK N   1      34.783  19.865   9.134  0.00  0.00     0.170 HD
ENDBRANCH  20  23
ENDBRANCH  18  20
ENDBRANCH  17  18
ENDBRANCH  13  17
ENDBRANCH  10  11
ENDBRANCH   7  10
BRANCH   8  26
HETATM   26  C   UNK N   1      37.487  14.310  10.209  0.00  0.00     0.189 C 
HETATM   27  O   UNK N   1      38.552  14.326   9.613  0.00  0.00    -0.645 OA
BRANCH  26  28
HETATM   28  O   UNK N   1      36.652  15.360  10.089  0.00  0.00    -0.772 OA
HETATM   29  H   UNK N   1      35.762  15.324   9.796  0.00  0.00     0.167 HD
ENDBRANCH  26  28
ENDBRANCH   8  26
BRANCH   4  30
HETATM   30  C   UNK N   1      36.063  12.742  15.447  0.00  0.00     0.128 C 
HETATM   31  C   UNK N   1      34.780  13.067  16.188  0.00  0.00     0.040 C 
BRANCH  30  32
HETATM   32  O   UNK N   1      36.560  11.514  15.889  0.00  0.00    -0.395 OA
HETATM   33  H   UNK N   1      36.798  10.713  16.382  0.00  0.00     0.210 HD
ENDBRANCH  30  32
ENDBRANCH   4  30
TORSDOF 10
ENDMDL
MODEL 4
REMARK VINA RESULT:      -6.1     15.529     16.719
REMARK  10 active torsions:
REMARK  status: ('A' for Active; 'I' for Inactive)
REMARK    1  A    between atoms: S_1  and  C_17 
REMARK    2  A    between atoms: S_1  and  C_21 
REMARK    3  A    between atoms: S_2  and  N_11 
REMARK    4  A    between atoms: S_2  and  N_12 
REMARK    5  A    between atoms: C_19  and  O_4 
REMARK    6  A    between atoms: O_5  and  C_26 
REMARK    7  A    between atoms: N_11  and  C_27 
REMARK    8  A    between atoms: C_14  and  C_19 
REMARK    9  A    between atoms: C_18  and  C_26 
REMARK   10  A    between atoms: C_23  and  C_27 
ROOT
HETATM    1  O   UNK N   1      32.614  19.873  -6.637  0.00  0.00    -0.279 OA
HETATM    2  N   UNK N   1      30.739  20.270  -5.464  0.00  0.00    -0.206 NA
HETATM    3  C   UNK N   1      30.807  21.264  -4.437  0.00  0.00     0.095 A 
HETATM    4  C   UNK N   1      32.414  21.176  -4.598  0.00  0.00     0.120 A 
HETATM    5  C   UNK N   1      29.977  22.430  -5.063  0.00  0.00     0.043 A 
HETATM    6  C   UNK N   1      32.040  20.128  -5.590  0.00  0.00     0.213 A 
HETATM    7  C   UNK N   1      29.485  21.866  -6.381  0.00  0.00     0.013 A 
HETATM    8  C   UNK N   1      29.933  20.627  -6.554  0.00  0.00     0.105 A 
HETATM    9  C   UNK N   1      30.780  23.707  -5.229  0.00  0.00     0.017 C 
ENDROOT
BRANCH   7  10
HETATM   10  S   UNK N   1      28.443  22.789  -7.531  0.00  0.00    -0.125 SA
BRANCH  10  11
HETATM   11  C   UNK N   1      27.355  23.435  -6.226  0.00  0.00     0.071 C 
HETATM   12  C   UNK N   1      27.256  24.930  -6.261  0.00  0.00     0.043 C 
HETATM   13  C   UNK N   1      25.987  25.179  -5.466  0.00  0.00     0.096 C 
HETATM   14  N   UNK N   1      25.130  24.006  -5.662  0.00  0.00    -0.414 N 
HETATM   15  C   UNK N   1      25.919  23.039  -6.423  0.00  0.00     0.129 C 
HETATM   16  H   UNK N   1      24.172  23.888  -5.333  0.00  0.00     0.153 HD
BRANCH  13  17
HETATM   17  C   UNK N   1      26.355  25.300  -3.987  0.00  0.00     0.158 C 
BRANCH  17  18
HETATM   18  N   UNK N   1      26.932  26.606  -3.666  0.00  0.00    -0.301 N 
HETATM   19  H   UNK N   1      27.804  26.743  -3.155  0.00  0.00     0.173 HD
BRANCH  18  20
HETATM   20  S   UNK N   1      25.908  27.919  -4.281  0.00  0.00     0.312 S 
HETATM   21  O   UNK N   1      25.559  27.677  -2.804  0.00  0.00    -0.183 OA
HETATM   22  O   UNK N   1      27.354  28.438  -4.336  0.00  0.00    -0.183 OA
BRANCH  20  23
HETATM   23  N   UNK N   1      25.952  29.463  -3.430  0.00  0.00    -0.312 N 
HETATM   24  H   UNK N   1      25.678  29.513  -2.450  0.00  0.00     0.170 HD
HETATM   25  H   UNK N   1      26.252  30.306  -3.920  0.00  0.00     0.170 HD
ENDBRANCH  20  23
ENDBRANCH  18  20
ENDBRANCH  17  18
ENDBRANCH  13  17
ENDBRANCH  10  11
ENDBRANCH   7  10
BRANCH   8  26
HETATM   26  C   UNK N   1      29.697  19.747  -7.726  0.00  0.00     0.189 C 
HETATM   27  O   UNK N   1      28.830  18.888  -7.675  0.00  0.00    -0.645 OA
BRANCH  26  28
HETATM   28  O   UNK N   1      30.421  19.882  -8.853  0.00  0.00    -0.772 OA
HETATM   29  H   UNK N   1      31.197  20.399  -8.950  0.00  0.00     0.167 HD
ENDBRANCH  26  28
ENDBRANCH   8  26
BRANCH   4  30
HETATM   30  C   UNK N   1      33.178  20.672  -3.373  0.00  0.00     0.128 C 
HETATM   31  C   UNK N   1      34.662  20.921  -3.558  0.00  0.00     0.040 C 
BRANCH  30  32
HETATM   32  O   UNK N   1      32.745  21.288  -2.197  0.00  0.00    -0.395 OA
HETATM   33  H   UNK N   1      32.250  21.727  -1.486  0.00  0.00     0.210 HD
ENDBRANCH  30  32
ENDBRANCH   4  30
TORSDOF 10
ENDMDL
MODEL 5
REMARK VINA RESULT:      -6.0     10.938     13.948
REMARK  10 active torsions:
REMARK  status: ('A' for Active; 'I' for Inactive)
REMARK    1  A    between atoms: S_1  and  C_17 
REMARK    2  A    between atoms: S_1  and  C_21 
REMARK    3  A    between atoms: S_2  and  N_11 
REMARK    4  A    between atoms: S_2  and  N_12 
REMARK    5  A    between atoms: C_19  and  O_4 
REMARK    6  A    between atoms: O_5  and  C_26 
REMARK    7  A    between atoms: N_11  and  C_27 
REMARK    8  A    between atoms: C_14  and  C_19 
REMARK    9  A    between atoms: C_18  and  C_26 
REMARK   10  A    between atoms: C_23  and  C_27 
ROOT
HETATM    1  O   UNK N   1      33.343  17.846   8.162  0.00  0.00    -0.279 OA
HETATM    2  N   UNK N   1      33.198  15.750   8.957  0.00  0.00    -0.206 NA
HETATM    3  C   UNK N   1      32.802  14.726   8.039  0.00  0.00     0.095 A 
HETATM    4  C   UNK N   1      32.354  15.927   7.052  0.00  0.00     0.120 A 
HETATM    5  C   UNK N   1      34.138  13.944   7.833  0.00  0.00     0.043 A 
HETATM    6  C   UNK N   1      32.799  16.754   8.208  0.00  0.00     0.213 A 
HETATM    7  C   UNK N   1      35.117  14.634   8.762  0.00  0.00     0.013 A 
HETATM    8  C   UNK N   1      34.527  15.644   9.392  0.00  0.00     0.105 A 
HETATM    9  C   UNK N   1      34.603  13.934   6.387  0.00  0.00     0.017 C 
ENDROOT
BRANCH   7  10
HETATM   10  S   UNK N   1      36.838  14.123   8.951  0.00  0.00    -0.125 SA
BRANCH  10  11
HETATM   11  C   UNK N   1      36.558  13.318  10.556  0.00  0.00     0.071 C 
HETATM   12  C   UNK N   1      35.643  12.135  10.443  0.00  0.00     0.043 C 
HETATM   13  C   UNK N   1      35.947  11.380  11.723  0.00  0.00     0.096 C 
HETATM   14  N   UNK N   1      37.342  11.674  12.066  0.00  0.00    -0.414 N 
HETATM   15  C   UNK N   1      37.800  12.679  11.106  0.00  0.00     0.129 C 
HETATM   16  H   UNK N   1      37.886  11.261  12.822  0.00  0.00     0.153 HD
BRANCH  13  17
HETATM   17  C   UNK N   1      35.030  11.905  12.828  0.00  0.00     0.158 C 
BRANCH  17  18
HETATM   18  N   UNK N   1      35.643  11.800  14.152  0.00  0.00    -0.301 N 
HETATM   19  H   UNK N   1      35.957  10.927  14.577  0.00  0.00     0.173 HD
BRANCH  18  20
HETATM   20  S   UNK N   1      35.765  13.395  14.923  0.00  0.00     0.312 S 
HETATM   21  O   UNK N   1      37.184  12.885  14.625  0.00  0.00    -0.183 OA
HETATM   22  O   UNK N   1      35.062  13.620  13.575  0.00  0.00    -0.183 OA
BRANCH  20  23
HETATM   23  N   UNK N   1      36.649  14.657  14.065  0.00  0.00    -0.312 N 
HETATM   24  H   UNK N   1      36.677  14.658  13.046  0.00  0.00     0.170 HD
HETATM   25  H   UNK N   1      37.134  15.386  14.589  0.00  0.00     0.170 HD
ENDBRANCH  20  23
ENDBRANCH  18  20
ENDBRANCH  17  18
ENDBRANCH  13  17
ENDBRANCH  10  11
ENDBRANCH   7  10
BRANCH   8  26
HETATM   26  C   UNK N   1      35.152  16.580  10.361  0.00  0.00     0.189 C 
HETATM   27  O   UNK N   1      35.291  16.243  11.526  0.00  0.00    -0.645 OA
BRANCH  26  28
HETATM   28  O   UNK N   1      35.576  17.798   9.975  0.00  0.00    -0.772 OA
HETATM   29  H   UNK N   1      35.312  18.617  10.349  0.00  0.00     0.167 HD
ENDBRANCH  26  28
ENDBRANCH   8  26
BRANCH   4  30
HETATM   30  C   UNK N   1      30.860  16.001   6.732  0.00  0.00     0.128 C 
HETATM   31  C   UNK N   1      30.577  17.234   5.895  0.00  0.00     0.040 C 
BRANCH  30  32
HETATM   32  O   UNK N   1      30.413  14.864   6.055  0.00  0.00    -0.395 OA
HETATM   33  H   UNK N   1      29.986  14.220   5.468  0.00  0.00     0.210 HD
ENDBRANCH  30  32
ENDBRANCH   4  30
TORSDOF 10
ENDMDL
MODEL 6
REMARK VINA RESULT:      -5.8      7.953     11.071
REMARK  10 active torsions:
REMARK  status: ('A' for Active; 'I' for Inactive)
REMARK    1  A    between atoms: S_1  and  C_17 
REMARK    2  A    between atoms: S_1  and  C_21 
REMARK    3  A    between atoms: S_2  and  N_11 
REMARK    4  A    between atoms: S_2  and  N_12 
REMARK    5  A    between atoms: C_19  and  O_4 
REMARK    6  A    between atoms: O_5  and  C_26 
REMARK    7  A    between atoms: N_11  and  C_27 
REMARK    8  A    between atoms: C_14  and  C_19 
REMARK    9  A    between atoms: C_18  and  C_26 
REMARK   10  A    between atoms: C_23  and  C_27 
ROOT
HETATM    1  O   UNK N   1      35.458  17.267  10.544  0.00  0.00    -0.279 OA
HETATM    2  N   UNK N   1      34.496  15.849   9.091  0.00  0.00    -0.206 NA
HETATM    3  C   UNK N   1      33.686  14.803   9.635  0.00  0.00     0.095 A 
HETATM    4  C   UNK N   1      34.348  15.172  11.065  0.00  0.00     0.120 A 
HETATM    5  C   UNK N   1      32.248  15.272   9.246  0.00  0.00     0.043 A 
HETATM    6  C   UNK N   1      35.097  16.146  10.222  0.00  0.00     0.213 A 
HETATM    7  C   UNK N   1      32.479  16.538   8.443  0.00  0.00     0.013 A 
HETATM    8  C   UNK N   1      33.776  16.813   8.370  0.00  0.00     0.105 A 
HETATM    9  C   UNK N   1      31.349  15.492  10.449  0.00  0.00     0.017 C 
ENDROOT
BRANCH   7  10
HETATM   10  S   UNK N   1      31.143  17.508   7.711  0.00  0.00    -0.125 SA
BRANCH  10  11
HETATM   11  C   UNK N   1      30.681  16.214   6.523  0.00  0.00     0.071 C 
HETATM   12  C   UNK N   1      29.491  16.602   5.698  0.00  0.00     0.043 C 
HETATM   13  C   UNK N   1      29.603  15.654   4.520  0.00  0.00     0.096 C 
HETATM   14  N   UNK N   1      31.030  15.368   4.342  0.00  0.00    -0.414 N 
HETATM   15  C   UNK N   1      31.721  16.007   5.460  0.00  0.00     0.129 C 
HETATM   16  H   UNK N   1      31.456  14.830   3.587  0.00  0.00     0.153 HD
BRANCH  13  17
HETATM   17  C   UNK N   1      28.863  14.360   4.864  0.00  0.00     0.158 C 
BRANCH  17  18
HETATM   18  N   UNK N   1      27.577  14.259   4.174  0.00  0.00    -0.301 N 
HETATM   19  H   UNK N   1      26.817  13.638   4.455  0.00  0.00     0.173 HD
BRANCH  18  20
HETATM   20  S   UNK N   1      27.515  15.359   2.782  0.00  0.00     0.312 S 
HETATM   21  O   UNK N   1      27.416  13.914   2.269  0.00  0.00    -0.183 OA
HETATM   22  O   UNK N   1      26.253  15.643   3.612  0.00  0.00    -0.183 OA
BRANCH  20  23
HETATM   23  N   UNK N   1      26.128  15.239   1.700  0.00  0.00    -0.312 N 
HETATM   24  H   UNK N   1      26.039  15.880   0.912  0.00  0.00     0.170 HD
HETATM   25  H   UNK N   1      25.415  14.528   1.862  0.00  0.00     0.170 HD
ENDBRANCH  20  23
ENDBRANCH  18  20
ENDBRANCH  17  18
ENDBRANCH  13  17
ENDBRANCH  10  11
ENDBRANCH   7  10
BRANCH   8  26
HETATM   26  C   UNK N   1      34.407  17.977   7.698  0.00  0.00     0.189 C 
HETATM   27  O   UNK N   1      34.495  18.000   6.480  0.00  0.00    -0.645 OA
BRANCH  26  28
HETATM   28  O   UNK N   1      34.879  19.017   8.410  0.00  0.00    -0.772 OA
HETATM   29  H   UNK N   1      34.519  19.882   8.426  0.00  0.00     0.167 HD
ENDBRANCH  26  28
ENDBRANCH   8  26
BRANCH   4  30
HETATM   30  C   UNK N   1      35.198  14.074  11.706  0.00  0.00     0.128 C 
HETATM   31  C   UNK N   1      36.037  14.665  12.823  0.00  0.00     0.040 C 
BRANCH  30  32
HETATM   32  O   UNK N   1      34.415  13.034  12.211  0.00  0.00    -0.395 OA
HETATM   33  H   UNK N   1      33.974  12.192  12.407  0.00  0.00     0.210 HD
ENDBRANCH  30  32
ENDBRANCH   4  30
TORSDOF 10
ENDMDL
MODEL 7
REMARK VINA RESULT:      -5.8      8.218     11.625
REMARK  10 active torsions:
REMARK  status: ('A' for Active; 'I' for Inactive)
REMARK    1  A    between atoms: S_1  and  C_17 
REMARK    2  A    between atoms: S_1  and  C_21 
REMARK    3  A    between atoms: S_2  and  N_11 
REMARK    4  A    between atoms: S_2  and  N_12 
REMARK    5  A    between atoms: C_19  and  O_4 
REMARK    6  A    between atoms: O_5  and  C_26 
REMARK    7  A    between atoms: N_11  and  C_27 
REMARK    8  A    between atoms: C_14  and  C_19 
REMARK    9  A    between atoms: C_18  and  C_26 
REMARK   10  A    between atoms: C_23  and  C_27 
ROOT
HETATM    1  O   UNK N   1      28.809  18.184   6.462  0.00  0.00    -0.279 OA
HETATM    2  N   UNK N   1      30.314  16.530   6.680  0.00  0.00    -0.206 NA
HETATM    3  C   UNK N   1      30.992  16.100   5.495  0.00  0.00     0.095 A 
HETATM    4  C   UNK N   1      29.870  16.929   4.675  0.00  0.00     0.120 A 
HETATM    5  C   UNK N   1      32.430  16.663   5.725  0.00  0.00     0.043 A 
HETATM    6  C   UNK N   1      29.353  17.171   6.052  0.00  0.00     0.213 A 
HETATM    7  C   UNK N   1      32.363  17.296   7.101  0.00  0.00     0.013 A 
HETATM    8  C   UNK N   1      31.141  17.177   7.609  0.00  0.00     0.105 A 
HETATM    9  C   UNK N   1      32.865  17.640   4.646  0.00  0.00     0.017 C 
ENDROOT
BRANCH   7  10
HETATM   10  S   UNK N   1      33.772  18.095   7.898  0.00  0.00    -0.125 SA
BRANCH  10  11
HETATM   11  C   UNK N   1      34.154  16.663   8.948  0.00  0.00     0.071 C 
HETATM   12  C   UNK N   1      34.923  15.609   8.210  0.00  0.00     0.043 C 
HETATM   13  C   UNK N   1      35.524  14.804   9.347  0.00  0.00     0.096 C 
HETATM   14  N   UNK N   1      35.710  15.730  10.468  0.00  0.00    -0.414 N 
HETATM   15  C   UNK N   1      35.108  16.999  10.059  0.00  0.00     0.129 C 
HETATM   16  H   UNK N   1      36.168  15.530  11.356  0.00  0.00     0.153 HD
BRANCH  13  17
HETATM   17  C   UNK N   1      34.532  13.711   9.747  0.00  0.00     0.158 C 
BRANCH  17  18
HETATM   18  N   UNK N   1      34.332  13.650  11.196  0.00  0.00    -0.301 N 
HETATM   19  H   UNK N   1      33.646  14.205  11.708  0.00  0.00     0.173 HD
BRANCH  18  20
HETATM   20  S   UNK N   1      35.445  12.485  11.941  0.00  0.00     0.312 S 
HETATM   21  O   UNK N   1      34.651  13.187  13.055  0.00  0.00    -0.183 OA
HETATM   22  O   UNK N   1      34.449  11.660  11.112  0.00  0.00    -0.183 OA
BRANCH  20  23
HETATM   23  N   UNK N   1      34.758  11.257  13.003  0.00  0.00    -0.312 N 
HETATM   24  H   UNK N   1      34.008  10.653  12.667  0.00  0.00     0.170 HD
HETATM   25  H   UNK N   1      35.111  11.150  13.954  0.00  0.00     0.170 HD
ENDBRANCH  20  23
ENDBRANCH  18  20
ENDBRANCH  17  18
ENDBRANCH  13  17
ENDBRANCH  10  11
ENDBRANCH   7  10
BRANCH   8  26
HETATM   26  C   UNK N   1      30.663  17.689   8.918  0.00  0.00     0.189 C 
HETATM   27  O   UNK N   1      30.552  18.892   9.095  0.00  0.00    -0.645 OA
BRANCH  26  28
HETATM   28  O   UNK N   1      30.342  16.846   9.918  0.00  0.00    -0.772 OA
HETATM   29  H   UNK N   1      30.181  15.927   9.832  0.00  0.00     0.167 HD
ENDBRANCH  26  28
ENDBRANCH   8  26
BRANCH   4  30
HETATM   30  C   UNK N   1      28.958  16.098   3.771  0.00  0.00     0.128 C 
HETATM   31  C   UNK N   1      27.705  16.887   3.445  0.00  0.00     0.040 C 
BRANCH  30  32
HETATM   32  O   UNK N   1      29.596  15.724   2.587  0.00  0.00    -0.395 OA
HETATM   33  H   UNK N   1      30.012  15.677   1.712  0.00  0.00     0.210 HD
ENDBRANCH  30  32
ENDBRANCH   4  30
TORSDOF 10
ENDMDL
MODEL 8
REMARK VINA RESULT:      -5.7      3.588      5.950
REMARK  10 active torsions:
REMARK  status: ('A' for Active; 'I' for Inactive)
REMARK    1  A    between atoms: S_1  and  C_17 
REMARK    2  A    between atoms: S_1  and  C_21 
REMARK    3  A    between atoms: S_2  and  N_11 
REMARK    4  A    between atoms: S_2  and  N_12 
REMARK    5  A    between atoms: C_19  and  O_4 
REMARK    6  A    between atoms: O_5  and  C_26 
REMARK    7  A    between atoms: N_11  and  C_27 
REMARK    8  A    between atoms: C_14  and  C_19 
REMARK    9  A    between atoms: C_18  and  C_26 
REMARK   10  A    between atoms: C_23  and  C_27 
ROOT
HETATM    1  O   UNK N   1      22.642  18.520   4.573  0.00  0.00    -0.279 OA
HETATM    2  N   UNK N   1      21.038  16.959   4.774  0.00  0.00    -0.206 NA
HETATM    3  C   UNK N   1      20.186  16.745   3.645  0.00  0.00     0.095 A 
HETATM    4  C   UNK N   1      20.784  18.129   3.059  0.00  0.00     0.120 A 
HETATM    5  C   UNK N   1      20.676  15.353   3.132  0.00  0.00     0.043 A 
HETATM    6  C   UNK N   1      21.509  18.114   4.361  0.00  0.00     0.213 A 
HETATM    7  C   UNK N   1      21.733  14.940   4.138  0.00  0.00     0.013 A 
HETATM    8  C   UNK N   1      21.888  15.882   5.062  0.00  0.00     0.105 A 
HETATM    9  C   UNK N   1      21.201  15.395   1.708  0.00  0.00     0.017 C 
ENDROOT
BRANCH   7  10
HETATM   10  S   UNK N   1      22.635  13.379   4.049  0.00  0.00    -0.125 SA
BRANCH  10  11
HETATM   11  C   UNK N   1      24.115  14.128   3.307  0.00  0.00     0.071 C 
HETATM   12  C   UNK N   1      25.345  13.882   4.127  0.00  0.00     0.043 C 
HETATM   13  C   UNK N   1      26.450  14.142   3.121  0.00  0.00     0.096 C 
HETATM   14  N   UNK N   1      25.910  13.798   1.802  0.00  0.00    -0.414 N 
HETATM   15  C   UNK N   1      24.495  13.486   2.004  0.00  0.00     0.129 C 
HETATM   16  H   UNK N   1      26.419  13.780   0.919  0.00  0.00     0.153 HD
BRANCH  13  17
HETATM   17  C   UNK N   1      26.801  15.630   3.156  0.00  0.00     0.158 C 
BRANCH  17  18
HETATM   18  N   UNK N   1      26.815  16.162   4.519  0.00  0.00    -0.301 N 
HETATM   19  H   UNK N   1      26.767  15.592   5.363  0.00  0.00     0.173 HD
BRANCH  18  20
HETATM   20  S   UNK N   1      26.923  17.934   4.505  0.00  0.00     0.312 S 
HETATM   21  O   UNK N   1      25.587  17.520   3.867  0.00  0.00    -0.183 OA
HETATM   22  O   UNK N   1      26.880  17.517   5.983  0.00  0.00    -0.183 OA
BRANCH  20  23
HETATM   23  N   UNK N   1      25.624  18.843   5.277  0.00  0.00    -0.312 N 
HETATM   24  H   UNK N   1      25.236  18.525   6.165  0.00  0.00     0.170 HD
HETATM   25  H   UNK N   1      25.260  19.687   4.836  0.00  0.00     0.170 HD
ENDBRANCH  20  23
ENDBRANCH  18  20
ENDBRANCH  17  18
ENDBRANCH  13  17
ENDBRANCH  10  11
ENDBRANCH   7  10
BRANCH   8  26
HETATM   26  C   UNK N   1      22.842  15.869   6.200  0.00  0.00     0.189 C 
HETATM   27  O   UNK N   1      22.524  15.339   7.252  0.00  0.00    -0.645 OA
BRANCH  26  28
HETATM   28  O   UNK N   1      24.062  16.429   6.089  0.00  0.00    -0.772 OA
HETATM   29  H   UNK N   1      24.283  17.163   5.550  0.00  0.00     0.167 HD
ENDBRANCH  26  28
ENDBRANCH   8  26
BRANCH   4  30
HETATM   30  C   UNK N   1      19.776  19.267   2.886  0.00  0.00     0.128 C 
HETATM   31  C   UNK N   1      20.342  20.312   1.945  0.00  0.00     0.040 C 
BRANCH  30  32
HETATM   32  O   UNK N   1      18.551  18.810   2.395  0.00  0.00    -0.395 OA
HETATM   33  H   UNK N   1      17.781  18.560   1.861  0.00  0.00     0.210 HD
ENDBRANCH  30  32
ENDBRANCH   4  30
TORSDOF 10
ENDMDL
MODEL 9
REMARK VINA RESULT:      -5.6      8.549     11.536
REMARK  10 active torsions:
REMARK  status: ('A' for Active; 'I' for Inactive)
REMARK    1  A    between atoms: S_1  and  C_17 
REMARK    2  A    between atoms: S_1  and  C_21 
REMARK    3  A    between atoms: S_2  and  N_11 
REMARK    4  A    between atoms: S_2  and  N_12 
REMARK    5  A    between atoms: C_19  and  O_4 
REMARK    6  A    between atoms: O_5  and  C_26 
REMARK    7  A    between atoms: N_11  and  C_27 
REMARK    8  A    between atoms: C_14  and  C_19 
REMARK    9  A    between atoms: C_18  and  C_26 
REMARK   10  A    between atoms: C_23  and  C_27 
ROOT
HETATM    1  O   UNK N   1      33.426  15.256  10.748  0.00  0.00    -0.279 OA
HETATM    2  N   UNK N   1      35.272  15.649   9.527  0.00  0.00    -0.206 NA
HETATM    3  C   UNK N   1      36.052  14.516   9.135  0.00  0.00     0.095 A 
HETATM    4  C   UNK N   1      35.195  13.677  10.221  0.00  0.00     0.120 A 
HETATM    5  C   UNK N   1      35.753  14.433   7.605  0.00  0.00     0.043 A 
HETATM    6  C   UNK N   1      34.588  15.018  10.457  0.00  0.00     0.213 A 
HETATM    7  C   UNK N   1      34.861  15.629   7.338  0.00  0.00     0.013 A 
HETATM    8  C   UNK N   1      34.632  16.299   8.462  0.00  0.00     0.105 A 
HETATM    9  C   UNK N   1      35.115  13.117   7.195  0.00  0.00     0.017 C 
ENDROOT
BRANCH   7  10
HETATM   10  S   UNK N   1      34.217  16.045   5.703  0.00  0.00    -0.125 SA
BRANCH  10  11
HETATM   11  C   UNK N   1      32.482  15.809   6.185  0.00  0.00     0.071 C 
HETATM   12  C   UNK N   1      31.584  16.858   5.600  0.00  0.00     0.043 C 
HETATM   13  C   UNK N   1      30.220  16.203   5.713  0.00  0.00     0.096 C 
HETATM   14  N   UNK N   1      30.438  14.756   5.626  0.00  0.00    -0.414 N 
HETATM   15  C   UNK N   1      31.887  14.557   5.607  0.00  0.00     0.129 C 
HETATM   16  H   UNK N   1      29.722  14.032   5.585  0.00  0.00     0.153 HD
BRANCH  13  17
HETATM   17  C   UNK N   1      29.627  16.547   7.080  0.00  0.00     0.158 C 
BRANCH  17  18
HETATM   18  N   UNK N   1      29.862  17.944   7.449  0.00  0.00    -0.301 N 
HETATM   19  H   UNK N   1      30.450  18.590   6.923  0.00  0.00     0.173 HD
BRANCH  18  20
HETATM   20  S   UNK N   1      28.988  18.362   8.936  0.00  0.00     0.312 S 
HETATM   21  O   UNK N   1      29.368  16.874   8.994  0.00  0.00    -0.183 OA
HETATM   22  O   UNK N   1      30.291  19.175   8.960  0.00  0.00    -0.183 OA
BRANCH  20  23
HETATM   23  N   UNK N   1      29.785  18.044  10.476  0.00  0.00    -0.312 N 
HETATM   24  H   UNK N   1      30.424  17.254  10.566  0.00  0.00     0.170 HD
HETATM   25  H   UNK N   1      29.607  18.649  11.277  0.00  0.00     0.170 HD
ENDBRANCH  20  23
ENDBRANCH  18  20
ENDBRANCH  17  18
ENDBRANCH  13  17
ENDBRANCH  10  11
ENDBRANCH   7  10
BRANCH   8  26
HETATM   26  C   UNK N   1      33.787  17.509   8.625  0.00  0.00     0.189 C 
HETATM   27  O   UNK N   1      34.247  18.610   8.365  0.00  0.00    -0.645 OA
BRANCH  26  28
HETATM   28  O   UNK N   1      32.513  17.414   9.051  0.00  0.00    -0.772 OA
HETATM   29  H   UNK N   1      32.190  17.689   9.886  0.00  0.00     0.167 HD
ENDBRANCH  26  28
ENDBRANCH   8  26
BRANCH   4  30
HETATM   30  C   UNK N   1      35.989  13.104  11.396  0.00  0.00     0.128 C 
HETATM   31  C   UNK N   1      36.338  11.655  11.118  0.00  0.00     0.040 C 
BRANCH  30  32
HETATM   32  O   UNK N   1      37.158  13.828  11.639  0.00  0.00    -0.395 OA
HETATM   33  H   UNK N   1      38.036  14.144  11.905  0.00  0.00     0.210 HD
ENDBRANCH  30  32
ENDBRANCH   4  30
TORSDOF 10
ENDMDL
