MODEL 1
REMARK VINA RESULT:      -4.2      0.000      0.000
REMARK  4 active torsions:
REMARK  status: ('A' for Active; 'I' for Inactive)
REMARK    1  A    between atoms: C_2  and  C_3 
REMARK    2  A    between atoms: C_2  and  N_9 
REMARK    3  A    between atoms: C_3  and  C_4 
REMARK    4  A    between atoms: C_4  and  C_5 
ROOT
HETATM    1  C   UNK N   1      36.185  13.577  15.253  0.00  0.00     0.028 C 
ENDROOT
BRANCH   1   2
HETATM    2  C   UNK N   1      36.498  12.785  13.990  0.00  0.00     0.072 C 
HETATM    3  C   UNK N   1      37.515  11.697  14.306  0.00  0.00     0.031 C 
BRANCH   2   4
HETATM    4  N   UNK N   1      37.031  13.685  12.977  0.00  0.00    -0.422 N 
HETATM    5  C   UNK N   1      35.980  14.625  12.610  0.00  0.00     0.140 C 
HETATM    6  H   UNK N   1      37.973  13.661  12.589  0.00  0.00     0.153 HD
ENDBRANCH   2   4
ENDBRANCH   1   2
BRANCH   1   7
HETATM    7  C   UNK N   1      34.919  13.063  15.925  0.00  0.00     0.029 C 
BRANCH   7   8
HETATM    8  C   UNK N   1      34.973  13.221  17.415  0.00  0.00    -0.025 C 
HETATM    9  C   UNK N   1      35.274  12.209  18.236  0.00  0.00    -0.091 C 
HETATM   10  C   UNK N   1      35.591  10.842  17.717  0.00  0.00     0.042 C 
HETATM   11  C   UNK N   1      35.322  12.452  19.705  0.00  0.00     0.042 C 
ENDBRANCH   7   8
ENDBRANCH   1   7
TORSDOF 4
ENDMDL
MODEL 2
REMARK VINA RESULT:      -4.1      1.052      1.840
REMARK  4 active torsions:
REMARK  status: ('A' for Active; 'I' for Inactive)
REMARK    1  A    between atoms: C_2  and  C_3 
REMARK    2  A    between atoms: C_2  and  N_9 
REMARK    3  A    between atoms: C_3  and  C_4 
REMARK    4  A    between atoms: C_4  and  C_5 
ROOT
HETATM    1  C   UNK N   1      35.335  13.377  15.391  0.00  0.00     0.028 C 
ENDROOT
BRANCH   1   2
HETATM    2  C   UNK N   1      36.813  13.649  15.140  0.00  0.00     0.072 C 
HETATM    3  C   UNK N   1      37.197  14.992  15.743  0.00  0.00     0.031 C 
BRANCH   2   4
HETATM    4  N   UNK N   1      37.064  13.655  13.706  0.00  0.00    -0.422 N 
HETATM    5  C   UNK N   1      36.099  14.550  13.082  0.00  0.00     0.140 C 
HETATM    6  H   UNK N   1      37.788  13.125  13.222  0.00  0.00     0.153 HD
ENDBRANCH   2   4
ENDBRANCH   1   2
BRANCH   1   7
HETATM    7  C   UNK N   1      35.055  13.184  16.875  0.00  0.00     0.029 C 
BRANCH   7   8
HETATM    8  C   UNK N   1      35.370  11.790  17.328  0.00  0.00    -0.025 C 
HETATM    9  C   UNK N   1      35.487  11.461  18.619  0.00  0.00    -0.091 C 
HETATM   10  C   UNK N   1      35.298  12.468  19.709  0.00  0.00     0.042 C 
HETATM   11  C   UNK N   1      35.787  10.048  18.986  0.00  0.00     0.042 C 
ENDBRANCH   7   8
ENDBRANCH   1   7
TORSDOF 4
ENDMDL
MODEL 3
REMARK VINA RESULT:      -4.1     12.544     15.584
REMARK  4 active torsions:
REMARK  status: ('A' for Active; 'I' for Inactive)
REMARK    1  A    between atoms: C_2  and  C_3 
REMARK    2  A    between atoms: C_2  and  N_9 
REMARK    3  A    between atoms: C_3  and  C_4 
REMARK    4  A    between atoms: C_4  and  C_5 
ROOT
HETATM    1  C   UNK N   1      27.508  20.057   6.520  0.00  0.00     0.028 C 
ENDROOT
BRANCH   1   2
HETATM    2  C   UNK N   1      28.253  19.015   7.345  0.00  0.00     0.072 C 
HETATM    3  C   UNK N   1      28.263  17.686   6.603  0.00  0.00     0.031 C 
BRANCH   2   4
HETATM    4  N   UNK N   1      27.595  18.861   8.635  0.00  0.00    -0.422 N 
HETATM    5  C   UNK N   1      28.116  17.657   9.267  0.00  0.00     0.140 C 
HETATM    6  H   UNK N   1      26.892  19.486   9.026  0.00  0.00     0.153 HD
ENDBRANCH   2   4
ENDBRANCH   1   2
BRANCH   1   7
HETATM    7  C   UNK N   1      27.855  19.940   5.042  0.00  0.00     0.029 C 
BRANCH   7   8
HETATM    8  C   UNK N   1      26.795  20.543   4.169  0.00  0.00    -0.025 C 
HETATM    9  C   UNK N   1      25.893  19.802   3.516  0.00  0.00    -0.091 C 
HETATM   10  C   UNK N   1      25.874  18.310   3.621  0.00  0.00     0.042 C 
HETATM   11  C   UNK N   1      24.862  20.480   2.681  0.00  0.00     0.042 C 
ENDBRANCH   7   8
ENDBRANCH   1   7
TORSDOF 4
ENDMDL
MODEL 4
REMARK VINA RESULT:      -4.1     26.799     27.798
REMARK  4 active torsions:
REMARK  status: ('A' for Active; 'I' for Inactive)
REMARK    1  A    between atoms: C_2  and  C_3 
REMARK    2  A    between atoms: C_2  and  N_9 
REMARK    3  A    between atoms: C_3  and  C_4 
REMARK    4  A    between atoms: C_4  and  C_5 
ROOT
HETATM    1  C   UNK N   1      25.503  25.601  -5.726  0.00  0.00     0.028 C 
ENDROOT
BRANCH   1   2
HETATM    2  C   UNK N   1      26.066  25.116  -7.056  0.00  0.00     0.072 C 
HETATM    3  C   UNK N   1      25.897  26.199  -8.111  0.00  0.00     0.031 C 
BRANCH   2   4
HETATM    4  N   UNK N   1      25.362  23.908  -7.464  0.00  0.00    -0.422 N 
HETATM    5  C   UNK N   1      25.758  22.830  -6.569  0.00  0.00     0.140 C 
HETATM    6  H   UNK N   1      24.707  23.830  -8.242  0.00  0.00     0.153 HD
ENDBRANCH   2   4
ENDBRANCH   1   2
BRANCH   1   7
HETATM    7  C   UNK N   1      24.959  27.019  -5.843  0.00  0.00     0.029 C 
BRANCH   7   8
HETATM    8  C   UNK N   1      25.315  27.855  -4.650  0.00  0.00    -0.025 C 
HETATM    9  C   UNK N   1      26.381  28.662  -4.629  0.00  0.00    -0.091 C 
HETATM   10  C   UNK N   1      27.293  28.795  -5.807  0.00  0.00     0.042 C 
HETATM   11  C   UNK N   1      26.656  29.473  -3.409  0.00  0.00     0.042 C 
ENDBRANCH   7   8
ENDBRANCH   1   7
TORSDOF 4
ENDMDL
MODEL 5
REMARK VINA RESULT:      -4.0     14.760     16.007
REMARK  4 active torsions:
REMARK  status: ('A' for Active; 'I' for Inactive)
REMARK    1  A    between atoms: C_2  and  C_3 
REMARK    2  A    between atoms: C_2  and  N_9 
REMARK    3  A    between atoms: C_3  and  C_4 
REMARK    4  A    between atoms: C_4  and  C_5 
ROOT
HETATM    1  C   UNK N   1      21.219  12.559  10.772  0.00  0.00     0.028 C 
ENDROOT
BRANCH   1   2
HETATM    2  C   UNK N   1      22.634  12.063  11.042  0.00  0.00     0.072 C 
HETATM    3  C   UNK N   1      22.838  11.884  12.540  0.00  0.00     0.031 C 
BRANCH   2   4
HETATM    4  N   UNK N   1      23.591  13.030  10.521  0.00  0.00    -0.422 N 
HETATM    5  C   UNK N   1      24.667  12.295   9.871  0.00  0.00     0.140 C 
HETATM    6  H   UNK N   1      23.521  14.044  10.599  0.00  0.00     0.153 HD
ENDBRANCH   2   4
ENDBRANCH   1   2
BRANCH   1   7
HETATM    7  C   UNK N   1      21.156  13.365   9.481  0.00  0.00     0.029 C 
BRANCH   7   8
HETATM    8  C   UNK N   1      20.127  14.453   9.552  0.00  0.00    -0.025 C 
HETATM    9  C   UNK N   1      20.171  15.537   8.770  0.00  0.00    -0.091 C 
HETATM   10  C   UNK N   1      21.254  15.734   7.756  0.00  0.00     0.042 C 
HETATM   11  C   UNK N   1      19.100  16.567   8.891  0.00  0.00     0.042 C 
ENDBRANCH   7   8
ENDBRANCH   1   7
TORSDOF 4
ENDMDL
MODEL 6
REMARK VINA RESULT:      -3.9     14.568     15.461
REMARK  4 active torsions:
REMARK  status: ('A' for Active; 'I' for Inactive)
REMARK    1  A    between atoms: C_2  and  C_3 
REMARK    2  A    between atoms: C_2  and  N_9 
REMARK    3  A    between atoms: C_3  and  C_4 
REMARK    4  A    between atoms: C_4  and  C_5 
ROOT
HETATM    1  C   UNK N   1      21.105  14.212   9.559  0.00  0.00     0.028 C 
ENDROOT
BRANCH   1   2
HETATM    2  C   UNK N   1      21.197  14.656   8.104  0.00  0.00     0.072 C 
HETATM    3  C   UNK N   1      22.556  14.275   7.536  0.00  0.00     0.031 C 
BRANCH   2   4
HETATM    4  N   UNK N   1      21.011  16.098   8.028  0.00  0.00    -0.422 N 
HETATM    5  C   UNK N   1      20.247  16.392   6.823  0.00  0.00     0.140 C 
HETATM    6  H   UNK N   1      21.355  16.783   8.699  0.00  0.00     0.153 HD
ENDBRANCH   2   4
ENDBRANCH   1   2
BRANCH   1   7
HETATM    7  C   UNK N   1      21.397  12.725   9.700  0.00  0.00     0.029 C 
BRANCH   7   8
HETATM    8  C   UNK N   1      21.713  12.348  11.117  0.00  0.00    -0.025 C 
HETATM    9  C   UNK N   1      22.962  12.129  11.543  0.00  0.00    -0.091 C 
HETATM   10  C   UNK N   1      24.139  12.255  10.629  0.00  0.00     0.042 C 
HETATM   11  C   UNK N   1      23.192  11.774  12.971  0.00  0.00     0.042 C 
ENDBRANCH   7   8
ENDBRANCH   1   7
TORSDOF 4
ENDMDL
MODEL 7
REMARK VINA RESULT:      -3.9     10.106     13.259
REMARK  4 active torsions:
REMARK  status: ('A' for Active; 'I' for Inactive)
REMARK    1  A    between atoms: C_2  and  C_3 
REMARK    2  A    between atoms: C_2  and  N_9 
REMARK    3  A    between atoms: C_3  and  C_4 
REMARK    4  A    between atoms: C_4  and  C_5 
ROOT
HETATM    1  C   UNK N   1      29.427  17.548   7.596  0.00  0.00     0.028 C 
ENDROOT
BRANCH   1   2
HETATM    2  C   UNK N   1      29.796  17.369   9.063  0.00  0.00     0.072 C 
HETATM    3  C   UNK N   1      29.637  18.693   9.797  0.00  0.00     0.031 C 
BRANCH   2   4
HETATM    4  N   UNK N   1      31.173  16.907   9.161  0.00  0.00    -0.422 N 
HETATM    5  C   UNK N   1      32.007  17.799   8.367  0.00  0.00     0.140 C 
HETATM    6  H   UNK N   1      31.498  16.099   9.692  0.00  0.00     0.153 HD
ENDBRANCH   2   4
ENDBRANCH   1   2
BRANCH   1   7
HETATM    7  C   UNK N   1      28.467  18.715   7.407  0.00  0.00     0.029 C 
BRANCH   7   8
HETATM    8  C   UNK N   1      28.029  18.854   5.980  0.00  0.00    -0.025 C 
HETATM    9  C   UNK N   1      27.597  20.012   5.469  0.00  0.00    -0.091 C 
HETATM   10  C   UNK N   1      27.531  21.260   6.292  0.00  0.00     0.042 C 
HETATM   11  C   UNK N   1      27.195  20.071   4.036  0.00  0.00     0.042 C 
ENDBRANCH   7   8
ENDBRANCH   1   7
TORSDOF 4
ENDMDL
MODEL 8
REMARK VINA RESULT:      -3.8     10.552     11.964
REMARK  4 active torsions:
REMARK  status: ('A' for Active; 'I' for Inactive)
REMARK    1  A    between atoms: C_2  and  C_3 
REMARK    2  A    between atoms: C_2  and  N_9 
REMARK    3  A    between atoms: C_3  and  C_4 
REMARK    4  A    between atoms: C_4  and  C_5 
ROOT
HETATM    1  C   UNK N   1      29.401  17.930   7.597  0.00  0.00     0.028 C 
ENDROOT
BRANCH   1   2
HETATM    2  C   UNK N   1      28.548  18.384   8.775  0.00  0.00     0.072 C 
HETATM    3  C   UNK N   1      27.953  17.171   9.476  0.00  0.00     0.031 C 
BRANCH   2   4
HETATM    4  N   UNK N   1      27.484  19.253   8.291  0.00  0.00    -0.422 N 
HETATM    5  C   UNK N   1      27.785  19.612   6.912  0.00  0.00     0.140 C 
HETATM    6  H   UNK N   1      26.670  19.558   8.824  0.00  0.00     0.153 HD
ENDBRANCH   2   4
ENDBRANCH   1   2
BRANCH   1   7
HETATM    7  C   UNK N   1      30.797  17.524   8.053  0.00  0.00     0.029 C 
BRANCH   7   8
HETATM    8  C   UNK N   1      31.688  17.187   6.895  0.00  0.00    -0.025 C 
HETATM    9  C   UNK N   1      32.983  17.516   6.864  0.00  0.00    -0.091 C 
HETATM   10  C   UNK N   1      33.640  18.240   7.997  0.00  0.00     0.042 C 
HETATM   11  C   UNK N   1      33.805  17.131   5.682  0.00  0.00     0.042 C 
ENDBRANCH   7   8
ENDBRANCH   1   7
TORSDOF 4
ENDMDL
MODEL 9
REMARK VINA RESULT:      -3.8     10.452     13.331
REMARK  4 active torsions:
REMARK  status: ('A' for Active; 'I' for Inactive)
REMARK    1  A    between atoms: C_2  and  C_3 
REMARK    2  A    between atoms: C_2  and  N_9 
REMARK    3  A    between atoms: C_3  and  C_4 
REMARK    4  A    between atoms: C_4  and  C_5 
ROOT
HETATM    1  C   UNK N   1      28.902  17.306   7.535  0.00  0.00     0.028 C 
ENDROOT
BRANCH   1   2
HETATM    2  C   UNK N   1      30.367  17.514   7.900  0.00  0.00     0.072 C 
HETATM    3  C   UNK N   1      31.206  16.387   7.316  0.00  0.00     0.031 C 
BRANCH   2   4
HETATM    4  N   UNK N   1      30.503  17.538   9.350  0.00  0.00    -0.422 N 
HETATM    5  C   UNK N   1      29.696  18.637   9.861  0.00  0.00     0.140 C 
HETATM    6  H   UNK N   1      31.066  16.898   9.909  0.00  0.00     0.153 HD
ENDBRANCH   2   4
ENDBRANCH   1   2
BRANCH   1   7
HETATM    7  C   UNK N   1      28.515  18.134   6.317  0.00  0.00     0.029 C 
BRANCH   7   8
HETATM    8  C   UNK N   1      27.916  19.453   6.705  0.00  0.00    -0.025 C 
HETATM    9  C   UNK N   1      27.452  20.325   5.804  0.00  0.00    -0.091 C 
HETATM   10  C   UNK N   1      27.489  20.037   4.336  0.00  0.00     0.042 C 
HETATM   11  C   UNK N   1      26.857  21.608   6.272  0.00  0.00     0.042 C 
ENDBRANCH   7   8
ENDBRANCH   1   7
TORSDOF 4
ENDMDL
