REMARK  10 active torsions:
REMARK  status: ('A' for Active; 'I' for Inactive)
REMARK    1  A    between atoms: C_2  and  N_18 
REMARK    2  A    between atoms: C_8  and  C_11 
REMARK    3  A    between atoms: C_11  and  C_12 
REMARK    4  A    between atoms: C_12  and  C_13 
REMARK    5  A    between atoms: C_13  and  C_14 
REMARK    6  A    between atoms: C_14  and  O_16 
REMARK    7  A    between atoms: N_18  and  C_19 
REMARK    8  A    between atoms: N_18  and  C_20 
REMARK    9  A    between atoms: C_19  and  C_23 
REMARK   10  A    between atoms: C_20  and  C_21 
ROOT
HETATM    1  C   UNK N   1      13.482  -4.370  -0.348  0.00  0.00     0.061 A 
HETATM    2  C   UNK N   1      12.275  -3.796   0.118  0.00  0.00     0.032 A 
HETATM    3  C   UNK N   1      12.251  -2.418   0.474  0.00  0.00     0.031 A 
HETATM    4  C   UNK N   1      14.604  -3.555  -0.425  0.00  0.00     0.062 A 
HETATM    5  C   UNK N   1      14.567  -2.237  -0.085  0.00  0.00     0.062 A 
HETATM    6  C   UNK N   1      13.405  -1.620   0.366  0.00  0.00     0.034 A 
HETATM    7  N   UNK N   1      15.788  -1.715  -0.248  0.00  0.00    -0.339 N 
HETATM    8  C   UNK N   1      16.557  -2.746  -0.680  0.00  0.00     0.084 A 
HETATM    9  N   UNK N   1      15.850  -3.897  -0.805  0.00  0.00    -0.344 N 
ATOM     10  HN  UNK N   1      16.184  -4.810  -1.115  1.00  0.00     0.167 HD
HETATM   11  C   UNK N   1      16.196  -0.341   0.001  0.00  0.00     0.158 C 
ENDROOT
BRANCH   2  12
HETATM   12  N   UNK N   1      11.090  -4.589   0.228  0.00  0.00    -0.379 N 
BRANCH  12  13
HETATM   13  C   UNK N   1      11.055  -5.957  -0.247  0.00  0.00     0.138 C 
BRANCH  13  14
HETATM   14  C   UNK N   1      11.690  -6.890   0.769  0.00  0.00     0.134 C 
HETATM   15 Cl   UNK N   1      13.108  -7.693   0.057  0.00  0.00    -0.129 Cl
ENDBRANCH  13  14
ENDBRANCH  12  13
BRANCH  12  16
HETATM   16  C   UNK N   1       9.902  -4.040   0.844  0.00  0.00     0.138 C 
BRANCH  16  17
HETATM   17  C   UNK N   1       8.801  -3.841  -0.179  0.00  0.00     0.134 C 
HETATM   18 Cl   UNK N   1       8.644  -2.103  -0.522  0.00  0.00    -0.129 Cl
ENDBRANCH  16  17
ENDBRANCH  12  16
ENDBRANCH   2  12
BRANCH   8  19
HETATM   19  C   UNK N   1      18.021  -2.655  -0.944  0.00  0.00     0.077 C 
BRANCH  19  20
HETATM   20  C   UNK N   1      18.755  -2.735   0.384  0.00  0.00     0.018 C 
BRANCH  20  21
HETATM   21  C   UNK N   1      20.184  -2.230   0.253  0.00  0.00     0.110 C 
BRANCH  21  22
HETATM   22  C   UNK N   1      20.274  -0.732   0.181  0.00  0.00     0.139 C 
HETATM   23  O   UNK N   1      19.268  -0.039   0.189  0.00  0.00    -0.650 OA
BRANCH  22  24
HETATM   24  O   UNK N   1      21.482  -0.146   0.111  0.00  0.00    -0.776 OA
HETATM   25  H   UNK N   1      22.257  -0.671   0.063  0.00  0.00     0.167 HD
ENDBRANCH  22  24
ENDBRANCH  21  22
ENDBRANCH  20  21
ENDBRANCH  19  20
ENDBRANCH   8  19
TORSDOF 10
