MODEL 1
REMARK VINA RESULT:      -6.5      0.000      0.000
REMARK  3 active torsions:
REMARK  status: ('A' for Active; 'I' for Inactive)
REMARK    1  A    between atoms: C_4  and  C_16 
REMARK    2  A    between atoms: C_8  and  C_9 
REMARK    3  A    between atoms: C_9  and  C_10 
ROOT
HETATM    1  C   UNK N   1      30.889  16.264   5.361  0.00  0.00     0.049 C 
HETATM    2  C   UNK N   1      30.037  17.217   6.128  0.00  0.00    -0.054 A 
HETATM    3  C   UNK N   1      29.064  17.948   5.436  0.00  0.00     0.015 A 
HETATM    4  C   UNK N   1      28.202  18.827   6.112  0.00  0.00    -0.050 A 
HETATM    5  C   UNK N   1      28.347  18.980   7.499  0.00  0.00     0.015 A 
HETATM    6  C   UNK N   1      29.311  18.257   8.204  0.00  0.00    -0.054 A 
HETATM    7  C   UNK N   1      29.397  18.443   9.682  0.00  0.00     0.049 C 
HETATM    8  C   UNK N   1      30.160  17.356   7.528  0.00  0.00    -0.039 A 
ENDROOT
BRANCH   8   9
HETATM    9  C   UNK N   1      31.117  16.512   8.335  0.00  0.00     0.115 C 
BRANCH   9  10
HETATM   10  C   UNK N   1      32.495  17.070   8.525  0.00  0.00     0.077 A 
HETATM   11  N   UNK N   1      33.339  16.529   9.300  0.00  0.00    -0.378 N 
HETATM   12  C   UNK N   1      34.623  17.188   9.211  0.00  0.00     0.140 A 
ATOM     13  HN  UNK N   1      33.139  15.735   9.907  1.00  0.00     0.160 HD
HETATM   14  C   UNK N   1      34.409  18.277   8.130  0.00  0.00     0.140 A 
HETATM   15  N   UNK N   1      33.024  18.114   7.774  0.00  0.00    -0.378 N 
HETATM   16  H   UNK N   1      32.534  18.650   7.110  0.00  0.00     0.160 HD
ENDBRANCH   9  10
ENDBRANCH   8   9
BRANCH   4  17
HETATM   17  C   UNK N   1      27.094  19.573   5.390  0.00  0.00    -0.024 C 
HETATM   18  C   UNK N   1      25.895  18.656   5.213  0.00  0.00     0.019 C 
HETATM   19  C   UNK N   1      26.661  20.784   6.198  0.00  0.00     0.019 C 
HETATM   20  C   UNK N   1      27.509  20.058   4.008  0.00  0.00     0.019 C 
ENDBRANCH   4  17
TORSDOF 3
ENDMDL
MODEL 2
REMARK VINA RESULT:      -6.4      0.316      2.296
REMARK  3 active torsions:
REMARK  status: ('A' for Active; 'I' for Inactive)
REMARK    1  A    between atoms: C_4  and  C_16 
REMARK    2  A    between atoms: C_8  and  C_9 
REMARK    3  A    between atoms: C_9  and  C_10 
ROOT
HETATM    1  C   UNK N   1      29.561  18.533   9.850  0.00  0.00     0.049 C 
HETATM    2  C   UNK N   1      29.320  18.248   8.406  0.00  0.00    -0.054 A 
HETATM    3  C   UNK N   1      28.410  19.052   7.710  0.00  0.00     0.015 A 
HETATM    4  C   UNK N   1      28.176  18.859   6.338  0.00  0.00    -0.050 A 
HETATM    5  C   UNK N   1      28.856  17.826   5.677  0.00  0.00     0.015 A 
HETATM    6  C   UNK N   1      29.768  17.017   6.356  0.00  0.00    -0.054 A 
HETATM    7  C   UNK N   1      30.482  15.953   5.590  0.00  0.00     0.049 C 
HETATM    8  C   UNK N   1      30.022  17.226   7.728  0.00  0.00    -0.039 A 
ENDROOT
BRANCH   8   9
HETATM    9  C   UNK N   1      31.091  16.404   8.406  0.00  0.00     0.115 C 
BRANCH   9  10
HETATM   10  C   UNK N   1      32.446  17.034   8.509  0.00  0.00     0.077 A 
HETATM   11  N   UNK N   1      33.316  16.629   9.337  0.00  0.00    -0.378 N 
HETATM   12  C   UNK N   1      34.573  17.320   9.151  0.00  0.00     0.140 A 
ATOM     13  HN  UNK N   1      33.151  15.912  10.042  1.00  0.00     0.160 HD
HETATM   14  C   UNK N   1      34.309  18.253   7.942  0.00  0.00     0.140 A 
HETATM   15  N   UNK N   1      32.930  17.993   7.625  0.00  0.00    -0.378 N 
HETATM   16  H   UNK N   1      32.415  18.421   6.904  0.00  0.00     0.160 HD
ENDBRANCH   9  10
ENDBRANCH   8   9
BRANCH   4  17
HETATM   17  C   UNK N   1      27.248  19.767   5.550  0.00  0.00    -0.024 C 
HETATM   18  C   UNK N   1      27.068  21.079   6.295  0.00  0.00     0.019 C 
HETATM   19  C   UNK N   1      27.838  20.064   4.183  0.00  0.00     0.019 C 
HETATM   20  C   UNK N   1      25.866  19.163   5.341  0.00  0.00     0.019 C 
ENDBRANCH   4  17
TORSDOF 3
ENDMDL
MODEL 3
REMARK VINA RESULT:      -6.4      2.420      5.905
REMARK  3 active torsions:
REMARK  status: ('A' for Active; 'I' for Inactive)
REMARK    1  A    between atoms: C_4  and  C_16 
REMARK    2  A    between atoms: C_8  and  C_9 
REMARK    3  A    between atoms: C_9  and  C_10 
ROOT
HETATM    1  C   UNK N   1      29.603  16.202   5.259  0.00  0.00     0.049 C 
HETATM    2  C   UNK N   1      30.297  16.745   6.461  0.00  0.00    -0.054 A 
HETATM    3  C   UNK N   1      31.684  16.583   6.561  0.00  0.00     0.015 A 
HETATM    4  C   UNK N   1      32.397  17.112   7.649  0.00  0.00    -0.050 A 
HETATM    5  C   UNK N   1      31.692  17.791   8.653  0.00  0.00     0.015 A 
HETATM    6  C   UNK N   1      30.309  17.963   8.567  0.00  0.00    -0.054 A 
HETATM    7  C   UNK N   1      29.619  18.720   9.652  0.00  0.00     0.049 C 
HETATM    8  C   UNK N   1      29.596  17.453   7.462  0.00  0.00    -0.039 A 
ENDROOT
BRANCH   8   9
HETATM    9  C   UNK N   1      28.120  17.749   7.347  0.00  0.00     0.115 C 
BRANCH   9  10
HETATM   10  C   UNK N   1      27.753  19.077   6.758  0.00  0.00     0.077 A 
HETATM   11  N   UNK N   1      27.971  19.356   5.541  0.00  0.00    -0.378 N 
HETATM   12  C   UNK N   1      27.417  20.647   5.197  0.00  0.00     0.140 A 
ATOM     13  HN  UNK N   1      28.472  18.752   4.891  1.00  0.00     0.160 HD
HETATM   14  C   UNK N   1      26.731  21.119   6.504  0.00  0.00     0.140 A 
HETATM   15  N   UNK N   1      27.016  20.050   7.425  0.00  0.00    -0.378 N 
HETATM   16  H   UNK N   1      26.737  20.013   8.367  0.00  0.00     0.160 HD
ENDBRANCH   9  10
ENDBRANCH   8   9
BRANCH   4  17
HETATM   17  C   UNK N   1      33.910  17.008   7.739  0.00  0.00    -0.024 C 
HETATM   18  C   UNK N   1      34.468  16.541   6.404  0.00  0.00     0.019 C 
HETATM   19  C   UNK N   1      34.511  18.364   8.065  0.00  0.00     0.019 C 
HETATM   20  C   UNK N   1      34.375  16.022   8.802  0.00  0.00     0.019 C 
ENDBRANCH   4  17
TORSDOF 3
ENDMDL
MODEL 4
REMARK VINA RESULT:      -6.3      2.508      6.251
REMARK  3 active torsions:
REMARK  status: ('A' for Active; 'I' for Inactive)
REMARK    1  A    between atoms: C_4  and  C_16 
REMARK    2  A    between atoms: C_8  and  C_9 
REMARK    3  A    between atoms: C_9  and  C_10 
ROOT
HETATM    1  C   UNK N   1      29.285  18.416   9.597  0.00  0.00     0.049 C 
HETATM    2  C   UNK N   1      30.124  17.963   8.452  0.00  0.00    -0.054 A 
HETATM    3  C   UNK N   1      31.497  17.783   8.661  0.00  0.00     0.015 A 
HETATM    4  C   UNK N   1      32.330  17.315   7.631  0.00  0.00    -0.050 A 
HETATM    5  C   UNK N   1      31.767  17.051   6.375  0.00  0.00     0.015 A 
HETATM    6  C   UNK N   1      30.400  17.224   6.150  0.00  0.00    -0.054 A 
HETATM    7  C   UNK N   1      29.856  16.899   4.799  0.00  0.00     0.049 C 
HETATM    8  C   UNK N   1      29.559  17.670   7.190  0.00  0.00    -0.039 A 
ENDROOT
BRANCH   8   9
HETATM    9  C   UNK N   1      28.071  17.744   6.945  0.00  0.00     0.115 C 
BRANCH   9  10
HETATM   10  C   UNK N   1      27.537  19.070   6.499  0.00  0.00     0.077 A 
HETATM   11  N   UNK N   1      27.028  19.900   7.312  0.00  0.00    -0.378 N 
HETATM   12  C   UNK N   1      26.703  21.144   6.650  0.00  0.00     0.140 A 
ATOM     13  HN  UNK N   1      26.869  19.714   8.301  1.00  0.00     0.160 HD
HETATM   14  C   UNK N   1      27.182  20.926   5.192  0.00  0.00     0.140 A 
HETATM   15  N   UNK N   1      27.684  19.578   5.212  0.00  0.00    -0.378 N 
HETATM   16  H   UNK N   1      28.067  19.095   4.445  0.00  0.00     0.160 HD
ENDBRANCH   9  10
ENDBRANCH   8   9
BRANCH   4  17
HETATM   17  C   UNK N   1      33.808  17.044   7.859  0.00  0.00    -0.024 C 
HETATM   18  C   UNK N   1      34.530  18.356   8.124  0.00  0.00     0.019 C 
HETATM   19  C   UNK N   1      33.996  16.138   9.063  0.00  0.00     0.019 C 
HETATM   20  C   UNK N   1      34.480  16.382   6.665  0.00  0.00     0.019 C 
ENDBRANCH   4  17
TORSDOF 3
ENDMDL
MODEL 5
REMARK VINA RESULT:      -6.1      9.907     12.578
REMARK  3 active torsions:
REMARK  status: ('A' for Active; 'I' for Inactive)
REMARK    1  A    between atoms: C_4  and  C_16 
REMARK    2  A    between atoms: C_8  and  C_9 
REMARK    3  A    between atoms: C_9  and  C_10 
ROOT
HETATM    1  C   UNK N   1      33.736  10.432  13.418  0.00  0.00     0.049 C 
HETATM    2  C   UNK N   1      34.484  11.095  14.524  0.00  0.00    -0.054 A 
HETATM    3  C   UNK N   1      34.526  10.463  15.773  0.00  0.00     0.015 A 
HETATM    4  C   UNK N   1      35.252  11.018  16.840  0.00  0.00    -0.050 A 
HETATM    5  C   UNK N   1      35.920  12.234  16.641  0.00  0.00     0.015 A 
HETATM    6  C   UNK N   1      35.890  12.876  15.401  0.00  0.00    -0.054 A 
HETATM    7  C   UNK N   1      36.645  14.154  15.244  0.00  0.00     0.049 C 
HETATM    8  C   UNK N   1      35.181  12.307  14.323  0.00  0.00    -0.039 A 
ENDROOT
BRANCH   8   9
HETATM    9  C   UNK N   1      35.257  12.970  12.969  0.00  0.00     0.115 C 
BRANCH   9  10
HETATM   10  C   UNK N   1      36.445  12.623  12.125  0.00  0.00     0.077 A 
HETATM   11  N   UNK N   1      36.571  11.489  11.573  0.00  0.00    -0.378 N 
HETATM   12  C   UNK N   1      37.739  11.452  10.721  0.00  0.00     0.140 A 
ATOM     13  HN  UNK N   1      35.933  10.706  11.711  1.00  0.00     0.160 HD
HETATM   14  C   UNK N   1      38.320  12.885  10.823  0.00  0.00     0.140 A 
HETATM   15  N   UNK N   1      37.425  13.534  11.745  0.00  0.00    -0.378 N 
HETATM   16  H   UNK N   1      37.494  14.466  12.054  0.00  0.00     0.160 HD
ENDBRANCH   9  10
ENDBRANCH   8   9
BRANCH   4  17
HETATM   17  C   UNK N   1      35.369  10.312  18.180  0.00  0.00    -0.024 C 
HETATM   18  C   UNK N   1      36.670   9.527  18.228  0.00  0.00     0.019 C 
HETATM   19  C   UNK N   1      35.374  11.325  19.310  0.00  0.00     0.019 C 
HETATM   20  C   UNK N   1      34.231   9.332  18.434  0.00  0.00     0.019 C 
ENDBRANCH   4  17
TORSDOF 3
ENDMDL
MODEL 6
REMARK VINA RESULT:      -6.0      9.847     12.706
REMARK  3 active torsions:
REMARK  status: ('A' for Active; 'I' for Inactive)
REMARK    1  A    between atoms: C_4  and  C_16 
REMARK    2  A    between atoms: C_8  and  C_9 
REMARK    3  A    between atoms: C_9  and  C_10 
ROOT
HETATM    1  C   UNK N   1      36.761  14.155  15.398  0.00  0.00     0.049 C 
HETATM    2  C   UNK N   1      36.045  12.855  15.535  0.00  0.00    -0.054 A 
HETATM    3  C   UNK N   1      36.094  12.192  16.767  0.00  0.00     0.015 A 
HETATM    4  C   UNK N   1      35.403  10.986  16.968  0.00  0.00    -0.050 A 
HETATM    5  C   UNK N   1      34.675  10.440  15.901  0.00  0.00     0.015 A 
HETATM    6  C   UNK N   1      34.614  11.089  14.667  0.00  0.00    -0.054 A 
HETATM    7  C   UNK N   1      33.800  10.472  13.579  0.00  0.00     0.049 C 
HETATM    8  C   UNK N   1      35.288  12.312  14.472  0.00  0.00    -0.039 A 
ENDROOT
BRANCH   8   9
HETATM    9  C   UNK N   1      35.114  13.041  13.161  0.00  0.00     0.115 C 
BRANCH   9  10
HETATM   10  C   UNK N   1      36.140  12.762  12.106  0.00  0.00     0.077 A 
HETATM   11  N   UNK N   1      35.875  12.077  11.073  0.00  0.00    -0.378 N 
HETATM   12  C   UNK N   1      36.997  12.059  10.160  0.00  0.00     0.140 A 
ATOM     13  HN  UNK N   1      34.990  11.601  10.909  1.00  0.00     0.160 HD
HETATM   14  C   UNK N   1      38.053  12.960  10.848  0.00  0.00     0.140 A 
HETATM   15  N   UNK N   1      37.405  13.342  12.075  0.00  0.00    -0.378 N 
HETATM   16  H   UNK N   1      37.791  13.916  12.775  0.00  0.00     0.160 HD
ENDBRANCH   9  10
ENDBRANCH   8   9
BRANCH   4  17
HETATM   17  C   UNK N   1      35.385  10.290  18.318  0.00  0.00    -0.024 C 
HETATM   18  C   UNK N   1      35.237  11.326  19.421  0.00  0.00     0.019 C 
HETATM   19  C   UNK N   1      34.214   9.327  18.398  0.00  0.00     0.019 C 
HETATM   20  C   UNK N   1      36.658   9.503  18.595  0.00  0.00     0.019 C 
ENDBRANCH   4  17
TORSDOF 3
ENDMDL
MODEL 7
REMARK VINA RESULT:      -5.9     12.731     15.243
REMARK  3 active torsions:
REMARK  status: ('A' for Active; 'I' for Inactive)
REMARK    1  A    between atoms: C_4  and  C_16 
REMARK    2  A    between atoms: C_8  and  C_9 
REMARK    3  A    between atoms: C_9  and  C_10 
ROOT
HETATM    1  C   UNK N   1      27.509  24.080  -2.922  0.00  0.00     0.049 C 
HETATM    2  C   UNK N   1      26.824  24.450  -4.193  0.00  0.00    -0.054 A 
HETATM    3  C   UNK N   1      26.768  23.501  -5.222  0.00  0.00     0.015 A 
HETATM    4  C   UNK N   1      26.097  23.777  -6.425  0.00  0.00    -0.050 A 
HETATM    5  C   UNK N   1      25.498  25.034  -6.590  0.00  0.00     0.015 A 
HETATM    6  C   UNK N   1      25.542  25.989  -5.574  0.00  0.00    -0.054 A 
HETATM    7  C   UNK N   1      24.861  27.298  -5.799  0.00  0.00     0.049 C 
HETATM    8  C   UNK N   1      26.195  25.704  -4.356  0.00  0.00    -0.039 A 
ENDROOT
BRANCH   8   9
HETATM    9  C   UNK N   1      26.132  26.718  -3.239  0.00  0.00     0.115 C 
BRANCH   9  10
HETATM   10  C   UNK N   1      27.184  27.784  -3.251  0.00  0.00     0.077 A 
HETATM   11  N   UNK N   1      27.094  28.827  -2.536  0.00  0.00    -0.378 N 
HETATM   12  C   UNK N   1      28.291  29.633  -2.639  0.00  0.00     0.140 A 
ATOM     13  HN  UNK N   1      26.285  29.066  -1.965  1.00  0.00     0.160 HD
HETATM   14  C   UNK N   1      29.213  28.812  -3.576  0.00  0.00     0.140 A 
HETATM   15  N   UNK N   1      28.406  27.668  -3.907  0.00  0.00    -0.378 N 
HETATM   16  H   UNK N   1      28.672  26.927  -4.497  0.00  0.00     0.160 HD
ENDBRANCH   9  10
ENDBRANCH   8   9
BRANCH   4  17
HETATM   17  C   UNK N   1      25.965  22.736  -7.523  0.00  0.00    -0.024 C 
HETATM   18  C   UNK N   1      25.596  23.420  -8.830  0.00  0.00     0.019 C 
HETATM   19  C   UNK N   1      27.282  22.005  -7.716  0.00  0.00     0.019 C 
HETATM   20  C   UNK N   1      24.892  21.697  -7.228  0.00  0.00     0.019 C 
ENDBRANCH   4  17
TORSDOF 3
ENDMDL
MODEL 8
REMARK VINA RESULT:      -5.9     11.363     14.579
REMARK  3 active torsions:
REMARK  status: ('A' for Active; 'I' for Inactive)
REMARK    1  A    between atoms: C_4  and  C_16 
REMARK    2  A    between atoms: C_8  and  C_9 
REMARK    3  A    between atoms: C_9  and  C_10 
ROOT
HETATM    1  C   UNK N   1      34.885  13.478  19.388  0.00  0.00     0.049 C 
HETATM    2  C   UNK N   1      35.339  12.485  18.372  0.00  0.00    -0.054 A 
HETATM    3  C   UNK N   1      35.477  12.905  17.044  0.00  0.00     0.015 A 
HETATM    4  C   UNK N   1      35.943  12.025  16.052  0.00  0.00    -0.050 A 
HETATM    5  C   UNK N   1      36.248  10.705  16.411  0.00  0.00     0.015 A 
HETATM    6  C   UNK N   1      36.117  10.271  17.731  0.00  0.00    -0.054 A 
HETATM    7  C   UNK N   1      36.485   8.861  18.055  0.00  0.00     0.049 C 
HETATM    8  C   UNK N   1      35.673  11.160  18.732  0.00  0.00    -0.039 A 
ENDROOT
BRANCH   8   9
HETATM    9  C   UNK N   1      35.645  10.690  20.166  0.00  0.00     0.115 C 
BRANCH   9  10
HETATM   10  C   UNK N   1      34.302  10.323  20.718  0.00  0.00     0.077 A 
HETATM   11  N   UNK N   1      33.655   9.314  20.302  0.00  0.00    -0.378 N 
HETATM   12  C   UNK N   1      32.452   9.113  21.078  0.00  0.00     0.140 A 
ATOM     13  HN  UNK N   1      33.945   8.724  19.524  1.00  0.00     0.160 HD
HETATM   14  C   UNK N   1      32.506  10.232  22.149  0.00  0.00     0.140 A 
HETATM   15  N   UNK N   1      33.715  10.940  21.818  0.00  0.00    -0.378 N 
HETATM   16  H   UNK N   1      34.068  11.727  22.291  0.00  0.00     0.160 HD
ENDBRANCH   9  10
ENDBRANCH   8   9
BRANCH   4  17
HETATM   17  C   UNK N   1      36.168  12.483  14.621  0.00  0.00    -0.024 C 
HETATM   18  C   UNK N   1      34.909  12.240  13.806  0.00  0.00     0.019 C 
HETATM   19  C   UNK N   1      36.487  13.967  14.587  0.00  0.00     0.019 C 
HETATM   20  C   UNK N   1      37.309  11.743  13.936  0.00  0.00     0.019 C 
ENDBRANCH   4  17
TORSDOF 3
ENDMDL
MODEL 9
REMARK VINA RESULT:      -5.8     12.737     15.319
REMARK  3 active torsions:
REMARK  status: ('A' for Active; 'I' for Inactive)
REMARK    1  A    between atoms: C_4  and  C_16 
REMARK    2  A    between atoms: C_8  and  C_9 
REMARK    3  A    between atoms: C_9  and  C_10 
ROOT
HETATM    1  C   UNK N   1      24.761  27.330  -5.659  0.00  0.00     0.049 C 
HETATM    2  C   UNK N   1      25.453  26.023  -5.467  0.00  0.00    -0.054 A 
HETATM    3  C   UNK N   1      25.471  25.115  -6.532  0.00  0.00     0.015 A 
HETATM    4  C   UNK N   1      26.146  23.887  -6.424  0.00  0.00    -0.050 A 
HETATM    5  C   UNK N   1      26.787  23.573  -5.217  0.00  0.00     0.015 A 
HETATM    6  C   UNK N   1      26.780  24.469  -4.147  0.00  0.00    -0.054 A 
HETATM    7  C   UNK N   1      27.504  24.089  -2.898  0.00  0.00     0.049 C 
HETATM    8  C   UNK N   1      26.123  25.712  -4.263  0.00  0.00    -0.039 A 
ENDROOT
BRANCH   8   9
HETATM    9  C   UNK N   1      26.226  26.700  -3.126  0.00  0.00     0.115 C 
BRANCH   9  10
HETATM   10  C   UNK N   1      27.182  27.837  -3.320  0.00  0.00     0.077 A 
HETATM   11  N   UNK N   1      27.024  28.955  -2.744  0.00  0.00    -0.378 N 
HETATM   12  C   UNK N   1      28.143  29.835  -3.000  0.00  0.00     0.140 A 
ATOM     13  HN  UNK N   1      26.214  29.202  -2.176  1.00  0.00     0.160 HD
HETATM   14  C   UNK N   1      29.104  28.974  -3.859  0.00  0.00     0.140 A 
HETATM   15  N   UNK N   1      28.388  27.734  -4.004  0.00  0.00    -0.378 N 
HETATM   16  H   UNK N   1      28.700  26.945  -4.504  0.00  0.00     0.160 HD
ENDBRANCH   9  10
ENDBRANCH   8   9
BRANCH   4  17
HETATM   17  C   UNK N   1      26.238  22.921  -7.593  0.00  0.00    -0.024 C 
HETATM   18  C   UNK N   1      26.086  23.686  -8.898  0.00  0.00     0.019 C 
HETATM   19  C   UNK N   1      27.587  22.225  -7.595  0.00  0.00     0.019 C 
HETATM   20  C   UNK N   1      25.158  21.848  -7.561  0.00  0.00     0.019 C 
ENDBRANCH   4  17
TORSDOF 3
ENDMDL
