MODEL 1
REMARK VINA RESULT:      -7.3      0.000      0.000
REMARK  5 active torsions:
REMARK  status: ('A' for Active; 'I' for Inactive)
REMARK    1  A    between atoms: C_2  and  N_23 
REMARK    2  A    between atoms: C_5  and  C_7 
REMARK    3  A    between atoms: C_7  and  C_8 
REMARK    4  A    between atoms: C_8  and  N_9 
REMARK    5  A    between atoms: N_12  and  C_15 
REMARK       I    between atoms: N_23  and  C_24 
REMARK       I    between atoms: C_24  and  N_25 
ROOT
HETATM    1  C   UNK N   1      35.152  15.767   9.628  0.00  0.00     0.273 C 
ENDROOT
BRANCH   1   2
HETATM    2  C   UNK N   1      36.304  14.840   9.977  0.00  0.00     0.034 C 
BRANCH   2   3
HETATM    3  C   UNK N   1      36.142  14.145  11.324  0.00  0.00    -0.013 C 
HETATM    4  C   UNK N   1      36.056  15.103  12.498  0.00  0.00     0.007 C 
HETATM    5  C   UNK N   1      36.271  14.291  13.774  0.00  0.00     0.026 C 
HETATM    6  C   UNK N   1      35.266  13.137  13.923  0.00  0.00     0.086 C 
HETATM    7  C   UNK N   1      35.142  12.315  12.628  0.00  0.00     0.026 C 
HETATM    8  C   UNK N   1      34.975  13.169  11.387  0.00  0.00     0.007 C 
BRANCH   6   9
HETATM    9  N   UNK N   1      35.774  12.252  14.945  0.00  0.00    -0.338 N 
HETATM   10  C   UNK N   1      35.359  12.289  16.238  0.00  0.00     0.317 C 
HETATM   11  N   UNK N   1      35.763  11.324  17.110  0.00  0.00    -0.343 N 
HETATM   12  O   UNK N   1      34.600  13.174  16.613  0.00  0.00    -0.247 OA
HETATM   13  C   UNK N   1      35.301  11.322  18.475  0.00  0.00     0.154 C 
HETATM   14  C   UNK N   1      36.621  10.250  16.673  0.00  0.00     0.154 C 
HETATM   15  H   UNK N   1      36.455  11.588  14.691  0.00  0.00     0.164 HD
ENDBRANCH   6   9
ENDBRANCH   2   3
ENDBRANCH   1   2
BRANCH   1  16
HETATM   16  N   UNK N   1      34.659  15.546   8.269  0.00  0.00     0.091 N 
HETATM   17  C   UNK N   1      33.419  14.754   8.296  0.00  0.00     0.292 C 
HETATM   18  C   UNK N   1      32.316  15.474   9.077  0.00  0.00     0.153 C 
HETATM   19  N   UNK N   1      32.137  16.809   8.552  0.00  0.00    -0.376 N 
HETATM   20  C   UNK N   1      33.324  17.629   8.421  0.00  0.00     0.153 C 
HETATM   21  C   UNK N   1      34.396  16.851   7.647  0.00  0.00     0.292 C 
BRANCH  19  22
HETATM   22  C   UNK N   1      30.846  17.370   8.253  0.00  0.00     0.053 A 
HETATM   23  C   UNK N   1      30.253  17.368   6.948  0.00  0.00     0.082 A 
HETATM   24  C   UNK N   1      28.963  17.915   6.774  0.00  0.00     0.058 A 
HETATM   25 Cl   UNK N   1      31.063  16.722   5.514  0.00  0.00    -0.080 Cl
HETATM   26  C   UNK N   1      28.270  18.451   7.857  0.00  0.00     0.026 A 
HETATM   27 Cl   UNK N   1      28.182  17.939   5.200  0.00  0.00    -0.082 Cl
HETATM   28  C   UNK N   1      28.841  18.464   9.122  0.00  0.00     0.004 A 
HETATM   29  C   UNK N   1      30.110  17.932   9.315  0.00  0.00     0.031 A 
ENDBRANCH  19  22
ENDBRANCH   1  16
TORSDOF 5
ENDMDL
MODEL 2
REMARK VINA RESULT:      -7.2      4.871     10.376
REMARK  5 active torsions:
REMARK  status: ('A' for Active; 'I' for Inactive)
REMARK    1  A    between atoms: C_2  and  N_23 
REMARK    2  A    between atoms: C_5  and  C_7 
REMARK    3  A    between atoms: C_7  and  C_8 
REMARK    4  A    between atoms: C_8  and  N_9 
REMARK    5  A    between atoms: N_12  and  C_15 
REMARK       I    between atoms: N_23  and  C_24 
REMARK       I    between atoms: C_24  and  N_25 
ROOT
HETATM    1  C   UNK N   1      35.607  13.363  12.356  0.00  0.00     0.273 C 
ENDROOT
BRANCH   1   2
HETATM    2  C   UNK N   1      35.704  13.574  10.854  0.00  0.00     0.034 C 
BRANCH   2   3
HETATM    3  C   UNK N   1      34.670  14.551  10.306  0.00  0.00    -0.013 C 
HETATM    4  C   UNK N   1      35.275  15.731   9.568  0.00  0.00     0.007 C 
HETATM    5  C   UNK N   1      34.182  16.786   9.410  0.00  0.00     0.026 C 
HETATM    6  C   UNK N   1      32.939  16.252   8.680  0.00  0.00     0.086 C 
HETATM    7  C   UNK N   1      32.475  14.901   9.251  0.00  0.00     0.026 C 
HETATM    8  C   UNK N   1      33.604  13.905   9.431  0.00  0.00     0.007 C 
BRANCH   6   9
HETATM    9  N   UNK N   1      31.870  17.199   8.899  0.00  0.00    -0.338 N 
HETATM   10  C   UNK N   1      30.841  17.378   8.030  0.00  0.00     0.317 C 
HETATM   11  N   UNK N   1      29.790  18.172   8.376  0.00  0.00    -0.343 N 
HETATM   12  O   UNK N   1      30.846  16.805   6.948  0.00  0.00    -0.247 OA
HETATM   13  C   UNK N   1      28.670  18.341   7.485  0.00  0.00     0.154 C 
HETATM   14  C   UNK N   1      29.748  18.819   9.664  0.00  0.00     0.154 C 
HETATM   15  H   UNK N   1      31.888  17.742   9.720  0.00  0.00     0.164 HD
ENDBRANCH   6   9
ENDBRANCH   2   3
ENDBRANCH   1   2
BRANCH   1  16
HETATM   16  N   UNK N   1      35.955  11.997  12.743  0.00  0.00     0.091 N 
HETATM   17  C   UNK N   1      37.142  11.997  13.612  0.00  0.00     0.292 C 
HETATM   18  C   UNK N   1      36.893  12.793  14.896  0.00  0.00     0.153 C 
HETATM   19  N   UNK N   1      35.700  12.304  15.550  0.00  0.00    -0.376 N 
HETATM   20  C   UNK N   1      34.502  12.201  14.741  0.00  0.00     0.153 C 
HETATM   21  C   UNK N   1      34.817  11.411  13.465  0.00  0.00     0.292 C 
BRANCH  19  22
HETATM   22  C   UNK N   1      35.637  12.016  16.958  0.00  0.00     0.053 A 
HETATM   23  C   UNK N   1      36.037  10.768  17.540  0.00  0.00     0.082 A 
HETATM   24  C   UNK N   1      35.967  10.605  18.940  0.00  0.00     0.058 A 
HETATM   25 Cl   UNK N   1      36.609   9.391  16.588  0.00  0.00    -0.080 Cl
HETATM   26  C   UNK N   1      35.515  11.643  19.753  0.00  0.00     0.026 A 
HETATM   27 Cl   UNK N   1      36.445   9.101  19.713  0.00  0.00    -0.082 Cl
HETATM   28  C   UNK N   1      35.119  12.851  19.195  0.00  0.00     0.004 A 
HETATM   29  C   UNK N   1      35.178  13.032  17.819  0.00  0.00     0.031 A 
ENDBRANCH  19  22
ENDBRANCH   1  16
TORSDOF 5
ENDMDL
MODEL 3
REMARK VINA RESULT:      -7.1      5.227     10.711
REMARK  5 active torsions:
REMARK  status: ('A' for Active; 'I' for Inactive)
REMARK    1  A    between atoms: C_2  and  N_23 
REMARK    2  A    between atoms: C_5  and  C_7 
REMARK    3  A    between atoms: C_7  and  C_8 
REMARK    4  A    between atoms: C_8  and  N_9 
REMARK    5  A    between atoms: N_12  and  C_15 
REMARK       I    between atoms: N_23  and  C_24 
REMARK       I    between atoms: C_24  and  N_25 
ROOT
HETATM    1  C   UNK N   1      35.108  13.812  12.862  0.00  0.00     0.273 C 
ENDROOT
BRANCH   1   2
HETATM    2  C   UNK N   1      35.969  14.747  12.029  0.00  0.00     0.034 C 
BRANCH   2   3
HETATM    3  C   UNK N   1      35.359  15.095  10.676  0.00  0.00    -0.013 C 
HETATM    4  C   UNK N   1      35.229  16.587  10.431  0.00  0.00     0.007 C 
HETATM    5  C   UNK N   1      34.289  16.779   9.242  0.00  0.00     0.026 C 
HETATM    6  C   UNK N   1      34.767  16.047   7.978  0.00  0.00     0.086 C 
HETATM    7  C   UNK N   1      35.168  14.592   8.275  0.00  0.00     0.026 C 
HETATM    8  C   UNK N   1      36.065  14.452   9.489  0.00  0.00     0.007 C 
BRANCH   6   9
HETATM    9  N   UNK N   1      33.657  16.006   7.056  0.00  0.00    -0.338 N 
HETATM   10  C   UNK N   1      33.452  16.938   6.089  0.00  0.00     0.317 C 
HETATM   11  N   UNK N   1      32.476  16.750   5.158  0.00  0.00    -0.343 N 
HETATM   12  O   UNK N   1      34.164  17.934   6.039  0.00  0.00    -0.247 OA
HETATM   13  C   UNK N   1      32.272  17.707   4.101  0.00  0.00     0.154 C 
HETATM   14  C   UNK N   1      31.659  15.561   5.178  0.00  0.00     0.154 C 
HETATM   15  H   UNK N   1      33.014  15.263   7.132  0.00  0.00     0.164 HD
ENDBRANCH   6   9
ENDBRANCH   2   3
ENDBRANCH   1   2
BRANCH   1  16
HETATM   16  N   UNK N   1      35.714  12.489  13.007  0.00  0.00     0.091 N 
HETATM   17  C   UNK N   1      36.945  12.574  13.808  0.00  0.00     0.292 C 
HETATM   18  C   UNK N   1      36.659  13.109  15.215  0.00  0.00     0.153 C 
HETATM   19  N   UNK N   1      35.620  12.318  15.835  0.00  0.00    -0.376 N 
HETATM   20  C   UNK N   1      34.401  12.122  15.077  0.00  0.00     0.153 C 
HETATM   21  C   UNK N   1      34.752  11.603  13.677  0.00  0.00     0.292 C 
BRANCH  19  22
HETATM   22  C   UNK N   1      35.713  11.815  17.180  0.00  0.00     0.053 A 
HETATM   23  C   UNK N   1      36.315  10.560  17.527  0.00  0.00     0.082 A 
HETATM   24  C   UNK N   1      36.384  10.179  18.884  0.00  0.00     0.058 A 
HETATM   25 Cl   UNK N   1      36.973   9.435  16.331  0.00  0.00    -0.080 Cl
HETATM   26  C   UNK N   1      35.876  11.010  19.880  0.00  0.00     0.026 A 
HETATM   27 Cl   UNK N   1      37.111   8.656  19.373  0.00  0.00    -0.082 Cl
HETATM   28  C   UNK N   1      35.285  12.223  19.551  0.00  0.00     0.004 A 
HETATM   29  C   UNK N   1      35.205  12.616  18.221  0.00  0.00     0.031 A 
ENDBRANCH  19  22
ENDBRANCH   1  16
TORSDOF 5
ENDMDL
MODEL 4
REMARK VINA RESULT:      -7.0      4.209      9.389
REMARK  5 active torsions:
REMARK  status: ('A' for Active; 'I' for Inactive)
REMARK    1  A    between atoms: C_2  and  N_23 
REMARK    2  A    between atoms: C_5  and  C_7 
REMARK    3  A    between atoms: C_7  and  C_8 
REMARK    4  A    between atoms: C_8  and  N_9 
REMARK    5  A    between atoms: N_12  and  C_15 
REMARK       I    between atoms: N_23  and  C_24 
REMARK       I    between atoms: C_24  and  N_25 
ROOT
HETATM    1  C   UNK N   1      35.933  13.904   8.866  0.00  0.00     0.273 C 
ENDROOT
BRANCH   1   2
HETATM    2  C   UNK N   1      35.798  15.033   7.858  0.00  0.00     0.034 C 
BRANCH   2   3
HETATM    3  C   UNK N   1      34.381  15.581   7.740  0.00  0.00    -0.013 C 
HETATM    4  C   UNK N   1      33.320  14.655   8.305  0.00  0.00     0.007 C 
HETATM    5  C   UNK N   1      31.964  15.142   7.796  0.00  0.00     0.026 C 
HETATM    6  C   UNK N   1      31.678  16.607   8.165  0.00  0.00     0.086 C 
HETATM    7  C   UNK N   1      32.873  17.521   7.843  0.00  0.00     0.026 C 
HETATM    8  C   UNK N   1      34.199  16.973   8.331  0.00  0.00     0.007 C 
BRANCH   6   9
HETATM    9  N   UNK N   1      30.570  17.048   7.352  0.00  0.00    -0.338 N 
HETATM   10  C   UNK N   1      29.653  17.961   7.770  0.00  0.00     0.317 C 
HETATM   11  N   UNK N   1      28.729  18.446   6.895  0.00  0.00    -0.343 N 
HETATM   12  O   UNK N   1      29.676  18.367   8.925  0.00  0.00    -0.247 OA
HETATM   13  C   UNK N   1      27.776  19.445   7.309  0.00  0.00     0.154 C 
HETATM   14  C   UNK N   1      28.717  18.011   5.520  0.00  0.00     0.154 C 
HETATM   15  H   UNK N   1      30.473  16.669   6.448  0.00  0.00     0.164 HD
ENDBRANCH   6   9
ENDBRANCH   2   3
ENDBRANCH   1   2
BRANCH   1  16
HETATM   16  N   UNK N   1      36.792  14.271   9.991  0.00  0.00     0.091 N 
HETATM   17  C   UNK N   1      36.019  14.999  11.010  0.00  0.00     0.292 C 
HETATM   18  C   UNK N   1      34.876  14.140  11.561  0.00  0.00     0.153 C 
HETATM   19  N   UNK N   1      35.396  12.875  12.026  0.00  0.00    -0.376 N 
HETATM   20  C   UNK N   1      36.232  12.129  11.107  0.00  0.00     0.153 C 
HETATM   21  C   UNK N   1      37.345  13.043  10.578  0.00  0.00     0.292 C 
BRANCH  19  22
HETATM   22  C   UNK N   1      35.045  12.300  13.298  0.00  0.00     0.053 A 
HETATM   23  C   UNK N   1      35.434  12.852  14.562  0.00  0.00     0.082 A 
HETATM   24  C   UNK N   1      35.003  12.225  15.752  0.00  0.00     0.058 A 
HETATM   25 Cl   UNK N   1      36.453  14.289  14.723  0.00  0.00    -0.080 Cl
HETATM   26  C   UNK N   1      34.207  11.083  15.702  0.00  0.00     0.026 A 
HETATM   27 Cl   UNK N   1      35.445  12.855  17.332  0.00  0.00    -0.082 Cl
HETATM   28  C   UNK N   1      33.833  10.538  14.480  0.00  0.00     0.004 A 
HETATM   29  C   UNK N   1      34.248  11.139  13.298  0.00  0.00     0.031 A 
ENDBRANCH  19  22
ENDBRANCH   1  16
TORSDOF 5
ENDMDL
MODEL 5
REMARK VINA RESULT:      -6.9      4.428      9.993
REMARK  5 active torsions:
REMARK  status: ('A' for Active; 'I' for Inactive)
REMARK    1  A    between atoms: C_2  and  N_23 
REMARK    2  A    between atoms: C_5  and  C_7 
REMARK    3  A    between atoms: C_7  and  C_8 
REMARK    4  A    between atoms: C_8  and  N_9 
REMARK    5  A    between atoms: N_12  and  C_15 
REMARK       I    between atoms: N_23  and  C_24 
REMARK       I    between atoms: C_24  and  N_25 
ROOT
HETATM    1  C   UNK N   1      35.290  14.536   8.659  0.00  0.00     0.273 C 
ENDROOT
BRANCH   1   2
HETATM    2  C   UNK N   1      35.325  15.110   7.253  0.00  0.00     0.034 C 
BRANCH   2   3
HETATM    3  C   UNK N   1      33.957  15.534   6.732  0.00  0.00    -0.013 C 
HETATM    4  C   UNK N   1      32.814  15.193   7.671  0.00  0.00     0.007 C 
HETATM    5  C   UNK N   1      31.512  15.326   6.881  0.00  0.00     0.026 C 
HETATM    6  C   UNK N   1      31.329  16.722   6.264  0.00  0.00     0.086 C 
HETATM    7  C   UNK N   1      32.596  17.197   5.534  0.00  0.00     0.026 C 
HETATM    8  C   UNK N   1      33.864  17.003   6.342  0.00  0.00     0.007 C 
BRANCH   6   9
HETATM    9  N   UNK N   1      30.278  16.623   5.279  0.00  0.00    -0.338 N 
HETATM   10  C   UNK N   1      29.188  17.434   5.265  0.00  0.00     0.317 C 
HETATM   11  N   UNK N   1      28.319  17.388   4.217  0.00  0.00    -0.343 N 
HETATM   12  O   UNK N   1      29.001  18.225   6.181  0.00  0.00    -0.247 OA
HETATM   13  C   UNK N   1      27.180  18.269   4.164  0.00  0.00     0.154 C 
HETATM   14  C   UNK N   1      28.549  16.494   3.109  0.00  0.00     0.154 C 
HETATM   15  H   UNK N   1      30.357  15.934   4.580  0.00  0.00     0.164 HD
ENDBRANCH   6   9
ENDBRANCH   2   3
ENDBRANCH   1   2
BRANCH   1  16
HETATM   16  N   UNK N   1      36.057  15.346   9.604  0.00  0.00     0.091 N 
HETATM   17  C   UNK N   1      35.184  15.847  10.677  0.00  0.00     0.292 C 
HETATM   18  C   UNK N   1      34.550  14.695  11.463  0.00  0.00     0.153 C 
HETATM   19  N   UNK N   1      35.581  13.797  11.931  0.00  0.00    -0.376 N 
HETATM   20  C   UNK N   1      36.531  13.317  10.948  0.00  0.00     0.153 C 
HETATM   21  C   UNK N   1      37.118  14.511  10.184  0.00  0.00     0.292 C 
BRANCH  19  22
HETATM   22  C   UNK N   1      35.639  13.301  13.281  0.00  0.00     0.053 A 
HETATM   23  C   UNK N   1      35.078  12.051  13.700  0.00  0.00     0.082 A 
HETATM   24  C   UNK N   1      35.223  11.645  15.044  0.00  0.00     0.058 A 
HETATM   25 Cl   UNK N   1      34.185  10.974  12.617  0.00  0.00    -0.080 Cl
HETATM   26  C   UNK N   1      35.905  12.447  15.957  0.00  0.00     0.026 A 
HETATM   27 Cl   UNK N   1      34.560  10.122  15.619  0.00  0.00    -0.082 Cl
HETATM   28  C   UNK N   1      36.444  13.663  15.559  0.00  0.00     0.004 A 
HETATM   29  C   UNK N   1      36.311  14.082  14.241  0.00  0.00     0.031 A 
ENDBRANCH  19  22
ENDBRANCH   1  16
TORSDOF 5
ENDMDL
MODEL 6
REMARK VINA RESULT:      -6.9      4.585     10.321
REMARK  5 active torsions:
REMARK  status: ('A' for Active; 'I' for Inactive)
REMARK    1  A    between atoms: C_2  and  N_23 
REMARK    2  A    between atoms: C_5  and  C_7 
REMARK    3  A    between atoms: C_7  and  C_8 
REMARK    4  A    between atoms: C_8  and  N_9 
REMARK    5  A    between atoms: N_12  and  C_15 
REMARK       I    between atoms: N_23  and  C_24 
REMARK       I    between atoms: C_24  and  N_25 
ROOT
HETATM    1  C   UNK N   1      35.601  13.380  12.040  0.00  0.00     0.273 C 
ENDROOT
BRANCH   1   2
HETATM    2  C   UNK N   1      35.832  13.931  10.643  0.00  0.00     0.034 C 
BRANCH   2   3
HETATM    3  C   UNK N   1      34.703  14.825  10.144  0.00  0.00    -0.013 C 
HETATM    4  C   UNK N   1      35.176  15.987   9.291  0.00  0.00     0.007 C 
HETATM    5  C   UNK N   1      34.020  16.979   9.179  0.00  0.00     0.026 C 
HETATM    6  C   UNK N   1      32.745  16.347   8.600  0.00  0.00     0.086 C 
HETATM    7  C   UNK N   1      32.406  15.011   9.284  0.00  0.00     0.026 C 
HETATM    8  C   UNK N   1      33.597  14.081   9.409  0.00  0.00     0.007 C 
BRANCH   6   9
HETATM    9  N   UNK N   1      31.653  17.253   8.868  0.00  0.00    -0.338 N 
HETATM   10  C   UNK N   1      30.630  17.468   8.000  0.00  0.00     0.317 C 
HETATM   11  N   UNK N   1      29.557  18.215   8.384  0.00  0.00    -0.343 N 
HETATM   12  O   UNK N   1      30.660  16.968   6.882  0.00  0.00    -0.247 OA
HETATM   13  C   UNK N   1      28.444  18.419   7.493  0.00  0.00     0.154 C 
HETATM   14  C   UNK N   1      29.487  18.773   9.712  0.00  0.00     0.154 C 
HETATM   15  H   UNK N   1      31.650  17.741   9.724  0.00  0.00     0.164 HD
ENDBRANCH   6   9
ENDBRANCH   2   3
ENDBRANCH   1   2
BRANCH   1  16
HETATM   16  N   UNK N   1      35.975  11.970  12.145  0.00  0.00     0.091 N 
HETATM   17  C   UNK N   1      37.229  11.827  12.901  0.00  0.00     0.292 C 
HETATM   18  C   UNK N   1      37.087  12.375  14.324  0.00  0.00     0.153 C 
HETATM   19  N   UNK N   1      35.949  11.762  14.972  0.00  0.00    -0.376 N 
HETATM   20  C   UNK N   1      34.689  11.793  14.257  0.00  0.00     0.153 C 
HETATM   21  C   UNK N   1      34.897  11.250  12.838  0.00  0.00     0.292 C 
BRANCH  19  22
HETATM   22  C   UNK N   1      36.000  11.224  16.306  0.00  0.00     0.053 A 
HETATM   23  C   UNK N   1      35.497  11.902  17.464  0.00  0.00     0.082 A 
HETATM   24  C   UNK N   1      35.566  11.265  18.722  0.00  0.00     0.058 A 
HETATM   25 Cl   UNK N   1      34.797  13.526  17.412  0.00  0.00    -0.080 Cl
HETATM   26  C   UNK N   1      36.115   9.990  18.841  0.00  0.00     0.026 A 
HETATM   27 Cl   UNK N   1      34.965  12.043  20.178  0.00  0.00    -0.082 Cl
HETATM   28  C   UNK N   1      36.611   9.330  17.724  0.00  0.00     0.004 A 
HETATM   29  C   UNK N   1      36.554   9.940  16.477  0.00  0.00     0.031 A 
ENDBRANCH  19  22
ENDBRANCH   1  16
TORSDOF 5
ENDMDL
MODEL 7
REMARK VINA RESULT:      -6.8      1.758      2.576
REMARK  5 active torsions:
REMARK  status: ('A' for Active; 'I' for Inactive)
REMARK    1  A    between atoms: C_2  and  N_23 
REMARK    2  A    between atoms: C_5  and  C_7 
REMARK    3  A    between atoms: C_7  and  C_8 
REMARK    4  A    between atoms: C_8  and  N_9 
REMARK    5  A    between atoms: N_12  and  C_15 
REMARK       I    between atoms: N_23  and  C_24 
REMARK       I    between atoms: C_24  and  N_25 
ROOT
HETATM    1  C   UNK N   1      35.294  14.700   9.629  0.00  0.00     0.273 C 
ENDROOT
BRANCH   1   2
HETATM    2  C   UNK N   1      36.424  14.912  10.622  0.00  0.00     0.034 C 
BRANCH   2   3
HETATM    3  C   UNK N   1      36.251  14.134  11.921  0.00  0.00    -0.013 C 
HETATM    4  C   UNK N   1      36.286  15.005  13.163  0.00  0.00     0.007 C 
HETATM    5  C   UNK N   1      36.475  14.085  14.368  0.00  0.00     0.026 C 
HETATM    6  C   UNK N   1      35.383  13.008  14.473  0.00  0.00     0.086 C 
HETATM    7  C   UNK N   1      35.146  12.299  13.130  0.00  0.00     0.026 C 
HETATM    8  C   UNK N   1      35.008  13.255  11.961  0.00  0.00     0.007 C 
BRANCH   6   9
HETATM    9  N   UNK N   1      35.849  12.011  15.408  0.00  0.00    -0.338 N 
HETATM   10  C   UNK N   1      35.536  12.022  16.730  0.00  0.00     0.317 C 
HETATM   11  N   UNK N   1      35.879  10.966  17.519  0.00  0.00    -0.343 N 
HETATM   12  O   UNK N   1      34.922  12.969  17.207  0.00  0.00    -0.247 OA
HETATM   13  C   UNK N   1      35.519  10.940  18.914  0.00  0.00     0.154 C 
HETATM   14  C   UNK N   1      36.563   9.824  16.964  0.00  0.00     0.154 C 
HETATM   15  H   UNK N   1      36.422  11.285  15.069  0.00  0.00     0.164 HD
ENDBRANCH   6   9
ENDBRANCH   2   3
ENDBRANCH   1   2
BRANCH   1  16
HETATM   16  N   UNK N   1      34.188  15.633   9.846  0.00  0.00     0.091 N 
HETATM   17  C   UNK N   1      34.458  16.912   9.171  0.00  0.00     0.292 C 
HETATM   18  C   UNK N   1      34.614  16.723   7.659  0.00  0.00     0.153 C 
HETATM   19  N   UNK N   1      33.463  16.024   7.133  0.00  0.00    -0.376 N 
HETATM   20  C   UNK N   1      33.084  14.791   7.792  0.00  0.00     0.153 C 
HETATM   21  C   UNK N   1      32.960  15.039   9.301  0.00  0.00     0.292 C 
BRANCH  19  22
HETATM   22  C   UNK N   1      32.759  16.447   5.952  0.00  0.00     0.053 A 
HETATM   23  C   UNK N   1      31.415  16.947   5.955  0.00  0.00     0.082 A 
HETATM   24  C   UNK N   1      30.832  17.369   4.741  0.00  0.00     0.058 A 
HETATM   25 Cl   UNK N   1      30.422  17.055   7.415  0.00  0.00    -0.080 Cl
HETATM   26  C   UNK N   1      31.550  17.303   3.549  0.00  0.00     0.026 A 
HETATM   27 Cl   UNK N   1      29.190  17.993   4.680  0.00  0.00    -0.082 Cl
HETATM   28  C   UNK N   1      32.850  16.813   3.538  0.00  0.00     0.004 A 
HETATM   29  C   UNK N   1      33.442  16.391   4.721  0.00  0.00     0.031 A 
ENDBRANCH  19  22
ENDBRANCH   1  16
TORSDOF 5
ENDMDL
MODEL 8
REMARK VINA RESULT:      -6.7      2.881      4.864
REMARK  5 active torsions:
REMARK  status: ('A' for Active; 'I' for Inactive)
REMARK    1  A    between atoms: C_2  and  N_23 
REMARK    2  A    between atoms: C_5  and  C_7 
REMARK    3  A    between atoms: C_7  and  C_8 
REMARK    4  A    between atoms: C_8  and  N_9 
REMARK    5  A    between atoms: N_12  and  C_15 
REMARK       I    between atoms: N_23  and  C_24 
REMARK       I    between atoms: C_24  and  N_25 
ROOT
HETATM    1  C   UNK N   1      31.330  15.096   5.687  0.00  0.00     0.273 C 
ENDROOT
BRANCH   1   2
HETATM    2  C   UNK N   1      32.814  15.373   5.860  0.00  0.00     0.034 C 
BRANCH   2   3
HETATM    3  C   UNK N   1      33.335  15.063   7.258  0.00  0.00    -0.013 C 
HETATM    4  C   UNK N   1      34.805  15.391   7.448  0.00  0.00     0.007 C 
HETATM    5  C   UNK N   1      35.270  14.702   8.730  0.00  0.00     0.026 C 
HETATM    6  C   UNK N   1      34.444  15.111   9.960  0.00  0.00     0.086 C 
HETATM    7  C   UNK N   1      32.933  15.044   9.684  0.00  0.00     0.026 C 
HETATM    8  C   UNK N   1      32.530  15.703   8.380  0.00  0.00     0.007 C 
BRANCH   6   9
HETATM    9  N   UNK N   1      34.731  14.160  11.008  0.00  0.00    -0.338 N 
HETATM   10  C   UNK N   1      35.450  14.466  12.120  0.00  0.00     0.317 C 
HETATM   11  N   UNK N   1      35.546  13.566  13.138  0.00  0.00    -0.343 N 
HETATM   12  O   UNK N   1      35.987  15.563  12.219  0.00  0.00    -0.247 OA
HETATM   13  C   UNK N   1      36.268  13.889  14.342  0.00  0.00     0.154 C 
HETATM   14  C   UNK N   1      34.882  12.288  13.055  0.00  0.00     0.154 C 
HETATM   15  H   UNK N   1      34.388  13.242  10.912  0.00  0.00     0.164 HD
ENDBRANCH   6   9
ENDBRANCH   2   3
ENDBRANCH   1   2
BRANCH   1  16
HETATM   16  N   UNK N   1      30.849  15.480   4.361  0.00  0.00     0.091 N 
HETATM   17  C   UNK N   1      29.398  15.261   4.259  0.00  0.00     0.292 C 
HETATM   18  C   UNK N   1      28.634  16.099   5.290  0.00  0.00     0.153 C 
HETATM   19  N   UNK N   1      29.018  17.487   5.171  0.00  0.00    -0.376 N 
HETATM   20  C   UNK N   1      30.437  17.781   5.185  0.00  0.00     0.153 C 
HETATM   21  C   UNK N   1      31.148  16.902   4.148  0.00  0.00     0.292 C 
BRANCH  19  22
HETATM   22  C   UNK N   1      28.066  18.566   5.137  0.00  0.00     0.053 A 
HETATM   23  C   UNK N   1      27.655  19.309   6.291  0.00  0.00     0.082 A 
HETATM   24  C   UNK N   1      26.740  20.373   6.138  0.00  0.00     0.058 A 
HETATM   25 Cl   UNK N   1      28.226  18.957   7.928  0.00  0.00    -0.080 Cl
HETATM   26  C   UNK N   1      26.239  20.702   4.880  0.00  0.00     0.026 A 
HETATM   27 Cl   UNK N   1      26.200  21.323   7.514  0.00  0.00    -0.082 Cl
HETATM   28  C   UNK N   1      26.627  19.980   3.758  0.00  0.00     0.004 A 
HETATM   29  C   UNK N   1      27.526  18.929   3.888  0.00  0.00     0.031 A 
ENDBRANCH  19  22
ENDBRANCH   1  16
TORSDOF 5
ENDMDL
MODEL 9
REMARK VINA RESULT:      -6.6      4.024      6.873
REMARK  5 active torsions:
REMARK  status: ('A' for Active; 'I' for Inactive)
REMARK    1  A    between atoms: C_2  and  N_23 
REMARK    2  A    between atoms: C_5  and  C_7 
REMARK    3  A    between atoms: C_7  and  C_8 
REMARK    4  A    between atoms: C_8  and  N_9 
REMARK    5  A    between atoms: N_12  and  C_15 
REMARK       I    between atoms: N_23  and  C_24 
REMARK       I    between atoms: C_24  and  N_25 
ROOT
HETATM    1  C   UNK N   1      29.863  16.786   4.905  0.00  0.00     0.273 C 
ENDROOT
BRANCH   1   2
HETATM    2  C   UNK N   1      31.279  17.337   4.948  0.00  0.00     0.034 C 
BRANCH   2   3
HETATM    3  C   UNK N   1      32.067  16.902   6.178  0.00  0.00    -0.013 C 
HETATM    4  C   UNK N   1      33.479  17.457   6.225  0.00  0.00     0.007 C 
HETATM    5  C   UNK N   1      34.251  16.663   7.278  0.00  0.00     0.026 C 
HETATM    6  C   UNK N   1      33.589  16.708   8.664  0.00  0.00     0.086 C 
HETATM    7  C   UNK N   1      32.082  16.413   8.589  0.00  0.00     0.026 C 
HETATM    8  C   UNK N   1      31.370  17.192   7.501  0.00  0.00     0.007 C 
BRANCH   6   9
HETATM    9  N   UNK N   1      34.190  15.666   9.463  0.00  0.00    -0.338 N 
HETATM   10  C   UNK N   1      34.928  15.910  10.578  0.00  0.00     0.317 C 
HETATM   11  N   UNK N   1      35.330  14.876  11.368  0.00  0.00    -0.343 N 
HETATM   12  O   UNK N   1      35.209  17.062  10.886  0.00  0.00    -0.247 OA
HETATM   13  C   UNK N   1      36.078  15.119  12.575  0.00  0.00     0.154 C 
HETATM   14  C   UNK N   1      34.970  13.518  11.042  0.00  0.00     0.154 C 
HETATM   15  H   UNK N   1      34.057  14.730   9.187  0.00  0.00     0.164 HD
ENDBRANCH   6   9
ENDBRANCH   2   3
ENDBRANCH   1   2
BRANCH   1  16
HETATM   16  N   UNK N   1      28.933  17.707   4.252  0.00  0.00     0.091 N 
HETATM   17  C   UNK N   1      28.024  16.969   3.361  0.00  0.00     0.292 C 
HETATM   18  C   UNK N   1      27.192  15.945   4.138  0.00  0.00     0.153 C 
HETATM   19  N   UNK N   1      26.519  16.596   5.239  0.00  0.00    -0.376 N 
HETATM   20  C   UNK N   1      27.333  17.406   6.121  0.00  0.00     0.153 C 
HETATM   21  C   UNK N   1      28.154  18.398   5.288  0.00  0.00     0.292 C 
BRANCH  19  22
HETATM   22  C   UNK N   1      25.125  16.397   5.536  0.00  0.00     0.053 A 
HETATM   23  C   UNK N   1      24.626  15.342   6.368  0.00  0.00     0.082 A 
HETATM   24  C   UNK N   1      23.240  15.261   6.624  0.00  0.00     0.058 A 
HETATM   25 Cl   UNK N   1      25.661  14.105   7.096  0.00  0.00    -0.080 Cl
HETATM   26  C   UNK N   1      22.362  16.194   6.076  0.00  0.00     0.026 A 
HETATM   27 Cl   UNK N   1      22.567  13.992   7.637  0.00  0.00    -0.082 Cl
HETATM   28  C   UNK N   1      22.838  17.214   5.262  0.00  0.00     0.004 A 
HETATM   29  C   UNK N   1      24.199  17.311   4.997  0.00  0.00     0.031 A 
ENDBRANCH  19  22
ENDBRANCH   1  16
TORSDOF 5
ENDMDL
