REMARK WARNING: 32 MAX_TORS EXCEEDED!!!
REMARK  42 active torsions:
REMARK  status: ('A' for Active; 'I' for Inactive)
REMARK    1  A    between atoms: C_1  and  C_2 
REMARK    2  A    between atoms: C_1  and  N_121 
REMARK    3  A    between atoms: C_2  and  N_3 
REMARK    4  A    between atoms: N_3  and  C_4 
REMARK    5  A    between atoms: C_4  and  C_5 
REMARK    6  A    between atoms: C_5  and  C_6 
REMARK    7  A    between atoms: C_6  and  C_7 
REMARK    8  A    between atoms: C_7  and  C_8 
REMARK    9  A    between atoms: C_8  and  C_9 
REMARK   10  A    between atoms: C_9  and  C_10 
REMARK   11  A    between atoms: C_10  and  C_11 
REMARK   12  A    between atoms: C_11  and  C_12 
REMARK   13  A    between atoms: O_57  and  C_14 
REMARK   14  A    between atoms: C_22  and  O_36 
REMARK   15  A    between atoms: C_23  and  O_38 
REMARK   16  A    between atoms: C_39  and  O_50 
REMARK   17  A    between atoms: C_40  and  O_57 
REMARK   18  A    between atoms: C_41  and  O_52 
REMARK   19  A    between atoms: C_43  and  N_121 
REMARK   20  A    between atoms: C_44  and  O_53 
REMARK   21  A    between atoms: C_45  and  O_50 
REMARK   22  A    between atoms: C_46  and  C_58 
REMARK   23  A    between atoms: C_49  and  O_54 
REMARK   24  A    between atoms: C_58  and  O_59 
REMARK   25  A    between atoms: C_61  and  N_76 
REMARK   26  A    between atoms: C_68  and  C_72 
REMARK   27  A    between atoms: C_72  and  C_73 
REMARK       I    between atoms: C_73  and  N_74 
REMARK       I    between atoms: C_77  and  N_76 
REMARK   28  A    between atoms: C_78  and  C_77 
REMARK   29  A    between atoms: C_80  and  C_78 
REMARK   30  A    between atoms: C_78  and  N_81 
REMARK   31  A    between atoms: C_82  and  C_80 
REMARK   32  A    between atoms: C_93  and  O_95 
REMARK   33  A    between atoms: C_96  and  C_93 
REMARK   34  A    between atoms: O_105  and  C_100 
REMARK   35  A    between atoms: C_108  and  C_114 
REMARK   36  A    between atoms: C_110  and  O_111 
REMARK   37  A    between atoms: C_112  and  O_113 
REMARK   38  A    between atoms: C_114  and  N_115 
REMARK   39  A    between atoms: N_115  and  C_116 
REMARK   40  A    between atoms: C_116  and  P_117 
REMARK   41  A    between atoms: P_117  and  O_118 
REMARK   42  A    between atoms: P_117  and  O_120 
ROOT
HETATM    1  C   UNK N   1      -1.748   3.259  -0.650  0.00  0.00     0.139 A 
HETATM    2  C   UNK N   1      -0.533   2.552  -0.743  0.00  0.00     0.113 A 
HETATM    3  C   UNK N   1      -2.910   2.522  -0.358  0.00  0.00     0.113 A 
HETATM    4  C   UNK N   1      -1.707   0.418  -0.438  0.00  0.00    -0.021 A 
HETATM    5  C   UNK N   1      -2.873   1.146  -0.299  0.00  0.00     0.050 A 
HETATM    6  C   UNK N   1      -0.527   1.125  -0.639  0.00  0.00     0.050 A 
HETATM    7  O   UNK N   1       0.635   3.248  -0.909  0.00  0.00    -0.306 OA
HETATM    8  O   UNK N   1      -4.066   3.167  -0.125  0.00  0.00    -0.306 OA
HETATM    9  C   UNK N   1      -8.376   0.082   0.667  0.00  0.00     0.183 C 
HETATM   10  C   UNK N   1       4.465  -0.664  -1.121  0.00  0.00     0.183 C 
HETATM   11  C   UNK N   1      -7.521   1.245   0.824  0.00  0.00    -0.025 A 
HETATM   12  C   UNK N   1       3.745   0.611  -0.889  0.00  0.00    -0.025 C 
HETATM   13  C   UNK N   1      -5.202   2.599   0.275  0.00  0.00     0.098 A 
HETATM   14  C   UNK N   1       1.799   2.576  -0.808  0.00  0.00     0.098 C 
HETATM   15  C   UNK N   1      -5.291   1.862   1.469  0.00  0.00     0.068 A 
HETATM   16  C   UNK N   1       2.648   2.509  -1.912  0.00  0.00     0.068 C 
HETATM   17  C   UNK N   1       3.608   1.501  -1.960  0.00  0.00     0.036 C 
HETATM   18  C   UNK N   1       3.000   0.791   0.277  0.00  0.00     0.012 C 
HETATM   19  C   UNK N   1      -7.462   2.067  -0.289  0.00  0.00     0.012 A 
HETATM   20  C   UNK N   1      -6.304   2.748  -0.555  0.00  0.00     0.040 A 
HETATM   21  C   UNK N   1       2.038   1.779   0.323  0.00  0.00     0.040 C 
HETATM   22 Cl   UNK N   1       2.367   3.506  -3.326  0.00  0.00    -0.081 Cl
HETATM   23 Cl   UNK N   1      -3.952   1.726   2.601  0.00  0.00    -0.081 Cl
HETATM   24  C   UNK N   1      -6.451   1.159   1.725  0.00  0.00     0.036 A 
HETATM   25  C   UNK N   1       4.006  -1.864  -0.272  0.00  0.00     0.210 C 
HETATM   26  N   UNK N   1      -0.681  -1.961  -0.288  0.00  0.00    -0.342 N 
HETATM   27  C   UNK N   1       3.272  -2.999  -0.942  0.00  0.00     0.244 C 
HETATM   28  C   UNK N   1      -2.701  -1.277   1.003  0.00  0.00     0.246 C 
HETATM   29  N   UNK N   1       2.047  -3.447  -0.556  0.00  0.00    -0.345 N 
HETATM   30  C   UNK N   1      -1.850  -1.078  -0.238  0.00  0.00     0.210 C 
HETATM   31  C   UNK N   1       0.394  -1.919   0.547  0.00  0.00     0.241 C 
HETATM   32  C   UNK N   1       1.334  -3.104   0.657  0.00  0.00     0.185 C 
HETATM   33  O   UNK N   1       3.795  -3.513  -1.916  0.00  0.00    -0.271 OA
HETATM   34  O   UNK N   1      -2.225  -1.059   2.105  0.00  0.00    -0.271 OA
HETATM   35  O   UNK N   1       0.543  -0.984   1.316  0.00  0.00    -0.271 OA
HETATM   36  C   UNK N   1      -7.433  -1.015   0.125  0.00  0.00     0.210 C 
HETATM   37  N   UNK N   1      -4.038  -1.505   0.887  0.00  0.00    -0.342 N 
HETATM   38  C   UNK N   1      -4.618  -1.975  -0.349  0.00  0.00     0.210 C 
HETATM   39  O   UNK N   1      -8.886  -2.203  -1.246  0.00  0.00    -0.271 OA
HETATM   40  N   UNK N   1      -6.657  -0.629  -1.034  0.00  0.00    -0.343 N 
HETATM   41  C   UNK N   1      -5.379  -1.026  -1.261  0.00  0.00     0.245 C 
HETATM   42  O   UNK N   1      -4.812  -0.618  -2.263  0.00  0.00    -0.271 OA
HETATM   43  C   UNK N   1      -9.264  -4.146   0.589  0.00  0.00     0.217 C 
HETATM   44  N   UNK N   1      -8.342  -3.099   0.730  0.00  0.00    -0.341 N 
HETATM   45  C   UNK N   1      -8.243  -2.153  -0.204  0.00  0.00     0.244 C 
HETATM   46  C   UNK N   1      -6.152  -5.454   0.324  0.00  0.00     0.011 A 
HETATM   47  C   UNK N   1      -4.879  -6.157   0.331  0.00  0.00     0.076 A 
HETATM   48  C   UNK N   1      -4.816  -3.444  -0.258  0.00  0.00    -0.025 A 
HETATM   49  C   UNK N   1      -6.050  -4.076   0.004  0.00  0.00     0.025 A 
HETATM   50  C   UNK N   1      -3.683  -5.504   0.076  0.00  0.00     0.038 A 
HETATM   51  C   UNK N   1      -3.648  -4.172  -0.208  0.00  0.00     0.012 A 
HETATM   52  C   UNK N   1      -8.831  -5.503   0.079  0.00  0.00    -0.009 C 
HETATM   53  C   UNK N   1      -9.927  -6.261  -0.319  0.00  0.00     0.048 C 
HETATM   54  C   UNK N   1      -8.845  -8.281   0.264  0.00  0.00     0.026 C 
HETATM   55  C   UNK N   1      -7.565  -6.158   0.379  0.00  0.00     0.020 C 
HETATM   56  C   UNK N   1      -9.917  -7.624  -0.311  0.00  0.00     0.076 C 
HETATM   57  C   UNK N   1      -7.691  -7.564   0.634  0.00  0.00     0.088 C 
HETATM   58  H   UNK N   1      -0.673  -2.650  -0.991  0.00  0.00     0.163 HD
HETATM   59  H   UNK N   1       1.596  -4.072  -1.169  0.00  0.00     0.163 HD
HETATM   60  H   UNK N   1      -4.622  -1.345   1.663  0.00  0.00     0.163 HD
HETATM   61  H   UNK N   1      -7.083  -0.041  -1.699  0.00  0.00     0.163 HD
HETATM   62  H   UNK N   1      -7.762  -3.063   1.525  0.00  0.00     0.163 HD
ENDROOT
BRANCH   1  63
HETATM   63  O   UNK N   1      -1.762   4.607  -0.837  0.00  0.00    -0.312 OA
BRANCH  63  64
HETATM   64  C   UNK N   1      -2.844   5.468  -0.654  0.00  0.00     0.298 C 
HETATM   65  C   UNK N   1      -3.096   5.606   0.862  0.00  0.00     0.211 C 
HETATM   66  C   UNK N   1      -4.450   6.209   1.221  0.00  0.00     0.183 C 
HETATM   67  C   UNK N   1      -5.535   5.644   0.331  0.00  0.00     0.180 C 
HETATM   68  C   UNK N   1      -5.133   5.848  -1.150  0.00  0.00     0.179 C 
HETATM   69  O   UNK N   1      -3.954   5.122  -1.471  0.00  0.00    -0.348 OA
BRANCH  65  70
HETATM   70  O   UNK N   1      -2.008   6.292   1.471  0.00  0.00    -0.348 OA
BRANCH  70  71
HETATM   71  C   UNK N   1      -2.034   7.664   1.101  0.00  0.00     0.263 C 
HETATM   72  C   UNK N   1      -0.870   8.477   1.712  0.00  0.00     0.093 C 
HETATM   73  C   UNK N   1      -0.243   9.435   0.656  0.00  0.00     0.054 C 
HETATM   74  C   UNK N   1       0.550  10.536   1.362  0.00  0.00     0.041 C 
HETATM   75  C   UNK N   1      -1.348  10.096  -0.237  0.00  0.00     0.174 C 
HETATM   76  C   UNK N   1      -2.515   9.135  -0.451  0.00  0.00     0.151 C 
HETATM   77  O   UNK N   1      -2.058   7.837  -0.297  0.00  0.00    -0.354 OA
HETATM   78  C   UNK N   1      -3.238   9.321  -1.769  0.00  0.00     0.042 C 
BRANCH  73  79
HETATM   79  N   UNK N   1       0.625   8.641  -0.241  0.00  0.00    -0.409 N 
HETATM   80  H   UNK N   1       0.308   8.271  -1.137  0.00  0.00     0.154 HD
BRANCH  79  81
HETATM   81  C   UNK N   1       1.984   8.432   0.275  0.00  0.00     0.134 C 
BRANCH  81  82
HETATM   82  C   UNK N   1       2.035   7.322   1.316  0.00  0.00     0.133 C 
BRANCH  82  83
HETATM   83  N   UNK N   1       1.891   6.020   0.684  0.00  0.00    -0.420 N 
HETATM   84  H   UNK N   1       1.014   5.536   0.490  0.00  0.00     0.153 HD
BRANCH  83  85
HETATM   85  C   UNK N   1       3.227   5.533   0.377  0.00  0.00     0.113 C 
BRANCH  85  86
HETATM   86  C   UNK N   1       3.618   5.964  -1.028  0.00  0.00     0.019 C 
BRANCH  86  87
HETATM   87  C   UNK N   1       5.126   6.084  -1.161  0.00  0.00     0.002 C 
BRANCH  87  88
HETATM   88  C   UNK N   1       5.641   7.253  -0.335  0.00  0.00     0.000 C 
BRANCH  88  89
HETATM   89  C   UNK N   1       6.230   6.743   0.971  0.00  0.00     0.000 C 
BRANCH  89  90
HETATM   90  C   UNK N   1       7.746   6.759   0.905  0.00  0.00     0.000 C 
BRANCH  90  91
HETATM   91  C   UNK N   1       8.261   5.697  -0.054  0.00  0.00     0.000 C 
BRANCH  91  92
HETATM   92  C   UNK N   1       9.590   6.133  -0.642  0.00  0.00    -0.000 C 
BRANCH  92  93
HETATM   93  C   UNK N   1      10.693   6.025   0.392  0.00  0.00    -0.005 C 
HETATM   94  C   UNK N   1      11.930   6.732  -0.121  0.00  0.00     0.005 C 
ENDBRANCH  92  93
ENDBRANCH  91  92
ENDBRANCH  90  91
ENDBRANCH  89  90
ENDBRANCH  88  89
ENDBRANCH  87  88
ENDBRANCH  86  87
ENDBRANCH  85  86
ENDBRANCH  83  85
ENDBRANCH  82  83
ENDBRANCH  81  82
ENDBRANCH  79  81
ENDBRANCH  73  79
BRANCH  75  95
HETATM   95  O   UNK N   1      -1.865  11.267   0.321  0.00  0.00    -0.391 OA
HETATM   96  H   UNK N   1      -1.340  11.984   0.708  0.00  0.00     0.210 HD
ENDBRANCH  75  95
ENDBRANCH  70  71
ENDBRANCH  65  70
BRANCH  66  97
HETATM   97  O   UNK N   1      -4.737   5.937   2.561  0.00  0.00    -0.390 OA
HETATM   98  H   UNK N   1      -5.001   6.016   3.491  0.00  0.00     0.210 HD
ENDBRANCH  66  97
BRANCH  67  99
HETATM   99  O   UNK N   1      -6.736   6.289   0.636  0.00  0.00    -0.390 OA
HETATM  100  H   UNK N   1      -6.765   7.235   0.848  0.00  0.00     0.210 HD
ENDBRANCH  67  99
BRANCH  68 101
HETATM  101  C   UNK N   1      -6.215   5.320  -2.105  0.00  0.00     0.198 C 
BRANCH 101 102
HETATM  102  O   UNK N   1      -7.495   5.784  -1.795  0.00  0.00    -0.398 OA
HETATM  103  H   UNK N   1      -7.660   6.715  -1.580  0.00  0.00     0.209 HD
ENDBRANCH 101 102
ENDBRANCH  68 101
ENDBRANCH  63  64
ENDBRANCH   1  63
BRANCH  10 104
HETATM  104  O   UNK N   1       5.839  -0.495  -1.217  0.00  0.00    -0.388 OA
HETATM  105  H   UNK N   1       6.422  -1.267  -1.285  0.00  0.00     0.210 HD
ENDBRANCH  10 104
BRANCH  32 106
HETATM  106  C   UNK N   1       0.553  -4.337   1.168  0.00  0.00     0.137 C 
BRANCH 106 107
HETATM  107  C   UNK N   1       0.037  -5.275   0.098  0.00  0.00     0.217 C 
HETATM  108  O   UNK N   1       0.267  -6.470   0.182  0.00  0.00    -0.274 OA
HETATM  109  N   UNK N   1      -0.671  -4.807  -0.949  0.00  0.00    -0.370 N 
HETATM  110  H   UNK N   1      -0.633  -4.188  -1.714  0.00  0.00     0.159 HD
HETATM  111  H   UNK N   1      -1.551  -5.247  -0.949  0.00  0.00     0.159 HD
ENDBRANCH 106 107
ENDBRANCH  32 106
BRANCH   9 112
HETATM  112  O   UNK N   1      -8.929  -0.295   1.895  0.00  0.00    -0.388 OA
HETATM  113  H   UNK N   1      -9.348  -0.094   2.746  0.00  0.00     0.210 HD
ENDBRANCH   9 112
BRANCH  25 114
HETATM  114  N   UNK N   1       4.316  -1.901   1.141  0.00  0.00    -0.343 N 
HETATM  115  C   UNK N   1       5.552  -2.136   1.663  0.00  0.00     0.240 C 
HETATM  116  O   UNK N   1       5.713  -2.001   2.864  0.00  0.00    -0.271 OA
HETATM  117  H   UNK N   1       3.577  -1.744   1.773  0.00  0.00     0.163 HD
BRANCH 115 118
HETATM  118  C   UNK N   1       6.741  -2.588   0.834  0.00  0.00     0.169 C 
BRANCH 118 119
HETATM  119  C   UNK N   1       7.725  -1.449   0.566  0.00  0.00     0.038 C 
BRANCH 119 120
HETATM  120  C   UNK N   1       8.903  -1.902  -0.288  0.00  0.00    -0.020 C 
HETATM  121  C   UNK N   1       9.763  -2.895   0.469  0.00  0.00     0.009 C 
HETATM  122  C   UNK N   1       9.742  -0.703  -0.678  0.00  0.00     0.009 C 
ENDBRANCH 119 120
ENDBRANCH 118 119
BRANCH 118 123
HETATM  123  N   UNK N   1       6.382  -3.306  -0.382  0.00  0.00    -0.413 N 
HETATM  124  C   UNK N   1       6.171  -4.696  -0.014  0.00  0.00     0.140 C 
HETATM  125  H   UNK N   1       6.294  -2.907  -1.317  0.00  0.00     0.153 HD
ENDBRANCH 118 123
ENDBRANCH 115 118
ENDBRANCH  25 114
BRANCH  47 126
HETATM  126  O   UNK N   1      -4.748  -7.462   0.502  0.00  0.00    -0.360 OA
HETATM  127  H   UNK N   1      -5.502  -8.004   0.623  0.00  0.00     0.217 HD
ENDBRANCH  47 126
BRANCH  43 128
HETATM  128  C   UNK N   1     -10.723  -3.705   0.645  0.00  0.00     0.168 C 
HETATM  129  O   UNK N   1     -11.024  -2.536   0.457  0.00  0.00    -0.648 OA
BRANCH 128 130
HETATM  130  O   UNK N   1     -11.684  -4.575   1.009  0.00  0.00    -0.775 OA
HETATM  131  H   UNK N   1     -12.542  -4.299   1.263  0.00  0.00     0.167 HD
ENDBRANCH 128 130
ENDBRANCH  43 128
BRANCH  57 132
HETATM  132  O   UNK N   1      -6.742  -8.248   1.273  0.00  0.00    -0.359 OA
HETATM  133  H   UNK N   1      -6.825  -9.067   1.722  0.00  0.00     0.217 HD
ENDBRANCH  57 132
BRANCH  54 134
HETATM  134  C   UNK N   1      -8.932  -9.779   0.452  0.00  0.00     0.159 C 
BRANCH 134 135
HETATM  135  N   UNK N   1      -7.697 -10.508   0.143  0.00  0.00    -0.407 N 
HETATM  136  H   UNK N   1      -7.317 -11.263   0.714  0.00  0.00     0.154 HD
BRANCH 135 137
HETATM  137  C   UNK N   1      -7.081 -10.018  -1.084  0.00  0.00     0.239 C 
BRANCH 137 138
HETATM  138  P   UNK N   1      -5.250 -10.340  -1.017  0.00  0.00     0.253 P 
HETATM  139  O   UNK N   1      -4.975 -11.837  -1.303  0.00  0.00    -0.652 OA
BRANCH 138 140
HETATM  140  O   UNK N   1      -4.321  -9.503  -2.220  0.00  0.00    -0.328 OA
HETATM  141  H   UNK N   1      -3.656  -9.718  -2.892  0.00  0.00     0.220 HD
ENDBRANCH 138 140
BRANCH 138 142
HETATM  142  O   UNK N   1      -4.476 -10.079   0.516  0.00  0.00    -0.328 OA
HETATM  143  H   UNK N   1      -4.133 -10.381   1.372  0.00  0.00     0.220 HD
ENDBRANCH 138 142
ENDBRANCH 137 138
ENDBRANCH 135 137
ENDBRANCH 134 135
ENDBRANCH  54 134
BRANCH  56 144
HETATM  144  O   UNK N   1     -10.995  -8.293  -0.752  0.00  0.00    -0.360 OA
HETATM  145  H   UNK N   1     -11.775  -7.876  -1.059  0.00  0.00     0.217 HD
ENDBRANCH  56 144
TORSDOF 42
