REMARK  10 active torsions:
REMARK  status: ('A' for Active; 'I' for Inactive)
REMARK    1  A    between atoms: C_8  and  C_4 
REMARK    2  A    between atoms: C_8  and  C_5 
REMARK    3  A    between atoms: O_22  and  C_7 
REMARK    4  A    between atoms: C_12  and  C_8 
REMARK    5  A    between atoms: C_9  and  C_14 
REMARK    6  A    between atoms: C_10  and  N_21 
REMARK    7  A    between atoms: C_11  and  C_12 
REMARK    8  A    between atoms: C_12  and  N_19 
REMARK    9  A    between atoms: C_13  and  O_23 
REMARK   10  A    between atoms: O_25  and  C_14 
REMARK       I    between atoms: N_18  and  C_15 
REMARK       I    between atoms: N_21  and  C_15 
ROOT
HETATM    1  C   UNK N   1       2.042   1.370   0.212  0.00  0.00     0.044 C 
HETATM    2  C   UNK N   1       0.942   2.319  -0.203  0.00  0.00     0.114 C 
HETATM    3  C   UNK N   1       1.632   0.033  -0.427  0.00  0.00     0.108 C 
HETATM    4  C   UNK N   1       0.075   0.135  -0.626  0.00  0.00     0.061 C 
HETATM    5  C   UNK N   1      -0.308   1.469   0.033  0.00  0.00     0.140 C 
ENDROOT
BRANCH   4   6
HETATM    6  C   UNK N   1      -0.879  -1.120  -0.445  0.00  0.00     0.095 C 
BRANCH   6   7
HETATM    7  C   UNK N   1      -2.289  -0.783   0.111  0.00  0.00     0.008 C 
BRANCH   7   8
HETATM    8  C   UNK N   1      -3.120  -2.064   0.274  0.00  0.00     0.002 C 
HETATM    9  C   UNK N   1      -4.308  -1.871   1.199  0.00  0.00     0.005 C 
ENDBRANCH   7   8
BRANCH   7  10
HETATM   10  C   UNK N   1      -3.053   0.218  -0.747  0.00  0.00     0.002 C 
HETATM   11  C   UNK N   1      -4.017   1.015   0.118  0.00  0.00     0.005 C 
ENDBRANCH   7  10
ENDBRANCH   6   7
BRANCH   6  12
HETATM   12  N   UNK N   1      -0.297  -2.116   0.444  0.00  0.00    -0.369 N 
HETATM   13  C   UNK N   1      -0.104  -3.352   0.109  0.00  0.00     0.107 C 
HETATM   14  C   UNK N   1       0.518  -4.290   1.082  0.00  0.00     0.097 C 
ATOM     15  HN  UNK N   1      -0.026  -1.824   1.383  1.00  0.00     0.161 HD
BRANCH  13  16
HETATM   16  O   UNK N   1      -0.472  -3.817  -1.105  0.00  0.00    -0.350 OA
HETATM   17  H   UNK N   1      -0.879  -3.756  -1.947  0.00  0.00     0.219 HD
ENDBRANCH  13  16
ENDBRANCH   6  12
ENDBRANCH   4   6
BRANCH   3  18
HETATM   18  N   UNK N   1       2.084  -1.067   0.401  0.00  0.00    -0.222 N 
HETATM   19  C   UNK N   1       3.462  -1.351   0.629  0.00  0.00     0.665 C 
HETATM   20  N   UNK N   1       4.376  -0.574   0.179  0.00  0.00    -0.235 N 
HETATM   21  N   UNK N   1       3.826  -2.554   1.273  0.00  0.00    -0.235 N 
HETATM   22  H   UNK N   1       5.244  -0.884  -0.166  0.00  0.00     0.174 HD
ATOM     23  HN  UNK N   1       4.193   0.429   0.179  1.00  0.00     0.174 HD
HETATM   24  H   UNK N   1       3.227  -3.193   1.722  0.00  0.00     0.174 HD
HETATM   25  H   UNK N   1       4.785  -2.778   1.273  0.00  0.00     0.174 HD
HETATM   26  H   UNK N   1       1.409  -1.644   0.825  0.00  0.00     0.178 HD
ENDBRANCH   3  18
BRANCH   5  27
HETATM   27  O   UNK N   1      -0.531   1.286   1.403  0.00  0.00    -0.394 OA
HETATM   28  H   UNK N   1      -0.717   1.357   2.352  0.00  0.00     0.210 HD
ENDBRANCH   5  27
BRANCH   2  29
HETATM   29  C   UNK N   1       0.962   3.648   0.510  0.00  0.00     0.146 C 
HETATM   30  O   UNK N   1      -0.021   4.048   1.114  0.00  0.00    -0.650 OA
BRANCH  29  31
HETATM   31  O   UNK N   1       2.060   4.425   0.443  0.00  0.00    -0.776 OA
HETATM   32  H   UNK N   1       2.910   4.033   0.397  0.00  0.00     0.167 HD
ENDBRANCH  29  31
ENDBRANCH   2  29
TORSDOF 10
