MODEL 1
REMARK VINA RESULT:      -6.5      0.000      0.000
REMARK  8 active torsions:
REMARK  status: ('A' for Active; 'I' for Inactive)
REMARK    1  A    between atoms: C_2  and  O_7 
REMARK    2  A    between atoms: C_3  and  O_9 
REMARK    3  A    between atoms: C_5  and  C_11 
REMARK    4  A    between atoms: C_11  and  C_12 
REMARK    5  A    between atoms: C_12  and  O_13 
REMARK    6  A    between atoms: C_14  and  O_13 
REMARK    7  A    between atoms: C_19  and  N_20 
REMARK    8  A    between atoms: C_23  and  O_25 
ROOT
HETATM    1  C   UNK N   1      31.919  17.031   7.720  0.00  0.00     0.154 C 
HETATM    2  C   UNK N   1      34.313  16.644   7.054  0.00  0.00     0.038 C 
HETATM    3  C   UNK N   1      33.888  16.590   5.591  0.00  0.00     0.002 C 
HETATM    4  C   UNK N   1      32.688  17.497   5.379  0.00  0.00     0.003 C 
HETATM    5  C   UNK N   1      31.536  17.005   6.239  0.00  0.00     0.034 C 
HETATM    6  C   UNK N   1      33.186  16.174   7.992  0.00  0.00     0.251 C 
ENDROOT
BRANCH   1   7
HETATM    7  O   UNK N   1      30.836  16.550   8.457  0.00  0.00    -0.383 OA
BRANCH   7   8
HETATM    8  C   UNK N   1      30.279  17.660   9.097  0.00  0.00     0.172 C 
BRANCH   8   9
HETATM    9  C   UNK N   1      28.768  17.520   9.053  0.00  0.00     0.065 C 
BRANCH   9  10
HETATM   10  C   UNK N   1      28.176  17.758   7.699  0.00  0.00    -0.053 A 
HETATM   11  C   UNK N   1      28.178  19.056   7.194  0.00  0.00     0.046 A 
HETATM   12  C   UNK N   1      27.598  19.353   5.948  0.00  0.00     0.102 A 
HETATM   13  C   UNK N   1      27.001  18.305   5.194  0.00  0.00     0.101 A 
HETATM   14  C   UNK N   1      27.002  17.005   5.719  0.00  0.00     0.040 A 
HETATM   15  C   UNK N   1      27.575  16.731   6.963  0.00  0.00     0.010 A 
BRANCH  12  16
HETATM   16  O   UNK N   1      27.605  20.625   5.478  0.00  0.00    -0.353 OA
HETATM   17  C   UNK N   1      26.977  21.673   6.115  0.00  0.00     0.210 C 
ENDBRANCH  12  16
BRANCH  13  18
HETATM   18  O   UNK N   1      26.416  18.492   3.982  0.00  0.00    -0.353 OA
HETATM   19  C   UNK N   1      25.079  18.735   3.767  0.00  0.00     0.210 C 
ENDBRANCH  13  18
ENDBRANCH   9  10
ENDBRANCH   8   9
ENDBRANCH   7   8
ENDBRANCH   1   7
BRANCH   6  20
HETATM   20  N   UNK N   1      33.635  16.298   9.393  0.00  0.00     0.098 N 
HETATM   21  C   UNK N   1      33.635  15.009  10.084  0.00  0.00     0.275 C 
HETATM   22  C   UNK N   1      34.766  15.029  11.101  0.00  0.00     0.064 C 
HETATM   23  C   UNK N   1      35.463  16.341  10.859  0.00  0.00     0.148 C 
HETATM   24  C   UNK N   1      35.032  16.707   9.464  0.00  0.00     0.304 C 
BRANCH  23  25
HETATM   25  O   UNK N   1      36.847  16.182  10.928  0.00  0.00    -0.394 OA
HETATM   26  H   UNK N   1      37.369  15.482  11.351  0.00  0.00     0.210 HD
ENDBRANCH  23  25
ENDBRANCH   6  20
TORSDOF 8
ENDMDL
MODEL 2
REMARK VINA RESULT:      -6.5      2.564      6.688
REMARK  8 active torsions:
REMARK  status: ('A' for Active; 'I' for Inactive)
REMARK    1  A    between atoms: C_2  and  O_7 
REMARK    2  A    between atoms: C_3  and  O_9 
REMARK    3  A    between atoms: C_5  and  C_11 
REMARK    4  A    between atoms: C_11  and  C_12 
REMARK    5  A    between atoms: C_12  and  O_13 
REMARK    6  A    between atoms: C_14  and  O_13 
REMARK    7  A    between atoms: C_19  and  N_20 
REMARK    8  A    between atoms: C_23  and  O_25 
ROOT
HETATM    1  C   UNK N   1      27.576  17.589   5.009  0.00  0.00     0.154 C 
HETATM    2  C   UNK N   1      27.710  19.747   6.294  0.00  0.00     0.038 C 
HETATM    3  C   UNK N   1      27.317  20.511   5.035  0.00  0.00     0.002 C 
HETATM    4  C   UNK N   1      26.405  19.646   4.182  0.00  0.00     0.003 C 
HETATM    5  C   UNK N   1      27.151  18.388   3.775  0.00  0.00     0.034 C 
HETATM    6  C   UNK N   1      28.460  18.444   5.959  0.00  0.00     0.251 C 
ENDROOT
BRANCH   1   7
HETATM    7  O   UNK N   1      28.275  16.461   4.576  0.00  0.00    -0.383 OA
BRANCH   7   8
HETATM    8  C   UNK N   1      28.822  16.797   3.336  0.00  0.00     0.172 C 
BRANCH   8   9
HETATM    9  C   UNK N   1      30.002  15.876   3.076  0.00  0.00     0.065 C 
BRANCH   9  10
HETATM   10  C   UNK N   1      31.205  16.181   3.912  0.00  0.00    -0.053 A 
HETATM   11  C   UNK N   1      31.690  15.191   4.763  0.00  0.00     0.046 A 
HETATM   12  C   UNK N   1      32.790  15.430   5.605  0.00  0.00     0.102 A 
HETATM   13  C   UNK N   1      33.415  16.707   5.584  0.00  0.00     0.101 A 
HETATM   14  C   UNK N   1      32.911  17.696   4.726  0.00  0.00     0.040 A 
HETATM   15  C   UNK N   1      31.812  17.442   3.903  0.00  0.00     0.010 A 
BRANCH  12  16
HETATM   16  O   UNK N   1      33.241  14.453   6.431  0.00  0.00    -0.353 OA
HETATM   17  C   UNK N   1      32.731  14.230   7.692  0.00  0.00     0.210 C 
ENDBRANCH  12  16
BRANCH  13  18
HETATM   18  O   UNK N   1      34.481  17.034   6.360  0.00  0.00    -0.353 OA
HETATM   19  C   UNK N   1      34.418  17.640   7.594  0.00  0.00     0.210 C 
ENDBRANCH  13  18
ENDBRANCH   9  10
ENDBRANCH   8   9
ENDBRANCH   7   8
ENDBRANCH   1   7
BRANCH   6  20
HETATM   20  N   UNK N   1      28.766  17.723   7.210  0.00  0.00     0.098 N 
HETATM   21  C   UNK N   1      30.176  17.343   7.293  0.00  0.00     0.275 C 
HETATM   22  C   UNK N   1      30.580  17.375   8.758  0.00  0.00     0.064 C 
HETATM   23  C   UNK N   1      29.363  17.903   9.470  0.00  0.00     0.148 C 
HETATM   24  C   UNK N   1      28.592  18.586   8.372  0.00  0.00     0.304 C 
BRANCH  23  25
HETATM   25  O   UNK N   1      29.729  18.812  10.463  0.00  0.00    -0.394 OA
HETATM   26  H   UNK N   1      30.581  19.249  10.617  0.00  0.00     0.210 HD
ENDBRANCH  23  25
ENDBRANCH   6  20
TORSDOF 8
ENDMDL
MODEL 3
REMARK VINA RESULT:      -6.4      2.762      4.853
REMARK  8 active torsions:
REMARK  status: ('A' for Active; 'I' for Inactive)
REMARK    1  A    between atoms: C_2  and  O_7 
REMARK    2  A    between atoms: C_3  and  O_9 
REMARK    3  A    between atoms: C_5  and  C_11 
REMARK    4  A    between atoms: C_11  and  C_12 
REMARK    5  A    between atoms: C_12  and  O_13 
REMARK    6  A    between atoms: C_14  and  O_13 
REMARK    7  A    between atoms: C_19  and  N_20 
REMARK    8  A    between atoms: C_23  and  O_25 
ROOT
HETATM    1  C   UNK N   1      28.944  17.037   7.092  0.00  0.00     0.154 C 
HETATM    2  C   UNK N   1      30.938  17.829   8.405  0.00  0.00     0.038 C 
HETATM    3  C   UNK N   1      30.013  18.645   9.301  0.00  0.00     0.002 C 
HETATM    4  C   UNK N   1      28.670  17.944   9.414  0.00  0.00     0.003 C 
HETATM    5  C   UNK N   1      28.045  17.842   8.033  0.00  0.00     0.034 C 
HETATM    6  C   UNK N   1      30.360  17.668   6.986  0.00  0.00     0.251 C 
ENDROOT
BRANCH   1   7
HETATM    7  O   UNK N   1      28.333  16.996   5.838  0.00  0.00    -0.383 OA
BRANCH   7   8
HETATM    8  C   UNK N   1      27.787  18.265   5.632  0.00  0.00     0.172 C 
BRANCH   8   9
HETATM    9  C   UNK N   1      27.517  18.427   4.146  0.00  0.00     0.065 C 
BRANCH   9  10
HETATM   10  C   UNK N   1      26.217  19.101   3.836  0.00  0.00    -0.053 A 
HETATM   11  C   UNK N   1      25.039  18.504   4.276  0.00  0.00     0.046 A 
HETATM   12  C   UNK N   1      23.784  19.065   3.979  0.00  0.00     0.102 A 
HETATM   13  C   UNK N   1      23.723  20.264   3.217  0.00  0.00     0.101 A 
HETATM   14  C   UNK N   1      24.918  20.850   2.776  0.00  0.00     0.040 A 
HETATM   15  C   UNK N   1      26.155  20.273   3.074  0.00  0.00     0.010 A 
BRANCH  12  16
HETATM   16  O   UNK N   1      22.648  18.462   4.411  0.00  0.00    -0.353 OA
HETATM   17  C   UNK N   1      22.502  17.940   5.678  0.00  0.00     0.210 C 
ENDBRANCH  12  16
BRANCH  13  18
HETATM   18  O   UNK N   1      22.560  20.880   2.879  0.00  0.00    -0.353 OA
HETATM   19  C   UNK N   1      21.632  20.403   1.982  0.00  0.00     0.210 C 
ENDBRANCH  13  18
ENDBRANCH   9  10
ENDBRANCH   8   9
ENDBRANCH   7   8
ENDBRANCH   1   7
BRANCH   6  20
HETATM   20  N   UNK N   1      31.270  16.827   6.183  0.00  0.00     0.098 N 
HETATM   21  C   UNK N   1      31.584  17.439   4.892  0.00  0.00     0.275 C 
HETATM   22  C   UNK N   1      32.999  17.028   4.516  0.00  0.00     0.064 C 
HETATM   23  C   UNK N   1      33.495  16.258   5.712  0.00  0.00     0.148 C 
HETATM   24  C   UNK N   1      32.578  16.712   6.817  0.00  0.00     0.304 C 
BRANCH  23  25
HETATM   25  O   UNK N   1      34.820  16.590   5.995  0.00  0.00    -0.394 OA
HETATM   26  H   UNK N   1      35.485  16.099   6.502  0.00  0.00     0.210 HD
ENDBRANCH  23  25
ENDBRANCH   6  20
TORSDOF 8
ENDMDL
MODEL 4
REMARK VINA RESULT:      -6.3      2.795      7.092
REMARK  8 active torsions:
REMARK  status: ('A' for Active; 'I' for Inactive)
REMARK    1  A    between atoms: C_2  and  O_7 
REMARK    2  A    between atoms: C_3  and  O_9 
REMARK    3  A    between atoms: C_5  and  C_11 
REMARK    4  A    between atoms: C_11  and  C_12 
REMARK    5  A    between atoms: C_12  and  O_13 
REMARK    6  A    between atoms: C_14  and  O_13 
REMARK    7  A    between atoms: C_19  and  N_20 
REMARK    8  A    between atoms: C_23  and  O_25 
ROOT
HETATM    1  C   UNK N   1      28.052  19.110   6.523  0.00  0.00     0.154 C 
HETATM    2  C   UNK N   1      27.299  19.423   4.143  0.00  0.00     0.038 C 
HETATM    3  C   UNK N   1      26.501  20.650   4.566  0.00  0.00     0.002 C 
HETATM    4  C   UNK N   1      27.199  21.331   5.731  0.00  0.00     0.003 C 
HETATM    5  C   UNK N   1      27.266  20.366   6.902  0.00  0.00     0.034 C 
HETATM    6  C   UNK N   1      27.425  18.402   5.290  0.00  0.00     0.251 C 
ENDROOT
BRANCH   1   7
HETATM    7  O   UNK N   1      28.062  18.254   7.624  0.00  0.00    -0.383 OA
BRANCH   7   8
HETATM    8  C   UNK N   1      29.295  18.445   8.253  0.00  0.00     0.172 C 
BRANCH   8   9
HETATM    9  C   UNK N   1      29.876  17.080   8.575  0.00  0.00     0.065 C 
BRANCH   9  10
HETATM   10  C   UNK N   1      31.099  16.739   7.782  0.00  0.00    -0.053 A 
HETATM   11  C   UNK N   1      32.190  17.604   7.842  0.00  0.00     0.046 A 
HETATM   12  C   UNK N   1      33.351  17.364   7.086  0.00  0.00     0.102 A 
HETATM   13  C   UNK N   1      33.408  16.215   6.249  0.00  0.00     0.101 A 
HETATM   14  C   UNK N   1      32.300  15.358   6.196  0.00  0.00     0.040 A 
HETATM   15  C   UNK N   1      31.152  15.618   6.947  0.00  0.00     0.010 A 
BRANCH  12  16
HETATM   16  O   UNK N   1      34.399  18.222   7.154  0.00  0.00    -0.353 OA
HETATM   17  C   UNK N   1      34.905  18.709   8.340  0.00  0.00     0.210 C 
ENDBRANCH  12  16
BRANCH  13  18
HETATM   18  O   UNK N   1      34.485  15.899   5.483  0.00  0.00    -0.353 OA
HETATM   19  C   UNK N   1      35.458  14.982   5.809  0.00  0.00     0.210 C 
ENDBRANCH  13  18
ENDBRANCH   9  10
ENDBRANCH   8   9
ENDBRANCH   7   8
ENDBRANCH   1   7
BRANCH   6  20
HETATM   20  N   UNK N   1      28.251  17.264   4.840  0.00  0.00     0.098 N 
HETATM   21  C   UNK N   1      27.713  16.640   3.631  0.00  0.00     0.275 C 
HETATM   22  C   UNK N   1      28.885  16.112   2.820  0.00  0.00     0.064 C 
HETATM   23  C   UNK N   1      30.102  16.575   3.576  0.00  0.00     0.148 C 
HETATM   24  C   UNK N   1      29.574  17.707   4.416  0.00  0.00     0.304 C 
BRANCH  23  25
HETATM   25  O   UNK N   1      31.086  17.024   2.696  0.00  0.00    -0.394 OA
HETATM   26  H   UNK N   1      31.851  16.551   2.331  0.00  0.00     0.210 HD
ENDBRANCH  23  25
ENDBRANCH   6  20
TORSDOF 8
ENDMDL
MODEL 5
REMARK VINA RESULT:      -6.3      7.835     11.683
REMARK  8 active torsions:
REMARK  status: ('A' for Active; 'I' for Inactive)
REMARK    1  A    between atoms: C_2  and  O_7 
REMARK    2  A    between atoms: C_3  and  O_9 
REMARK    3  A    between atoms: C_5  and  C_11 
REMARK    4  A    between atoms: C_11  and  C_12 
REMARK    5  A    between atoms: C_12  and  O_13 
REMARK    6  A    between atoms: C_14  and  O_13 
REMARK    7  A    between atoms: C_19  and  N_20 
REMARK    8  A    between atoms: C_23  and  O_25 
ROOT
HETATM    1  C   UNK N   1      22.168  16.624   5.601  0.00  0.00     0.154 C 
HETATM    2  C   UNK N   1      23.362  18.093   3.945  0.00  0.00     0.038 C 
HETATM    3  C   UNK N   1      24.698  17.548   4.437  0.00  0.00     0.002 C 
HETATM    4  C   UNK N   1      24.520  16.111   4.896  0.00  0.00     0.003 C 
HETATM    5  C   UNK N   1      23.527  16.076   6.045  0.00  0.00     0.034 C 
HETATM    6  C   UNK N   1      22.294  18.073   5.055  0.00  0.00     0.251 C 
ENDROOT
BRANCH   1   7
HETATM    7  O   UNK N   1      21.307  16.589   6.699  0.00  0.00    -0.383 OA
BRANCH   7   8
HETATM    8  C   UNK N   1      20.919  15.255   6.843  0.00  0.00     0.172 C 
BRANCH   8   9
HETATM    9  C   UNK N   1      20.239  15.105   8.194  0.00  0.00     0.065 C 
BRANCH   9  10
HETATM   10  C   UNK N   1      20.963  14.199   9.139  0.00  0.00    -0.053 A 
HETATM   11  C   UNK N   1      22.330  14.004   8.955  0.00  0.00     0.046 A 
HETATM   12  C   UNK N   1      23.058  13.131   9.783  0.00  0.00     0.102 A 
HETATM   13  C   UNK N   1      22.382  12.438  10.825  0.00  0.00     0.101 A 
HETATM   14  C   UNK N   1      21.005  12.640  10.994  0.00  0.00     0.040 A 
HETATM   15  C   UNK N   1      20.297  13.506  10.156  0.00  0.00     0.010 A 
BRANCH  12  16
HETATM   16  O   UNK N   1      24.387  12.950   9.582  0.00  0.00    -0.353 OA
HETATM   17  C   UNK N   1      25.088  13.549   8.557  0.00  0.00     0.210 C 
ENDBRANCH  12  16
BRANCH  13  18
HETATM   18  O   UNK N   1      22.998  11.574  11.674  0.00  0.00    -0.353 OA
HETATM   19  C   UNK N   1      23.292  11.824  12.995  0.00  0.00     0.210 C 
ENDBRANCH  13  18
ENDBRANCH   9  10
ENDBRANCH   8   9
ENDBRANCH   7   8
ENDBRANCH   1   7
BRANCH   6  20
HETATM   20  N   UNK N   1      21.013  18.559   4.507  0.00  0.00     0.098 N 
HETATM   21  C   UNK N   1      21.194  19.724   3.642  0.00  0.00     0.275 C 
HETATM   22  C   UNK N   1      20.126  19.670   2.561  0.00  0.00     0.064 C 
HETATM   23  C   UNK N   1      19.420  18.361   2.798  0.00  0.00     0.148 C 
HETATM   24  C   UNK N   1      20.416  17.576   3.611  0.00  0.00     0.304 C 
BRANCH  23  25
HETATM   25  O   UNK N   1      19.150  17.722   1.588  0.00  0.00    -0.394 OA
HETATM   26  H   UNK N   1      19.077  16.775   1.392  0.00  0.00     0.210 HD
ENDBRANCH  23  25
ENDBRANCH   6  20
TORSDOF 8
ENDMDL
MODEL 6
REMARK VINA RESULT:      -6.2      2.458      7.505
REMARK  8 active torsions:
REMARK  status: ('A' for Active; 'I' for Inactive)
REMARK    1  A    between atoms: C_2  and  O_7 
REMARK    2  A    between atoms: C_3  and  O_9 
REMARK    3  A    between atoms: C_5  and  C_11 
REMARK    4  A    between atoms: C_11  and  C_12 
REMARK    5  A    between atoms: C_12  and  O_13 
REMARK    6  A    between atoms: C_14  and  O_13 
REMARK    7  A    between atoms: C_19  and  N_20 
REMARK    8  A    between atoms: C_23  and  O_25 
ROOT
HETATM    1  C   UNK N   1      28.605  16.388   3.650  0.00  0.00     0.154 C 
HETATM    2  C   UNK N   1      26.295  17.004   4.431  0.00  0.00     0.038 C 
HETATM    3  C   UNK N   1      25.712  15.917   3.535  0.00  0.00     0.002 C 
HETATM    4  C   UNK N   1      26.703  14.771   3.419  0.00  0.00     0.003 C 
HETATM    5  C   UNK N   1      27.985  15.285   2.789  0.00  0.00     0.034 C 
HETATM    6  C   UNK N   1      27.612  17.564   3.864  0.00  0.00     0.251 C 
ENDROOT
BRANCH   1   7
HETATM    7  O   UNK N   1      29.763  16.837   3.014  0.00  0.00    -0.383 OA
BRANCH   7   8
HETATM    8  C   UNK N   1      30.831  16.241   3.689  0.00  0.00     0.172 C 
BRANCH   8   9
HETATM    9  C   UNK N   1      31.862  17.317   3.983  0.00  0.00     0.065 C 
BRANCH   9  10
HETATM   10  C   UNK N   1      32.364  17.308   5.393  0.00  0.00    -0.053 A 
HETATM   11  C   UNK N   1      31.432  17.304   6.428  0.00  0.00     0.046 A 
HETATM   12  C   UNK N   1      31.838  17.340   7.773  0.00  0.00     0.102 A 
HETATM   13  C   UNK N   1      33.227  17.379   8.077  0.00  0.00     0.101 A 
HETATM   14  C   UNK N   1      34.153  17.388   7.024  0.00  0.00     0.040 A 
HETATM   15  C   UNK N   1      33.729  17.361   5.693  0.00  0.00     0.010 A 
BRANCH  12  16
HETATM   16  O   UNK N   1      30.914  17.342   8.766  0.00  0.00    -0.353 OA
HETATM   17  C   UNK N   1      30.311  18.488   9.237  0.00  0.00     0.210 C 
ENDBRANCH  12  16
BRANCH  13  18
HETATM   18  O   UNK N   1      33.717  17.415   9.344  0.00  0.00    -0.353 OA
HETATM   19  C   UNK N   1      34.884  16.821   9.768  0.00  0.00     0.210 C 
ENDBRANCH  13  18
ENDBRANCH   9  10
ENDBRANCH   8   9
ENDBRANCH   7   8
ENDBRANCH   1   7
BRANCH   6  20
HETATM   20  N   UNK N   1      28.156  18.570   4.797  0.00  0.00     0.098 N 
HETATM   21  C   UNK N   1      27.674  19.917   4.492  0.00  0.00     0.275 C 
HETATM   22  C   UNK N   1      27.568  20.680   5.804  0.00  0.00     0.064 C 
HETATM   23  C   UNK N   1      27.901  19.658   6.859  0.00  0.00     0.148 C 
HETATM   24  C   UNK N   1      27.668  18.349   6.154  0.00  0.00     0.304 C 
BRANCH  23  25
HETATM   25  O   UNK N   1      27.052  19.792   7.957  0.00  0.00    -0.394 OA
HETATM   26  H   UNK N   1      26.434  20.506   8.178  0.00  0.00     0.210 HD
ENDBRANCH  23  25
ENDBRANCH   6  20
TORSDOF 8
ENDMDL
MODEL 7
REMARK VINA RESULT:      -6.0      2.138      3.412
REMARK  8 active torsions:
REMARK  status: ('A' for Active; 'I' for Inactive)
REMARK    1  A    between atoms: C_2  and  O_7 
REMARK    2  A    between atoms: C_3  and  O_9 
REMARK    3  A    between atoms: C_5  and  C_11 
REMARK    4  A    between atoms: C_11  and  C_12 
REMARK    5  A    between atoms: C_12  and  O_13 
REMARK    6  A    between atoms: C_14  and  O_13 
REMARK    7  A    between atoms: C_19  and  N_20 
REMARK    8  A    between atoms: C_23  and  O_25 
ROOT
HETATM    1  C   UNK N   1      32.748  16.725   4.505  0.00  0.00     0.154 C 
HETATM    2  C   UNK N   1      34.116  15.045   5.784  0.00  0.00     0.038 C 
HETATM    3  C   UNK N   1      34.187  14.168   4.539  0.00  0.00     0.002 C 
HETATM    4  C   UNK N   1      34.169  15.046   3.299  0.00  0.00     0.003 C 
HETATM    5  C   UNK N   1      32.870  15.833   3.268  0.00  0.00     0.034 C 
HETATM    6  C   UNK N   1      32.828  15.890   5.813  0.00  0.00     0.251 C 
ENDROOT
BRANCH   1   7
HETATM    7  O   UNK N   1      31.531  17.403   4.433  0.00  0.00    -0.383 OA
BRANCH   7   8
HETATM    8  C   UNK N   1      30.636  16.527   3.815  0.00  0.00     0.172 C 
BRANCH   8   9
HETATM    9  C   UNK N   1      29.522  16.217   4.800  0.00  0.00     0.065 C 
BRANCH   9  10
HETATM   10  C   UNK N   1      28.911  17.431   5.426  0.00  0.00    -0.053 A 
HETATM   11  C   UNK N   1      28.908  17.532   6.815  0.00  0.00     0.046 A 
HETATM   12  C   UNK N   1      28.309  18.626   7.463  0.00  0.00     0.102 A 
HETATM   13  C   UNK N   1      27.699  19.646   6.683  0.00  0.00     0.101 A 
HETATM   14  C   UNK N   1      27.705  19.528   5.286  0.00  0.00     0.040 A 
HETATM   15  C   UNK N   1      28.297  18.429   4.660  0.00  0.00     0.010 A 
BRANCH  12  16
HETATM   16  O   UNK N   1      28.312  18.701   8.818  0.00  0.00    -0.353 OA
HETATM   17  C   UNK N   1      29.253  18.080   9.610  0.00  0.00     0.210 C 
ENDBRANCH  12  16
BRANCH  13  18
HETATM   18  O   UNK N   1      27.096  20.741   7.217  0.00  0.00    -0.353 OA
HETATM   19  C   UNK N   1      26.366  21.674   6.518  0.00  0.00     0.210 C 
ENDBRANCH  13  18
ENDBRANCH   9  10
ENDBRANCH   8   9
ENDBRANCH   7   8
ENDBRANCH   1   7
BRANCH   6  20
HETATM   20  N   UNK N   1      32.841  16.755   7.009  0.00  0.00     0.098 N 
HETATM   21  C   UNK N   1      33.359  16.057   8.185  0.00  0.00     0.275 C 
HETATM   22  C   UNK N   1      34.072  17.080   9.055  0.00  0.00     0.064 C 
HETATM   23  C   UNK N   1      34.027  18.352   8.250  0.00  0.00     0.148 C 
HETATM   24  C   UNK N   1      33.775  17.862   6.849  0.00  0.00     0.304 C 
BRANCH  23  25
HETATM   25  O   UNK N   1      35.243  19.029   8.332  0.00  0.00    -0.394 OA
HETATM   26  H   UNK N   1      36.097  18.818   7.922  0.00  0.00     0.210 HD
ENDBRANCH  23  25
ENDBRANCH   6  20
TORSDOF 8
ENDMDL
MODEL 8
REMARK VINA RESULT:      -6.0     12.348     16.208
REMARK  8 active torsions:
REMARK  status: ('A' for Active; 'I' for Inactive)
REMARK    1  A    between atoms: C_2  and  O_7 
REMARK    2  A    between atoms: C_3  and  O_9 
REMARK    3  A    between atoms: C_5  and  C_11 
REMARK    4  A    between atoms: C_11  and  C_12 
REMARK    5  A    between atoms: C_12  and  O_13 
REMARK    6  A    between atoms: C_14  and  O_13 
REMARK    7  A    between atoms: C_19  and  N_20 
REMARK    8  A    between atoms: C_23  and  O_25 
ROOT
HETATM    1  C   UNK N   1      26.830  25.556  -4.396  0.00  0.00     0.154 C 
HETATM    2  C   UNK N   1      25.251  26.410  -6.158  0.00  0.00     0.038 C 
HETATM    3  C   UNK N   1      24.754  27.473  -5.185  0.00  0.00     0.002 C 
HETATM    4  C   UNK N   1      25.884  27.875  -4.252  0.00  0.00     0.003 C 
HETATM    5  C   UNK N   1      26.329  26.658  -3.459  0.00  0.00     0.034 C 
HETATM    6  C   UNK N   1      25.738  25.147  -5.422  0.00  0.00     0.251 C 
ENDROOT
BRANCH   1   7
HETATM    7  O   UNK N   1      27.202  24.460  -3.616  0.00  0.00    -0.383 OA
BRANCH   7   8
HETATM    8  C   UNK N   1      28.593  24.370  -3.714  0.00  0.00     0.172 C 
BRANCH   8   9
HETATM    9  C   UNK N   1      29.057  23.243  -2.808  0.00  0.00     0.065 C 
BRANCH   9  10
HETATM   10  C   UNK N   1      30.201  22.452  -3.362  0.00  0.00    -0.053 A 
HETATM   11  C   UNK N   1      30.078  21.915  -4.641  0.00  0.00     0.046 A 
HETATM   12  C   UNK N   1      31.100  21.126  -5.199  0.00  0.00     0.102 A 
HETATM   13  C   UNK N   1      32.277  20.877  -4.441  0.00  0.00     0.101 A 
HETATM   14  C   UNK N   1      32.383  21.421  -3.153  0.00  0.00     0.040 A 
HETATM   15  C   UNK N   1      31.354  22.195  -2.612  0.00  0.00     0.010 A 
BRANCH  12  16
HETATM   16  O   UNK N   1      30.957  20.607  -6.444  0.00  0.00    -0.353 OA
HETATM   17  C   UNK N   1      29.743  20.222  -6.970  0.00  0.00     0.210 C 
ENDBRANCH  12  16
BRANCH  13  18
HETATM   18  O   UNK N   1      33.317  20.129  -4.894  0.00  0.00    -0.353 OA
HETATM   19  C   UNK N   1      34.510  19.934  -4.236  0.00  0.00     0.210 C 
ENDBRANCH  13  18
ENDBRANCH   9  10
ENDBRANCH   8   9
ENDBRANCH   7   8
ENDBRANCH   1   7
BRANCH   6  20
HETATM   20  N   UNK N   1      26.256  24.178  -6.409  0.00  0.00     0.098 N 
HETATM   21  C   UNK N   1      25.611  22.872  -6.284  0.00  0.00     0.275 C 
HETATM   22  C   UNK N   1      25.546  22.253  -7.672  0.00  0.00     0.064 C 
HETATM   23  C   UNK N   1      26.078  23.325  -8.585  0.00  0.00     0.148 C 
HETATM   24  C   UNK N   1      25.920  24.581  -7.769  0.00  0.00     0.304 C 
BRANCH  23  25
HETATM   25  O   UNK N   1      25.323  23.393  -9.756  0.00  0.00    -0.394 OA
HETATM   26  H   UNK N   1      24.532  23.918  -9.952  0.00  0.00     0.210 HD
ENDBRANCH  23  25
ENDBRANCH   6  20
TORSDOF 8
ENDMDL
MODEL 9
REMARK VINA RESULT:      -5.8      2.596      8.093
REMARK  8 active torsions:
REMARK  status: ('A' for Active; 'I' for Inactive)
REMARK    1  A    between atoms: C_2  and  O_7 
REMARK    2  A    between atoms: C_3  and  O_9 
REMARK    3  A    between atoms: C_5  and  C_11 
REMARK    4  A    between atoms: C_11  and  C_12 
REMARK    5  A    between atoms: C_12  and  O_13 
REMARK    6  A    between atoms: C_14  and  O_13 
REMARK    7  A    between atoms: C_19  and  N_20 
REMARK    8  A    between atoms: C_23  and  O_25 
ROOT
HETATM    1  C   UNK N   1      28.452  16.905   4.072  0.00  0.00     0.154 C 
HETATM    2  C   UNK N   1      26.091  17.772   3.995  0.00  0.00     0.038 C 
HETATM    3  C   UNK N   1      25.697  16.592   3.114  0.00  0.00     0.002 C 
HETATM    4  C   UNK N   1      26.550  15.386   3.471  0.00  0.00     0.003 C 
HETATM    5  C   UNK N   1      28.010  15.717   3.215  0.00  0.00     0.034 C 
HETATM    6  C   UNK N   1      27.571  18.156   3.802  0.00  0.00     0.251 C 
ENDROOT
BRANCH   1   7
HETATM    7  O   UNK N   1      29.789  17.178   3.780  0.00  0.00    -0.383 OA
BRANCH   7   8
HETATM    8  C   UNK N   1      30.543  16.458   4.709  0.00  0.00     0.172 C 
BRANCH   8   9
HETATM    9  C   UNK N   1      30.532  17.225   6.020  0.00  0.00     0.065 C 
BRANCH   9  10
HETATM   10  C   UNK N   1      31.796  17.092   6.810  0.00  0.00    -0.053 A 
HETATM   11  C   UNK N   1      32.957  16.707   6.144  0.00  0.00     0.046 A 
HETATM   12  C   UNK N   1      34.166  16.522   6.837  0.00  0.00     0.102 A 
HETATM   13  C   UNK N   1      34.199  16.734   8.244  0.00  0.00     0.101 A 
HETATM   14  C   UNK N   1      33.021  17.115   8.901  0.00  0.00     0.040 A 
HETATM   15  C   UNK N   1      31.827  17.286   8.196  0.00  0.00     0.010 A 
BRANCH  12  16
HETATM   16  O   UNK N   1      35.284  16.141   6.170  0.00  0.00    -0.353 OA
HETATM   17  C   UNK N   1      35.587  14.826   5.888  0.00  0.00     0.210 C 
ENDBRANCH  12  16
BRANCH  13  18
HETATM   18  O   UNK N   1      35.318  16.581   9.000  0.00  0.00    -0.353 OA
HETATM   19  C   UNK N   1      35.381  16.698  10.369  0.00  0.00     0.210 C 
ENDBRANCH  13  18
ENDBRANCH   9  10
ENDBRANCH   8   9
ENDBRANCH   7   8
ENDBRANCH   1   7
BRANCH   6  20
HETATM   20  N   UNK N   1      27.908  19.265   4.716  0.00  0.00     0.098 N 
HETATM   21  C   UNK N   1      27.131  20.470   4.427  0.00  0.00     0.275 C 
HETATM   22  C   UNK N   1      26.902  21.201   5.740  0.00  0.00     0.064 C 
HETATM   23  C   UNK N   1      27.486  20.286   6.784  0.00  0.00     0.148 C 
HETATM   24  C   UNK N   1      27.526  18.952   6.088  0.00  0.00     0.304 C 
BRANCH  23  25
HETATM   25  O   UNK N   1      26.665  20.238   7.910  0.00  0.00    -0.394 OA
HETATM   26  H   UNK N   1      26.310  19.470   8.384  0.00  0.00     0.210 HD
ENDBRANCH  23  25
ENDBRANCH   6  20
TORSDOF 8
ENDMDL
