MODEL 1
REMARK VINA RESULT:      -5.2      0.000      0.000
REMARK  2 active torsions:
REMARK  status: ('A' for Active; 'I' for Inactive)
REMARK    1  A    between atoms: C_3  and  C_8 
REMARK    2  A    between atoms: C_8  and  N_9 
REMARK       I    between atoms: C_11  and  N_12 
REMARK       I    between atoms: C_11  and  N_13 
ROOT
HETATM    1  N   UNK N   1      29.441  18.499   8.340  0.00  0.00    -0.223 N 
ATOM      2  HN  UNK N   1      29.823  19.393   8.031  1.00  0.00     0.178 HD
HETATM    3  C   UNK N   1      28.170  18.375   8.501  0.00  0.00     0.665 C 
HETATM    4  N   UNK N   1      27.326  19.477   8.248  0.00  0.00    -0.235 N 
HETATM    5  N   UNK N   1      27.607  17.149   8.929  0.00  0.00    -0.235 N 
HETATM    6  H   UNK N   1      26.353  19.390   8.369  0.00  0.00     0.174 HD
HETATM    7  H   UNK N   1      27.710  20.333   7.950  0.00  0.00     0.174 HD
HETATM    8  H   UNK N   1      28.188  16.375   9.107  0.00  0.00     0.174 HD
HETATM    9  H   UNK N   1      26.632  17.070   9.047  0.00  0.00     0.174 HD
ENDROOT
BRANCH   1  10
HETATM   10  C   UNK N   1      30.336  17.394   8.589  0.00  0.00     0.176 C 
BRANCH  10  11
HETATM   11  C   UNK N   1      31.568  17.440   7.747  0.00  0.00    -0.039 A 
HETATM   12  C   UNK N   1      32.838  17.729   8.275  0.00  0.00     0.009 A 
HETATM   13  C   UNK N   1      33.956  17.756   7.432  0.00  0.00     0.002 A 
HETATM   14  C   UNK N   1      33.807  17.496   6.064  0.00  0.00     0.018 A 
HETATM   15  C   UNK N   1      32.541  17.208   5.543  0.00  0.00     0.007 A 
HETATM   16  C   UNK N   1      31.431  17.182   6.384  0.00  0.00     0.027 A 
HETATM   17  I   UNK N   1      32.274  16.812   3.497  0.00  0.00    -0.045 I 
ENDBRANCH  10  11
ENDBRANCH   1  10
TORSDOF 2
ENDMDL
MODEL 2
REMARK VINA RESULT:      -5.2      9.684     10.702
REMARK  2 active torsions:
REMARK  status: ('A' for Active; 'I' for Inactive)
REMARK    1  A    between atoms: C_3  and  C_8 
REMARK    2  A    between atoms: C_8  and  N_9 
REMARK       I    between atoms: C_11  and  N_12 
REMARK       I    between atoms: C_11  and  N_13 
ROOT
HETATM    1  N   UNK N   1      22.445  11.744  11.336  0.00  0.00    -0.223 N 
ATOM      2  HN  UNK N   1      21.572  11.503  11.805  1.00  0.00     0.178 HD
HETATM    3  C   UNK N   1      23.491  12.004  12.039  0.00  0.00     0.665 C 
HETATM    4  N   UNK N   1      23.414  11.951  13.447  0.00  0.00    -0.235 N 
HETATM    5  N   UNK N   1      24.719  12.342  11.420  0.00  0.00    -0.235 N 
HETATM    6  H   UNK N   1      24.209  12.148  13.992  0.00  0.00     0.174 HD
HETATM    7  H   UNK N   1      22.563  11.717  13.885  0.00  0.00     0.174 HD
HETATM    8  H   UNK N   1      24.781  12.380  10.439  0.00  0.00     0.174 HD
HETATM    9  H   UNK N   1      25.510  12.537  11.973  0.00  0.00     0.174 HD
ENDROOT
BRANCH   1  10
HETATM   10  C   UNK N   1      22.485  11.788   9.894  0.00  0.00     0.176 C 
BRANCH  10  11
HETATM   11  C   UNK N   1      21.902  13.042   9.331  0.00  0.00    -0.039 A 
HETATM   12  C   UNK N   1      20.758  13.656   9.870  0.00  0.00     0.009 A 
HETATM   13  C   UNK N   1      20.260  14.831   9.295  0.00  0.00     0.002 A 
HETATM   14  C   UNK N   1      20.901  15.394   8.185  0.00  0.00     0.018 A 
HETATM   15  C   UNK N   1      22.040  14.780   7.652  0.00  0.00     0.007 A 
HETATM   16  C   UNK N   1      22.533  13.610   8.226  0.00  0.00     0.027 A 
HETATM   17  I   UNK N   1      23.032  15.591   5.988  0.00  0.00    -0.045 I 
ENDBRANCH  10  11
ENDBRANCH   1  10
TORSDOF 2
ENDMDL
MODEL 3
REMARK VINA RESULT:      -5.1     11.473     12.527
REMARK  2 active torsions:
REMARK  status: ('A' for Active; 'I' for Inactive)
REMARK    1  A    between atoms: C_3  and  C_8 
REMARK    2  A    between atoms: C_8  and  N_9 
REMARK       I    between atoms: C_11  and  N_12 
REMARK       I    between atoms: C_11  and  N_13 
ROOT
HETATM    1  N   UNK N   1      35.555  13.529  14.553  0.00  0.00    -0.223 N 
ATOM      2  HN  UNK N   1      34.906  14.247  14.877  1.00  0.00     0.178 HD
HETATM    3  C   UNK N   1      36.382  13.804  13.607  0.00  0.00     0.665 C 
HETATM    4  N   UNK N   1      36.378  15.093  13.032  0.00  0.00    -0.235 N 
HETATM    5  N   UNK N   1      37.296  12.833  13.133  0.00  0.00    -0.235 N 
HETATM    6  H   UNK N   1      37.007  15.311  12.307  0.00  0.00     0.174 HD
HETATM    7  H   UNK N   1      35.745  15.775  13.355  0.00  0.00     0.174 HD
HETATM    8  H   UNK N   1      37.306  11.932  13.529  0.00  0.00     0.174 HD
HETATM    9  H   UNK N   1      37.923  13.059  12.408  0.00  0.00     0.174 HD
ENDROOT
BRANCH   1  10
HETATM   10  C   UNK N   1      35.529  12.223  15.165  0.00  0.00     0.176 C 
BRANCH  10  11
HETATM   11  C   UNK N   1      35.454  12.277  16.656  0.00  0.00    -0.039 A 
HETATM   12  C   UNK N   1      35.166  13.460  17.358  0.00  0.00     0.009 A 
HETATM   13  C   UNK N   1      35.109  13.446  18.757  0.00  0.00     0.002 A 
HETATM   14  C   UNK N   1      35.339  12.254  19.455  0.00  0.00     0.018 A 
HETATM   15  C   UNK N   1      35.626  11.079  18.751  0.00  0.00     0.007 A 
HETATM   16  C   UNK N   1      35.681  11.096  17.360  0.00  0.00     0.027 A 
HETATM   17  I   UNK N   1      35.978   9.269  19.759  0.00  0.00    -0.045 I 
ENDBRANCH  10  11
ENDBRANCH   1  10
TORSDOF 2
ENDMDL
MODEL 4
REMARK VINA RESULT:      -5.0      9.935     11.069
REMARK  2 active torsions:
REMARK  status: ('A' for Active; 'I' for Inactive)
REMARK    1  A    between atoms: C_3  and  C_8 
REMARK    2  A    between atoms: C_8  and  N_9 
REMARK       I    between atoms: C_11  and  N_12 
REMARK       I    between atoms: C_11  and  N_13 
ROOT
HETATM    1  N   UNK N   1      19.649  17.853   9.232  0.00  0.00    -0.223 N 
ATOM      2  HN  UNK N   1      20.615  18.183   9.258  1.00  0.00     0.178 HD
HETATM    3  C   UNK N   1      18.737  18.515   9.853  0.00  0.00     0.665 C 
HETATM    4  N   UNK N   1      19.086  19.686  10.559  0.00  0.00    -0.235 N 
HETATM    5  N   UNK N   1      17.389  18.085   9.838  0.00  0.00    -0.235 N 
HETATM    6  H   UNK N   1      18.394  20.198  11.037  0.00  0.00     0.174 HD
HETATM    7  H   UNK N   1      20.022  19.992  10.575  0.00  0.00     0.174 HD
HETATM    8  H   UNK N   1      17.137  17.270   9.348  0.00  0.00     0.174 HD
HETATM    9  H   UNK N   1      16.702  18.603  10.318  0.00  0.00     0.174 HD
ENDROOT
BRANCH   1  10
HETATM   10  C   UNK N   1      19.332  16.651   8.500  0.00  0.00     0.176 C 
BRANCH  10  11
HETATM   11  C   UNK N   1      20.511  15.756   8.305  0.00  0.00    -0.039 A 
HETATM   12  C   UNK N   1      21.400  15.896   7.225  0.00  0.00     0.009 A 
HETATM   13  C   UNK N   1      22.488  15.024   7.099  0.00  0.00     0.002 A 
HETATM   14  C   UNK N   1      22.690  14.014   8.048  0.00  0.00     0.018 A 
HETATM   15  C   UNK N   1      21.802  13.879   9.121  0.00  0.00     0.007 A 
HETATM   16  C   UNK N   1      20.721  14.748   9.245  0.00  0.00     0.027 A 
HETATM   17  I   UNK N   1      22.069  12.379  10.567  0.00  0.00    -0.045 I 
ENDBRANCH  10  11
ENDBRANCH   1  10
TORSDOF 2
ENDMDL
MODEL 5
REMARK VINA RESULT:      -5.0      1.990      2.650
REMARK  2 active torsions:
REMARK  status: ('A' for Active; 'I' for Inactive)
REMARK    1  A    between atoms: C_3  and  C_8 
REMARK    2  A    between atoms: C_8  and  N_9 
REMARK       I    between atoms: C_11  and  N_12 
REMARK       I    between atoms: C_11  and  N_13 
ROOT
HETATM    1  N   UNK N   1      28.899  17.316   7.492  0.00  0.00    -0.223 N 
ATOM      2  HN  UNK N   1      29.384  16.845   8.256  1.00  0.00     0.178 HD
HETATM    3  C   UNK N   1      28.010  18.207   7.760  0.00  0.00     0.665 C 
HETATM    4  N   UNK N   1      27.720  18.519   9.105  0.00  0.00    -0.235 N 
HETATM    5  N   UNK N   1      27.318  18.880   6.724  0.00  0.00    -0.235 N 
HETATM    6  H   UNK N   1      27.042  19.199   9.319  0.00  0.00     0.174 HD
HETATM    7  H   UNK N   1      28.197  18.055   9.832  0.00  0.00     0.174 HD
HETATM    8  H   UNK N   1      27.514  18.669   5.783  0.00  0.00     0.174 HD
HETATM    9  H   UNK N   1      26.641  19.560   6.945  0.00  0.00     0.174 HD
ENDROOT
BRANCH   1  10
HETATM   10  C   UNK N   1      29.222  16.971   6.128  0.00  0.00     0.176 C 
BRANCH  10  11
HETATM   11  C   UNK N   1      30.667  17.165   5.803  0.00  0.00    -0.039 A 
HETATM   12  C   UNK N   1      31.142  17.261   4.484  0.00  0.00     0.009 A 
HETATM   13  C   UNK N   1      32.509  17.443   4.245  0.00  0.00     0.002 A 
HETATM   14  C   UNK N   1      33.402  17.530   5.320  0.00  0.00     0.018 A 
HETATM   15  C   UNK N   1      32.925  17.433   6.632  0.00  0.00     0.007 A 
HETATM   16  C   UNK N   1      31.564  17.252   6.867  0.00  0.00     0.027 A 
HETATM   17  I   UNK N   1      34.230  17.558   8.274  0.00  0.00    -0.045 I 
ENDBRANCH  10  11
ENDBRANCH   1  10
TORSDOF 2
ENDMDL
MODEL 6
REMARK VINA RESULT:      -4.9     10.250     11.160
REMARK  2 active torsions:
REMARK  status: ('A' for Active; 'I' for Inactive)
REMARK    1  A    between atoms: C_3  and  C_8 
REMARK    2  A    between atoms: C_8  and  N_9 
REMARK       I    between atoms: C_11  and  N_12 
REMARK       I    between atoms: C_11  and  N_13 
ROOT
HETATM    1  N   UNK N   1      23.075  13.279  10.118  0.00  0.00    -0.223 N 
ATOM      2  HN  UNK N   1      23.655  14.060   9.810  1.00  0.00     0.178 HD
HETATM    3  C   UNK N   1      23.602  12.339  10.821  0.00  0.00     0.665 C 
HETATM    4  N   UNK N   1      24.972  12.403  11.155  0.00  0.00    -0.235 N 
HETATM    5  N   UNK N   1      22.827  11.241  11.266  0.00  0.00    -0.235 N 
HETATM    6  H   UNK N   1      25.382  11.688  11.692  0.00  0.00     0.174 HD
HETATM    7  H   UNK N   1      25.518  13.164  10.849  0.00  0.00     0.174 HD
HETATM    8  H   UNK N   1      21.872  11.188  11.038  0.00  0.00     0.174 HD
HETATM    9  H   UNK N   1      23.245  10.529  11.803  0.00  0.00     0.174 HD
ENDROOT
BRANCH   1  10
HETATM   10  C   UNK N   1      21.678  13.248   9.758  0.00  0.00     0.176 C 
BRANCH  10  11
HETATM   11  C   UNK N   1      21.262  14.421   8.933  0.00  0.00    -0.039 A 
HETATM   12  C   UNK N   1      21.994  14.864   7.818  0.00  0.00     0.009 A 
HETATM   13  C   UNK N   1      21.550  15.971   7.085  0.00  0.00     0.002 A 
HETATM   14  C   UNK N   1      20.378  16.636   7.463  0.00  0.00     0.018 A 
HETATM   15  C   UNK N   1      19.652  16.192   8.574  0.00  0.00     0.007 A 
HETATM   16  C   UNK N   1      20.096  15.090   9.301  0.00  0.00     0.027 A 
HETATM   17  I   UNK N   1      17.887  17.160   9.175  0.00  0.00    -0.045 I 
ENDBRANCH  10  11
ENDBRANCH   1  10
TORSDOF 2
ENDMDL
MODEL 7
REMARK VINA RESULT:      -4.9      9.818     11.024
REMARK  2 active torsions:
REMARK  status: ('A' for Active; 'I' for Inactive)
REMARK    1  A    between atoms: C_3  and  C_8 
REMARK    2  A    between atoms: C_8  and  N_9 
REMARK       I    between atoms: C_11  and  N_12 
REMARK       I    between atoms: C_11  and  N_13 
ROOT
HETATM    1  N   UNK N   1      19.642  17.848   9.062  0.00  0.00    -0.223 N 
ATOM      2  HN  UNK N   1      20.592  18.221   9.050  1.00  0.00     0.178 HD
HETATM    3  C   UNK N   1      18.740  18.435   9.766  0.00  0.00     0.665 C 
HETATM    4  N   UNK N   1      19.078  19.585  10.511  0.00  0.00    -0.235 N 
HETATM    5  N   UNK N   1      17.413  17.944   9.805  0.00  0.00    -0.235 N 
HETATM    6  H   UNK N   1      18.393  20.041  11.052  0.00  0.00     0.174 HD
HETATM    7  H   UNK N   1      19.999  19.933  10.489  0.00  0.00     0.174 HD
HETATM    8  H   UNK N   1      17.169  17.143   9.289  0.00  0.00     0.174 HD
HETATM    9  H   UNK N   1      16.734  18.405  10.350  0.00  0.00     0.174 HD
ENDROOT
BRANCH   1  10
HETATM   10  C   UNK N   1      19.335  16.670   8.287  0.00  0.00     0.176 C 
BRANCH  10  11
HETATM   11  C   UNK N   1      20.268  15.535   8.555  0.00  0.00    -0.039 A 
HETATM   12  C   UNK N   1      20.053  14.602   9.584  0.00  0.00     0.009 A 
HETATM   13  C   UNK N   1      20.966  13.560   9.784  0.00  0.00     0.002 A 
HETATM   14  C   UNK N   1      22.091  13.447   8.958  0.00  0.00     0.018 A 
HETATM   15  C   UNK N   1      22.301  14.378   7.935  0.00  0.00     0.007 A 
HETATM   16  C   UNK N   1      21.391  15.414   7.738  0.00  0.00     0.027 A 
HETATM   17  I   UNK N   1      23.976  14.245   6.673  0.00  0.00    -0.045 I 
ENDBRANCH  10  11
ENDBRANCH   1  10
TORSDOF 2
ENDMDL
MODEL 8
REMARK VINA RESULT:      -4.8      3.536      4.594
REMARK  2 active torsions:
REMARK  status: ('A' for Active; 'I' for Inactive)
REMARK    1  A    between atoms: C_3  and  C_8 
REMARK    2  A    between atoms: C_8  and  N_9 
REMARK       I    between atoms: C_11  and  N_12 
REMARK       I    between atoms: C_11  and  N_13 
ROOT
HETATM    1  N   UNK N   1      33.483  16.208   8.873  0.00  0.00    -0.223 N 
ATOM      2  HN  UNK N   1      32.806  15.511   8.563  1.00  0.00     0.178 HD
HETATM    3  C   UNK N   1      34.026  16.091  10.034  0.00  0.00     0.665 C 
HETATM    4  N   UNK N   1      33.676  15.001  10.859  0.00  0.00    -0.235 N 
HETATM    5  N   UNK N   1      34.969  17.041  10.496  0.00  0.00    -0.235 N 
HETATM    6  H   UNK N   1      34.087  14.904  11.749  0.00  0.00     0.174 HD
HETATM    7  H   UNK N   1      33.021  14.336  10.545  0.00  0.00     0.174 HD
HETATM    8  H   UNK N   1      35.218  17.804   9.927  0.00  0.00     0.174 HD
HETATM    9  H   UNK N   1      35.375  16.937  11.387  0.00  0.00     0.174 HD
ENDROOT
BRANCH   1  10
HETATM   10  C   UNK N   1      33.816  17.309   8.002  0.00  0.00     0.176 C 
BRANCH  10  11
HETATM   11  C   UNK N   1      32.998  17.333   6.752  0.00  0.00    -0.039 A 
HETATM   12  C   UNK N   1      33.564  17.513   5.478  0.00  0.00     0.009 A 
HETATM   13  C   UNK N   1      32.743  17.525   4.345  0.00  0.00     0.002 A 
HETATM   14  C   UNK N   1      31.359  17.359   4.481  0.00  0.00     0.018 A 
HETATM   15  C   UNK N   1      30.800  17.180   5.751  0.00  0.00     0.007 A 
HETATM   16  C   UNK N   1      31.620  17.168   6.877  0.00  0.00     0.027 A 
HETATM   17  I   UNK N   1      28.730  16.928   6.000  0.00  0.00    -0.045 I 
ENDBRANCH  10  11
ENDBRANCH   1  10
TORSDOF 2
ENDMDL
MODEL 9
REMARK VINA RESULT:      -4.6      7.780      9.417
REMARK  2 active torsions:
REMARK  status: ('A' for Active; 'I' for Inactive)
REMARK    1  A    between atoms: C_3  and  C_8 
REMARK    2  A    between atoms: C_8  and  N_9 
REMARK       I    between atoms: C_11  and  N_12 
REMARK       I    between atoms: C_11  and  N_13 
ROOT
HETATM    1  N   UNK N   1      21.289  19.908   3.030  0.00  0.00    -0.223 N 
ATOM      2  HN  UNK N   1      21.139  19.458   3.933  1.00  0.00     0.178 HD
HETATM    3  C   UNK N   1      20.379  19.826   2.123  0.00  0.00     0.665 C 
HETATM    4  N   UNK N   1      19.191  19.115   2.392  0.00  0.00    -0.235 N 
HETATM    5  N   UNK N   1      20.554  20.438   0.859  0.00  0.00    -0.235 N 
HETATM    6  H   UNK N   1      18.490  19.047   1.704  0.00  0.00     0.174 HD
HETATM    7  H   UNK N   1      19.062  18.685   3.269  0.00  0.00     0.174 HD
HETATM    8  H   UNK N   1      21.380  20.936   0.663  0.00  0.00     0.174 HD
HETATM    9  H   UNK N   1      19.849  20.366   0.176  0.00  0.00     0.174 HD
ENDROOT
BRANCH   1  10
HETATM   10  C   UNK N   1      22.517  20.627   2.792  0.00  0.00     0.176 C 
BRANCH  10  11
HETATM   11  C   UNK N   1      23.727  19.888   3.262  0.00  0.00    -0.039 A 
HETATM   12  C   UNK N   1      25.032  20.377   3.081  0.00  0.00     0.009 A 
HETATM   13  C   UNK N   1      26.126  19.636   3.546  0.00  0.00     0.002 A 
HETATM   14  C   UNK N   1      25.918  18.410   4.189  0.00  0.00     0.018 A 
HETATM   15  C   UNK N   1      24.617  17.928   4.366  0.00  0.00     0.007 A 
HETATM   16  C   UNK N   1      23.531  18.667   3.904  0.00  0.00     0.027 A 
HETATM   17  I   UNK N   1      24.261  16.093   5.326  0.00  0.00    -0.045 I 
ENDBRANCH  10  11
ENDBRANCH   1  10
TORSDOF 2
ENDMDL
