REMARK  0 active torsions:
REMARK  status: ('A' for Active; 'I' for Inactive)
ROOT
HETATM    1  N   UNK N   1       3.670  -1.233  -0.438  0.00  0.00    -0.368 N 
HETATM    2  N   UNK N   1       1.308  -2.782  -0.286  0.00  0.00     0.088 N 
HETATM    3  C   UNK N   1       2.377  -0.544  -0.621  0.00  0.00     0.146 C 
HETATM    4  C   UNK N   1       1.273  -1.372   0.086  0.00  0.00     0.301 C 
HETATM    5  C   UNK N   1       3.682  -2.662  -0.693  0.00  0.00     0.154 C 
HETATM    6  C   UNK N   1       2.245   0.926  -0.192  0.00  0.00    -0.027 A 
HETATM    7  C   UNK N   1       2.593  -3.335   0.117  0.00  0.00     0.291 C 
HETATM    8  C   UNK N   1       4.926  -0.626  -0.093  0.00  0.00     0.037 A 
HETATM    9  C   UNK N   1       3.181   1.904  -0.566  0.00  0.00    -0.045 A 
HETATM   10  C   UNK N   1       4.397   1.540  -1.313  0.00  0.00     0.080 C 
HETATM   11  C   UNK N   1       5.282   0.690  -0.474  0.00  0.00    -0.027 A 
HETATM   12  C   UNK N   1       0.297  -3.451   0.512  0.00  0.00     0.310 C 
HETATM   13  C   UNK N   1       1.103   1.346   0.526  0.00  0.00     0.010 A 
HETATM   14  C   UNK N   1       5.893  -1.412   0.568  0.00  0.00     0.030 A 
HETATM   15  C   UNK N   1       2.981   3.249  -0.230  0.00  0.00     0.008 A 
HETATM   16  C   UNK N   1       6.550   1.192  -0.152  0.00  0.00     0.010 A 
HETATM   17  C   UNK N   1       0.904   2.687   0.858  0.00  0.00     0.001 A 
HETATM   18  C   UNK N   1       1.844   3.641   0.477  0.00  0.00     0.001 A 
HETATM   19  C   UNK N   1       7.149  -0.900   0.888  0.00  0.00     0.002 A 
HETATM   20  C   UNK N   1       7.474   0.407   0.539  0.00  0.00     0.001 A 
ENDROOT
TORSDOF 0
