REMARK  21 active torsions:
REMARK  status: ('A' for Active; 'I' for Inactive)
REMARK    1  A    between atoms: O_9  and  C_58 
REMARK    2  A    between atoms: O_12  and  C_68 
REMARK       I    between atoms: N_19  and  C_50 
REMARK    3  A    between atoms: N_19  and  C_54 
REMARK    4  A    between atoms: N_20  and  C_46 
REMARK       I    between atoms: N_20  and  C_61 
REMARK    5  A    between atoms: N_21  and  C_44 
REMARK    6  A    between atoms: N_22  and  C_57 
REMARK       I    between atoms: N_23  and  C_63 
REMARK    7  A    between atoms: C_24  and  C_26 
REMARK    8  A    between atoms: C_25  and  C_27 
REMARK    9  A    between atoms: C_26  and  C_29 
REMARK   10  A    between atoms: C_28  and  C_30 
REMARK   11  A    between atoms: C_29  and  C_34 
REMARK   12  A    between atoms: C_30  and  C_33 
REMARK   13  A    between atoms: C_34  and  C_44 
REMARK   14  A    between atoms: C_36  and  C_42 
REMARK   15  A    between atoms: C_41  and  C_50 
REMARK   16  A    between atoms: C_42  and  C_51 
REMARK   17  A    between atoms: C_54  and  C_58 
REMARK   18  A    between atoms: C_54  and  C_63 
REMARK   19  A    between atoms: C_57  and  C_61 
REMARK   20  A    between atoms: C_57  and  C_62 
REMARK   21  A    between atoms: C_62  and  C_64 
ROOT
HETATM    1  S   UNK N   1      -2.540   0.779  -2.733  0.00  0.00    -0.095 SA
HETATM    2  S   UNK N   1      -2.315   1.860  -0.882  0.00  0.00    -0.095 SA
HETATM    3  O   UNK N   1      -3.500  -3.841   2.259  0.00  0.00    -0.271 OA
HETATM    4  O   UNK N   1      -0.414  -5.051  -1.052  0.00  0.00    -0.271 OA
HETATM    5  O   UNK N   1      -4.992  -3.051  -2.143  0.00  0.00    -0.271 OA
HETATM    6  O   UNK N   1       4.252  -4.335   0.239  0.00  0.00    -0.271 OA
HETATM    7  O   UNK N   1       2.139  -0.064  -0.052  0.00  0.00    -0.271 OA
HETATM    8  N   UNK N   1      -0.733  -4.311   1.043  0.00  0.00    -0.346 N 
HETATM    9  N   UNK N   1      -3.950  -4.487   0.151  0.00  0.00    -0.346 N 
HETATM   10  N   UNK N   1       2.222  -3.924  -0.570  0.00  0.00    -0.346 N 
HETATM   11  N   UNK N   1      -5.325  -1.433  -0.615  0.00  0.00    -0.345 N 
HETATM   12  N   UNK N   1       2.424  -1.605   1.509  0.00  0.00    -0.346 N 
HETATM   13  C   UNK N   1      -1.852  -5.194   1.238  0.00  0.00     0.176 C 
HETATM   14  C   UNK N   1      -5.229  -3.802   0.104  0.00  0.00     0.180 C 
HETATM   15  C   UNK N   1       0.955  -3.240  -0.410  0.00  0.00     0.181 C 
HETATM   16  C   UNK N   1      -3.160  -4.462   1.260  0.00  0.00     0.241 C 
HETATM   17  C   UNK N   1      -0.094  -4.283  -0.155  0.00  0.00     0.241 C 
HETATM   18  C   UNK N   1      -5.199  -2.739  -0.978  0.00  0.00     0.241 C 
HETATM   19  C   UNK N   1       3.476  -2.148   0.683  0.00  0.00     0.180 C 
HETATM   20  C   UNK N   1       3.322  -3.549   0.132  0.00  0.00     0.241 C 
HETATM   21  C   UNK N   1      -5.065  -0.302  -1.515  0.00  0.00     0.186 C 
HETATM   22  C   UNK N   1       1.129   0.487   2.032  0.00  0.00     0.186 C 
HETATM   23  C   UNK N   1      -3.642  -0.512  -2.079  0.00  0.00     0.120 C 
HETATM   24  C   UNK N   1       1.882  -0.444   1.084  0.00  0.00     0.242 C 
HETATM   25  C   UNK N   1      -0.393   0.650   1.693  0.00  0.00     0.120 C 
HETATM   26  H   UNK N   1      -0.476  -3.632   1.777  0.00  0.00     0.163 HD
HETATM   27  H   UNK N   1      -3.630  -5.001  -0.684  0.00  0.00     0.163 HD
HETATM   28  H   UNK N   1       2.220  -4.872  -0.984  0.00  0.00     0.163 HD
HETATM   29  H   UNK N   1      -5.523  -1.256   0.380  0.00  0.00     0.163 HD
HETATM   30  H   UNK N   1       2.255  -1.959   2.463  0.00  0.00     0.163 HD
ENDROOT
BRANCH  22  31
HETATM   31  N   UNK N   1       1.722   1.820   2.115  0.00  0.00    -0.345 N 
HETATM   32  C   UNK N   1       2.916   2.148   1.538  0.00  0.00     0.251 C 
HETATM   33  O   UNK N   1       3.783   1.308   1.349  0.00  0.00    -0.271 OA
HETATM   34  H   UNK N   1       1.084   2.579   2.385  0.00  0.00     0.163 HD
BRANCH  32  35
HETATM   35  C   UNK N   1       3.148   3.504   0.983  0.00  0.00     0.313 C 
BRANCH  35  36
HETATM   36  N   UNK N   1       2.162   4.526   1.381  0.00  0.00     0.092 N 
HETATM   37  H   UNK N   1       2.048   4.596   2.415  0.00  0.00     0.313 HD
HETATM   38  H   UNK N   1       1.248   4.434   0.887  0.00  0.00     0.313 HD
ENDBRANCH  35  36
BRANCH  35  39
HETATM   39  C   UNK N   1       3.198   3.354  -0.573  0.00  0.00     0.083 C 
BRANCH  39  40
HETATM   40  C   UNK N   1       3.368   4.721  -1.083  0.00  0.00    -0.055 A 
HETATM   41  C   UNK N   1       4.477   5.397  -0.593  0.00  0.00     0.019 A 
HETATM   42  C   UNK N   1       4.431   6.760  -0.438  0.00  0.00    -0.025 A 
HETATM   43  C   UNK N   1       3.273   7.476  -0.813  0.00  0.00    -0.026 A 
HETATM   44  C   UNK N   1       5.485   7.397   0.206  0.00  0.00     0.012 A 
HETATM   45  C   UNK N   1       2.198   6.809  -1.413  0.00  0.00     0.013 A 
HETATM   46  C   UNK N   1       3.189   8.837  -0.527  0.00  0.00     0.012 A 
HETATM   47  C   UNK N   1       2.232   5.417  -1.519  0.00  0.00     0.008 A 
HETATM   48  C   UNK N   1       4.243   9.472   0.142  0.00  0.00     0.001 A 
HETATM   49  C   UNK N   1       5.390   8.754   0.501  0.00  0.00     0.001 A 
ENDBRANCH  39  40
ENDBRANCH  35  39
ENDBRANCH  32  35
ENDBRANCH  22  31
BRANCH  19  50
HETATM   50  C   UNK N   1       4.818  -1.783   1.302  0.00  0.00     0.073 C 
BRANCH  50  51
HETATM   51  C   UNK N   1       5.960  -1.686   0.339  0.00  0.00    -0.056 A 
HETATM   52  C   UNK N   1       7.093  -0.965   0.724  0.00  0.00     0.010 A 
HETATM   53  C   UNK N   1       8.232  -0.965  -0.083  0.00  0.00     0.037 A 
HETATM   54  C   UNK N   1       8.246  -1.699  -1.273  0.00  0.00     0.065 A 
HETATM   55  C   UNK N   1       7.108  -2.398  -1.677  0.00  0.00     0.037 A 
HETATM   56  C   UNK N   1       5.969  -2.390  -0.875  0.00  0.00     0.010 A 
BRANCH  54  57
HETATM   57  O   UNK N   1       9.359  -1.746  -2.019  0.00  0.00    -0.361 OA
HETATM   58  H   UNK N   1       9.720  -2.435  -2.541  0.00  0.00     0.217 HD
ENDBRANCH  54  57
ENDBRANCH  50  51
ENDBRANCH  19  50
BRANCH  21  59
HETATM   59  C   UNK N   1      -5.323   1.024  -0.777  0.00  0.00     0.242 C 
HETATM   60  O   UNK N   1      -5.556   1.007   0.423  0.00  0.00    -0.271 OA
HETATM   61  N   UNK N   1      -5.389   2.208  -1.449  0.00  0.00    -0.344 N 
HETATM   62  H   UNK N   1      -5.183   2.230  -2.458  0.00  0.00     0.163 HD
BRANCH  61  63
HETATM   63  C   UNK N   1      -5.943   3.417  -0.835  0.00  0.00     0.204 C 
BRANCH  63  64
HETATM   64  C   UNK N   1      -7.377   3.312  -0.284  0.00  0.00     0.146 C 
HETATM   65  C   UNK N   1      -8.274   2.524  -1.220  0.00  0.00     0.042 C 
BRANCH  64  66
HETATM   66  O   UNK N   1      -7.404   2.749   0.993  0.00  0.00    -0.393 OA
HETATM   67  H   UNK N   1      -7.752   2.569   1.880  0.00  0.00     0.210 HD
ENDBRANCH  64  66
ENDBRANCH  63  64
BRANCH  63  68
HETATM   68  C   UNK N   1      -4.998   4.440  -0.234  0.00  0.00     0.240 C 
HETATM   69  O   UNK N   1      -3.816   4.426  -0.533  0.00  0.00    -0.271 OA
HETATM   70  N   UNK N   1      -5.462   5.409   0.598  0.00  0.00    -0.368 N 
HETATM   71  H   UNK N   1      -6.458   5.460   0.855  0.00  0.00     0.159 HD
HETATM   72  H   UNK N   1      -4.822   6.122   0.978  0.00  0.00     0.159 HD
ENDBRANCH  63  68
ENDBRANCH  61  63
ENDBRANCH  21  59
BRANCH  15  73
HETATM   73  C   UNK N   1       0.523  -2.156  -1.464  0.00  0.00     0.075 C 
BRANCH  73  74
HETATM   74  C   UNK N   1      -0.688  -1.433  -0.874  0.00  0.00    -0.028 A 
HETATM   75  C   UNK N   1      -0.838  -0.115  -0.449  0.00  0.00    -0.002 A 
HETATM   76  C   UNK N   1      -2.166  -0.203   0.481  0.00  0.00     0.042 A 
HETATM   77  C   UNK N   1       0.064   1.315  -0.509  0.00  0.00     0.014 A 
HETATM   78  N   UNK N   1      -2.635  -1.429   0.419  0.00  0.00    -0.365 N 
HETATM   79  C   UNK N   1      -2.684   1.067   1.446  0.00  0.00     0.030 A 
HETATM   80  C   UNK N   1      -1.810  -2.154  -0.384  0.00  0.00     0.096 A 
HETATM   81  H   UNK N   1      -3.447  -1.782   0.951  0.00  0.00     0.165 HD
HETATM   82  C   UNK N   1      -1.790   2.503   1.446  0.00  0.00     0.002 A 
HETATM   83  C   UNK N   1      -0.415   2.632   0.456  0.00  0.00     0.001 A 
ENDBRANCH  73  74
ENDBRANCH  15  73
BRANCH  14  84
HETATM   84  C   UNK N   1      -6.375  -4.798  -0.069  0.00  0.00     0.009 C 
HETATM   85  C   UNK N   1      -7.698  -4.090   0.153  0.00  0.00     0.012 C 
HETATM   86  C   UNK N   1      -6.268  -5.918   0.954  0.00  0.00     0.012 C 
ENDBRANCH  14  84
BRANCH  13  87
HETATM   87  C   UNK N   1      -1.670  -6.112   2.431  0.00  0.00     0.035 C 
BRANCH  87  88
HETATM   88  C   UNK N   1      -1.307  -7.504   1.944  0.00  0.00     0.004 C 
BRANCH  88  89
HETATM   89  C   UNK N   1      -2.514  -8.226   1.341  0.00  0.00     0.030 C 
BRANCH  89  90
HETATM   90  C   UNK N   1      -2.955  -7.632   0.001  0.00  0.00     0.267 C 
BRANCH  90  91
HETATM   91  N   UNK N   1      -1.980  -7.873  -1.055  0.00  0.00     0.078 N 
HETATM   92  H   UNK N   1      -1.957  -8.895  -1.260  0.00  0.00     0.312 HD
HETATM   93  H   UNK N   1      -1.030  -7.560  -0.751  0.00  0.00     0.312 HD
ENDBRANCH  90  91
ENDBRANCH  89  90
ENDBRANCH  88  89
ENDBRANCH  87  88
ENDBRANCH  13  87
TORSDOF 21
