MODEL 1
REMARK VINA RESULT:      -7.6      0.000      0.000
REMARK  5 active torsions:
REMARK  status: ('A' for Active; 'I' for Inactive)
REMARK    1  A    between atoms: C_3  and  N_20 
REMARK    2  A    between atoms: C_11  and  C_12 
REMARK    3  A    between atoms: C_12  and  O_14 
REMARK    4  A    between atoms: N_16  and  C_17 
REMARK    5  A    between atoms: C_25  and  N_26 
ROOT
HETATM    1  F   UNK N   1      36.266  14.266  13.832  0.00  0.00    -0.204 F 
HETATM    2  C   UNK N   1      35.721  14.179  12.593  0.00  0.00     0.145 A 
HETATM    3  C   UNK N   1      35.275  12.948  12.047  0.00  0.00     0.093 A 
HETATM    4  C   UNK N   1      34.727  12.962  10.705  0.00  0.00     0.091 A 
HETATM    5 Cl   UNK N   1      34.068  11.461  10.024  0.00  0.00    -0.079 Cl
HETATM    6  C   UNK N   1      34.671  14.204   9.950  0.00  0.00     0.073 A 
HETATM    7  C   UNK N   1      35.148  15.387  10.579  0.00  0.00     0.047 A 
HETATM    8  C   UNK N   1      35.651  15.348  11.870  0.00  0.00     0.062 A 
HETATM    9  C   UNK N   1      35.123  16.619   9.907  0.00  0.00     0.202 A 
HETATM   10  O   UNK N   1      35.536  17.627  10.460  0.00  0.00    -0.286 OA
HETATM   11  C   UNK N   1      34.630  16.686   8.602  0.00  0.00     0.104 A 
HETATM   12  C   UNK N   1      34.172  15.519   8.008  0.00  0.00     0.114 A 
HETATM   13  N   UNK N   1      34.180  14.307   8.644  0.00  0.00    -0.349 N 
ENDROOT
BRANCH   3  14
HETATM   14  N   UNK N   1      35.384  11.736  12.852  0.00  0.00    -0.375 N 
HETATM   15  C   UNK N   1      34.212  11.058  13.371  0.00  0.00     0.123 C 
HETATM   16  C   UNK N   1      34.142  11.167  14.891  0.00  0.00     0.020 C 
HETATM   17  C   UNK N   1      34.899  10.040  15.567  0.00  0.00     0.004 C 
HETATM   18  C   UNK N   1      36.394  10.141  15.326  0.00  0.00     0.026 C 
HETATM   19  C   UNK N   1      36.721   9.830  13.876  0.00  0.00     0.091 C 
HETATM   20  C   UNK N   1      36.691  11.104  13.030  0.00  0.00     0.147 C 
BRANCH  19  21
HETATM   21  N   UNK N   1      38.054   9.261  13.811  0.00  0.00    -0.424 N 
HETATM   22  H   UNK N   1      38.215   8.364  13.353  0.00  0.00     0.150 HD
HETATM   23  H   UNK N   1      38.839   9.764  14.227  0.00  0.00     0.150 HD
ENDBRANCH  19  21
ENDBRANCH   3  14
BRANCH  13  24
HETATM   24  C   UNK N   1      33.696  13.141   7.875  0.00  0.00     0.090 A 
HETATM   25  C   UNK N   1      34.610  12.683   6.740  0.00  0.00     0.028 A 
HETATM   26  C   UNK N   1      33.397  13.536   6.437  0.00  0.00     0.028 A 
ENDBRANCH  13  24
BRANCH  11  27
HETATM   27  C   UNK N   1      34.588  17.953   7.823  0.00  0.00     0.181 C 
HETATM   28  O   UNK N   1      34.247  17.938   6.650  0.00  0.00    -0.646 OA
BRANCH  27  29
HETATM   29  O   UNK N   1      34.929  19.126   8.391  0.00  0.00    -0.772 OA
HETATM   30  H   UNK N   1      34.592  19.359   9.234  0.00  0.00     0.167 HD
ENDBRANCH  27  29
ENDBRANCH  11  27
TORSDOF 5
ENDMDL
MODEL 2
REMARK VINA RESULT:      -7.5     10.077     12.580
REMARK  5 active torsions:
REMARK  status: ('A' for Active; 'I' for Inactive)
REMARK    1  A    between atoms: C_3  and  N_20 
REMARK    2  A    between atoms: C_11  and  C_12 
REMARK    3  A    between atoms: C_12  and  O_14 
REMARK    4  A    between atoms: N_16  and  C_17 
REMARK    5  A    between atoms: C_25  and  N_26 
ROOT
HETATM    1  F   UNK N   1      28.529  19.943   4.551  0.00  0.00    -0.204 F 
HETATM    2  C   UNK N   1      27.309  19.349   4.571  0.00  0.00     0.145 A 
HETATM    3  C   UNK N   1      27.092  18.088   5.181  0.00  0.00     0.093 A 
HETATM    4  C   UNK N   1      25.754  17.531   5.128  0.00  0.00     0.091 A 
HETATM    5 Cl   UNK N   1      25.419  16.002   5.963  0.00  0.00    -0.079 Cl
HETATM    6  C   UNK N   1      24.690  18.248   4.442  0.00  0.00     0.073 A 
HETATM    7  C   UNK N   1      25.006  19.505   3.854  0.00  0.00     0.047 A 
HETATM    8  C   UNK N   1      26.290  20.021   3.936  0.00  0.00     0.062 A 
HETATM    9  C   UNK N   1      24.026  20.248   3.177  0.00  0.00     0.202 A 
HETATM   10  O   UNK N   1      24.312  21.326   2.678  0.00  0.00    -0.286 OA
HETATM   11  C   UNK N   1      22.726  19.748   3.072  0.00  0.00     0.104 A 
HETATM   12  C   UNK N   1      22.443  18.519   3.651  0.00  0.00     0.114 A 
HETATM   13  N   UNK N   1      23.378  17.778   4.322  0.00  0.00    -0.349 N 
ENDROOT
BRANCH   3  14
HETATM   14  N   UNK N   1      28.211  17.413   5.830  0.00  0.00    -0.375 N 
HETATM   15  C   UNK N   1      28.288  17.282   7.272  0.00  0.00     0.123 C 
HETATM   16  C   UNK N   1      29.432  18.117   7.839  0.00  0.00     0.020 C 
HETATM   17  C   UNK N   1      30.735  17.342   7.857  0.00  0.00     0.004 C 
HETATM   18  C   UNK N   1      31.239  17.056   6.454  0.00  0.00     0.026 C 
HETATM   19  C   UNK N   1      30.348  16.035   5.767  0.00  0.00     0.091 C 
HETATM   20  C   UNK N   1      29.214  16.730   5.012  0.00  0.00     0.147 C 
BRANCH  19  21
HETATM   21  N   UNK N   1      31.147  15.285   4.817  0.00  0.00    -0.424 N 
HETATM   22  H   UNK N   1      31.121  14.265   4.805  0.00  0.00     0.150 HD
HETATM   23  H   UNK N   1      31.740  15.782   4.152  0.00  0.00     0.150 HD
ENDBRANCH  19  21
ENDBRANCH   3  14
BRANCH  13  24
HETATM   24  C   UNK N   1      22.943  16.470   4.855  0.00  0.00     0.090 A 
HETATM   25  C   UNK N   1      22.712  15.382   3.808  0.00  0.00     0.028 A 
HETATM   26  C   UNK N   1      21.536  16.141   4.382  0.00  0.00     0.028 A 
ENDBRANCH  13  24
BRANCH  11  27
HETATM   27  C   UNK N   1      21.642  20.473   2.357  0.00  0.00     0.181 C 
HETATM   28  O   UNK N   1      21.034  19.922   1.451  0.00  0.00    -0.646 OA
BRANCH  27  29
HETATM   29  O   UNK N   1      21.321  21.739   2.687  0.00  0.00    -0.772 OA
HETATM   30  H   UNK N   1      20.562  21.912   3.209  0.00  0.00     0.167 HD
ENDBRANCH  27  29
ENDBRANCH  11  27
TORSDOF 5
ENDMDL
MODEL 3
REMARK VINA RESULT:      -7.4      6.726      9.612
REMARK  5 active torsions:
REMARK  status: ('A' for Active; 'I' for Inactive)
REMARK    1  A    between atoms: C_3  and  N_20 
REMARK    2  A    between atoms: C_11  and  C_12 
REMARK    3  A    between atoms: C_12  and  O_14 
REMARK    4  A    between atoms: N_16  and  C_17 
REMARK    5  A    between atoms: C_25  and  N_26 
ROOT
HETATM    1  F   UNK N   1      31.742  15.104   2.719  0.00  0.00    -0.204 F 
HETATM    2  C   UNK N   1      31.465  15.588   3.956  0.00  0.00     0.145 A 
HETATM    3  C   UNK N   1      30.142  15.662   4.460  0.00  0.00     0.093 A 
HETATM    4  C   UNK N   1      29.953  16.215   5.787  0.00  0.00     0.091 A 
HETATM    5 Cl   UNK N   1      28.325  16.235   6.492  0.00  0.00    -0.079 Cl
HETATM    6  C   UNK N   1      31.094  16.698   6.548  0.00  0.00     0.073 A 
HETATM    7  C   UNK N   1      32.384  16.588   5.956  0.00  0.00     0.047 A 
HETATM    8  C   UNK N   1      32.537  16.038   4.693  0.00  0.00     0.062 A 
HETATM    9  C   UNK N   1      33.528  17.035   6.635  0.00  0.00     0.202 A 
HETATM   10  O   UNK N   1      34.628  16.933   6.114  0.00  0.00    -0.286 OA
HETATM   11  C   UNK N   1      33.402  17.600   7.906  0.00  0.00     0.104 A 
HETATM   12  C   UNK N   1      32.135  17.700   8.462  0.00  0.00     0.114 A 
HETATM   13  N   UNK N   1      31.005  17.266   7.823  0.00  0.00    -0.349 N 
ENDROOT
BRANCH   3  14
HETATM   14  N   UNK N   1      29.041  15.182   3.632  0.00  0.00    -0.375 N 
HETATM   15  C   UNK N   1      28.341  16.059   2.713  0.00  0.00     0.123 C 
HETATM   16  C   UNK N   1      26.906  16.302   3.171  0.00  0.00     0.020 C 
HETATM   17  C   UNK N   1      25.962  15.245   2.633  0.00  0.00     0.004 C 
HETATM   18  C   UNK N   1      26.242  13.880   3.235  0.00  0.00     0.026 C 
HETATM   19  C   UNK N   1      27.559  13.330   2.714  0.00  0.00     0.091 C 
HETATM   20  C   UNK N   1      28.717  13.755   3.618  0.00  0.00     0.147 C 
BRANCH  19  21
HETATM   21  N   UNK N   1      27.486  11.881   2.704  0.00  0.00    -0.424 N 
HETATM   22  H   UNK N   1      28.273  11.318   3.026  0.00  0.00     0.150 HD
HETATM   23  H   UNK N   1      26.638  11.420   2.373  0.00  0.00     0.150 HD
ENDBRANCH  19  21
ENDBRANCH   3  14
BRANCH  13  24
HETATM   24  C   UNK N   1      29.717  17.470   8.521  0.00  0.00     0.090 A 
HETATM   25  C   UNK N   1      29.086  18.849   8.336  0.00  0.00     0.028 A 
HETATM   26  C   UNK N   1      29.857  18.533   9.599  0.00  0.00     0.028 A 
ENDBRANCH  13  24
BRANCH  11  27
HETATM   27  C   UNK N   1      34.567  18.110   8.678  0.00  0.00     0.181 C 
HETATM   28  O   UNK N   1      34.891  17.568   9.724  0.00  0.00    -0.646 OA
BRANCH  27  29
HETATM   29  O   UNK N   1      35.274  19.171   8.245  0.00  0.00    -0.772 OA
HETATM   30  H   UNK N   1      35.994  19.497   8.749  0.00  0.00     0.167 HD
ENDBRANCH  27  29
ENDBRANCH  11  27
TORSDOF 5
ENDMDL
MODEL 4
REMARK VINA RESULT:      -7.3     10.923     13.532
REMARK  5 active torsions:
REMARK  status: ('A' for Active; 'I' for Inactive)
REMARK    1  A    between atoms: C_3  and  N_20 
REMARK    2  A    between atoms: C_11  and  C_12 
REMARK    3  A    between atoms: C_12  and  O_14 
REMARK    4  A    between atoms: N_16  and  C_17 
REMARK    5  A    between atoms: C_25  and  N_26 
ROOT
HETATM    1  F   UNK N   1      27.017  21.054   4.422  0.00  0.00    -0.204 F 
HETATM    2  C   UNK N   1      26.046  20.107   4.402  0.00  0.00     0.145 A 
HETATM    3  C   UNK N   1      26.253  18.800   4.914  0.00  0.00     0.093 A 
HETATM    4  C   UNK N   1      25.156  17.857   4.825  0.00  0.00     0.091 A 
HETATM    5 Cl   UNK N   1      25.341  16.244   5.542  0.00  0.00    -0.079 Cl
HETATM    6  C   UNK N   1      23.902  18.250   4.202  0.00  0.00     0.073 A 
HETATM    7  C   UNK N   1      23.790  19.580   3.712  0.00  0.00     0.047 A 
HETATM    8  C   UNK N   1      24.849  20.467   3.826  0.00  0.00     0.062 A 
HETATM    9  C   UNK N   1      22.608  20.024   3.099  0.00  0.00     0.202 A 
HETATM   10  O   UNK N   1      22.527  21.171   2.683  0.00  0.00    -0.286 OA
HETATM   11  C   UNK N   1      21.527  19.150   2.964  0.00  0.00     0.104 A 
HETATM   12  C   UNK N   1      21.660  17.856   3.447  0.00  0.00     0.114 A 
HETATM   13  N   UNK N   1      22.799  17.401   4.054  0.00  0.00    -0.349 N 
ENDROOT
BRANCH   3  14
HETATM   14  N   UNK N   1      27.546  18.467   5.503  0.00  0.00    -0.375 N 
HETATM   15  C   UNK N   1      28.687  18.111   4.682  0.00  0.00     0.123 C 
HETATM   16  C   UNK N   1      29.062  16.644   4.870  0.00  0.00     0.020 C 
HETATM   17  C   UNK N   1      30.031  16.459   6.021  0.00  0.00     0.004 C 
HETATM   18  C   UNK N   1      29.387  16.778   7.358  0.00  0.00     0.026 C 
HETATM   19  C   UNK N   1      29.132  18.270   7.482  0.00  0.00     0.091 C 
HETATM   20  C   UNK N   1      27.745  18.627   6.943  0.00  0.00     0.147 C 
BRANCH  19  21
HETATM   21  N   UNK N   1      29.194  18.638   8.884  0.00  0.00    -0.424 N 
HETATM   22  H   UNK N   1      30.092  18.794   9.341  0.00  0.00     0.150 HD
HETATM   23  H   UNK N   1      28.331  18.744   9.417  0.00  0.00     0.150 HD
ENDBRANCH  19  21
ENDBRANCH   3  14
BRANCH  13  24
HETATM   24  C   UNK N   1      22.812  15.987   4.487  0.00  0.00     0.090 A 
HETATM   25  C   UNK N   1      22.739  14.959   3.360  0.00  0.00     0.028 A 
HETATM   26  C   UNK N   1      21.494  15.312   4.143  0.00  0.00     0.028 A 
ENDBRANCH  13  24
BRANCH  11  27
HETATM   27  C   UNK N   1      20.250  19.546   2.312  0.00  0.00     0.181 C 
HETATM   28  O   UNK N   1      19.183  19.252   2.830  0.00  0.00    -0.646 OA
BRANCH  27  29
HETATM   29  O   UNK N   1      20.248  20.223   1.147  0.00  0.00    -0.772 OA
HETATM   30  H   UNK N   1      20.410  21.146   1.138  0.00  0.00     0.167 HD
ENDBRANCH  27  29
ENDBRANCH  11  27
TORSDOF 5
ENDMDL
MODEL 5
REMARK VINA RESULT:      -6.9      3.010      7.239
REMARK  5 active torsions:
REMARK  status: ('A' for Active; 'I' for Inactive)
REMARK    1  A    between atoms: C_3  and  N_20 
REMARK    2  A    between atoms: C_11  and  C_12 
REMARK    3  A    between atoms: C_12  and  O_14 
REMARK    4  A    between atoms: N_16  and  C_17 
REMARK    5  A    between atoms: C_25  and  N_26 
ROOT
HETATM    1  F   UNK N   1      34.547  17.333   9.526  0.00  0.00    -0.204 F 
HETATM    2  C   UNK N   1      34.695  16.034   9.888  0.00  0.00     0.145 A 
HETATM    3  C   UNK N   1      34.263  14.964   9.064  0.00  0.00     0.093 A 
HETATM    4  C   UNK N   1      34.450  13.613   9.554  0.00  0.00     0.091 A 
HETATM    5 Cl   UNK N   1      34.012  12.246   8.511  0.00  0.00    -0.079 Cl
HETATM    6  C   UNK N   1      35.039  13.385  10.864  0.00  0.00     0.073 A 
HETATM    7  C   UNK N   1      35.437  14.522  11.622  0.00  0.00     0.047 A 
HETATM    8  C   UNK N   1      35.262  15.802  11.121  0.00  0.00     0.062 A 
HETATM    9  C   UNK N   1      36.012  14.373  12.894  0.00  0.00     0.202 A 
HETATM   10  O   UNK N   1      36.349  15.358  13.533  0.00  0.00    -0.286 OA
HETATM   11  C   UNK N   1      36.192  13.095  13.427  0.00  0.00     0.104 A 
HETATM   12  C   UNK N   1      35.795  12.001  12.671  0.00  0.00     0.114 A 
HETATM   13  N   UNK N   1      35.238  12.120  11.426  0.00  0.00    -0.349 N 
ENDROOT
BRANCH   3  14
HETATM   14  N   UNK N   1      33.657  15.267   7.771  0.00  0.00    -0.375 N 
HETATM   15  C   UNK N   1      34.429  15.834   6.682  0.00  0.00     0.123 C 
HETATM   16  C   UNK N   1      33.990  17.264   6.385  0.00  0.00     0.020 C 
HETATM   17  C   UNK N   1      32.849  17.302   5.386  0.00  0.00     0.004 C 
HETATM   18  C   UNK N   1      31.576  16.711   5.964  0.00  0.00     0.026 C 
HETATM   19  C   UNK N   1      31.715  15.208   6.129  0.00  0.00     0.091 C 
HETATM   20  C   UNK N   1      32.274  14.867   7.512  0.00  0.00     0.147 C 
BRANCH  19  21
HETATM   21  N   UNK N   1      30.404  14.601   5.995  0.00  0.00    -0.424 N 
HETATM   22  H   UNK N   1      29.569  15.179   5.911  0.00  0.00     0.150 HD
HETATM   23  H   UNK N   1      30.317  13.584   5.985  0.00  0.00     0.150 HD
ENDBRANCH  19  21
ENDBRANCH   3  14
BRANCH  13  24
HETATM   24  C   UNK N   1      34.827  10.869  10.752  0.00  0.00     0.090 A 
HETATM   25  C   UNK N   1      33.646  10.141  11.389  0.00  0.00     0.028 A 
HETATM   26  C   UNK N   1      35.059   9.672  11.660  0.00  0.00     0.028 A 
ENDBRANCH  13  24
BRANCH  11  27
HETATM   27  C   UNK N   1      36.780  12.862  14.774  0.00  0.00     0.181 C 
HETATM   28  O   UNK N   1      36.521  11.835  15.384  0.00  0.00    -0.646 OA
BRANCH  27  29
HETATM   29  O   UNK N   1      37.593  13.773  15.341  0.00  0.00    -0.772 OA
HETATM   30  H   UNK N   1      38.402  13.506  15.732  0.00  0.00     0.167 HD
ENDBRANCH  27  29
ENDBRANCH  11  27
TORSDOF 5
ENDMDL
MODEL 6
REMARK VINA RESULT:      -6.8     11.796     14.166
REMARK  5 active torsions:
REMARK  status: ('A' for Active; 'I' for Inactive)
REMARK    1  A    between atoms: C_3  and  N_20 
REMARK    2  A    between atoms: C_11  and  C_12 
REMARK    3  A    between atoms: C_12  and  O_14 
REMARK    4  A    between atoms: N_16  and  C_17 
REMARK    5  A    between atoms: C_25  and  N_26 
ROOT
HETATM    1  F   UNK N   1      24.381  18.782   3.557  0.00  0.00    -0.204 F 
HETATM    2  C   UNK N   1      23.948  17.834   4.426  0.00  0.00     0.145 A 
HETATM    3  C   UNK N   1      24.563  16.559   4.522  0.00  0.00     0.093 A 
HETATM    4  C   UNK N   1      24.010  15.611   5.468  0.00  0.00     0.091 A 
HETATM    5 Cl   UNK N   1      24.809  14.042   5.688  0.00  0.00    -0.079 Cl
HETATM    6  C   UNK N   1      22.845  15.965   6.264  0.00  0.00     0.073 A 
HETATM    7  C   UNK N   1      22.294  17.266   6.093  0.00  0.00     0.047 A 
HETATM    8  C   UNK N   1      22.854  18.159   5.194  0.00  0.00     0.062 A 
HETATM    9  C   UNK N   1      21.170  17.672   6.829  0.00  0.00     0.202 A 
HETATM   10  O   UNK N   1      20.708  18.793   6.673  0.00  0.00    -0.286 OA
HETATM   11  C   UNK N   1      20.579  16.790   7.737  0.00  0.00     0.104 A 
HETATM   12  C   UNK N   1      21.133  15.526   7.884  0.00  0.00     0.114 A 
HETATM   13  N   UNK N   1      22.232  15.108   7.183  0.00  0.00    -0.349 N 
ENDROOT
BRANCH   3  14
HETATM   14  N   UNK N   1      25.713  16.262   3.675  0.00  0.00    -0.375 N 
HETATM   15  C   UNK N   1      25.564  15.597   2.394  0.00  0.00     0.123 C 
HETATM   16  C   UNK N   1      26.170  14.198   2.428  0.00  0.00     0.020 C 
HETATM   17  C   UNK N   1      27.643  14.218   2.069  0.00  0.00     0.004 C 
HETATM   18  C   UNK N   1      28.471  14.930   3.123  0.00  0.00     0.026 C 
HETATM   19  C   UNK N   1      28.187  16.422   3.104  0.00  0.00     0.091 C 
HETATM   20  C   UNK N   1      27.035  16.764   4.051  0.00  0.00     0.147 C 
BRANCH  19  21
HETATM   21  N   UNK N   1      29.375  17.128   3.545  0.00  0.00    -0.424 N 
HETATM   22  H   UNK N   1      29.930  17.675   2.887  0.00  0.00     0.150 HD
HETATM   23  H   UNK N   1      29.658  17.078   4.524  0.00  0.00     0.150 HD
ENDBRANCH  19  21
ENDBRANCH   3  14
BRANCH  13  24
HETATM   24  C   UNK N   1      22.689  13.721   7.415  0.00  0.00     0.090 A 
HETATM   25  C   UNK N   1      21.754  12.630   6.898  0.00  0.00     0.028 A 
HETATM   26  C   UNK N   1      21.746  12.999   8.365  0.00  0.00     0.028 A 
ENDBRANCH  13  24
BRANCH  11  27
HETATM   27  C   UNK N   1      19.378  17.146   8.539  0.00  0.00     0.181 C 
HETATM   28  O   UNK N   1      18.488  16.325   8.704  0.00  0.00    -0.646 OA
BRANCH  27  29
HETATM   29  O   UNK N   1      19.249  18.371   9.084  0.00  0.00    -0.772 OA
HETATM   30  H   UNK N   1      18.853  19.066   8.595  0.00  0.00     0.167 HD
ENDBRANCH  27  29
ENDBRANCH  11  27
TORSDOF 5
ENDMDL
MODEL 7
REMARK VINA RESULT:      -6.8     12.641     15.758
REMARK  5 active torsions:
REMARK  status: ('A' for Active; 'I' for Inactive)
REMARK    1  A    between atoms: C_3  and  N_20 
REMARK    2  A    between atoms: C_11  and  C_12 
REMARK    3  A    between atoms: C_12  and  O_14 
REMARK    4  A    between atoms: N_16  and  C_17 
REMARK    5  A    between atoms: C_25  and  N_26 
ROOT
HETATM    1  F   UNK N   1      24.552  16.942   3.599  0.00  0.00    -0.204 F 
HETATM    2  C   UNK N   1      23.798  16.375   4.574  0.00  0.00     0.145 A 
HETATM    3  C   UNK N   1      22.399  16.583   4.665  0.00  0.00     0.093 A 
HETATM    4  C   UNK N   1      21.689  15.948   5.758  0.00  0.00     0.091 A 
HETATM    5 Cl   UNK N   1      19.924  16.104   5.851  0.00  0.00    -0.079 Cl
HETATM    6  C   UNK N   1      22.413  15.148   6.734  0.00  0.00     0.073 A 
HETATM    7  C   UNK N   1      23.818  15.001   6.563  0.00  0.00     0.047 A 
HETATM    8  C   UNK N   1      24.468  15.606   5.498  0.00  0.00     0.062 A 
HETATM    9  C   UNK N   1      24.577  14.243   7.468  0.00  0.00     0.202 A 
HETATM   10  O   UNK N   1      25.783  14.125   7.308  0.00  0.00    -0.286 OA
HETATM   11  C   UNK N   1      23.950  13.630   8.555  0.00  0.00     0.104 A 
HETATM   12  C   UNK N   1      22.580  13.789   8.703  0.00  0.00     0.114 A 
HETATM   13  N   UNK N   1      21.816  14.517   7.830  0.00  0.00    -0.349 N 
ENDROOT
BRANCH   3  14
HETATM   14  N   UNK N   1      21.740  17.418   3.666  0.00  0.00    -0.375 N 
HETATM   15  C   UNK N   1      22.083  18.817   3.498  0.00  0.00     0.123 C 
HETATM   16  C   UNK N   1      20.930  19.720   3.926  0.00  0.00     0.020 C 
HETATM   17  C   UNK N   1      19.970  19.980   2.782  0.00  0.00     0.004 C 
HETATM   18  C   UNK N   1      19.229  18.720   2.370  0.00  0.00     0.026 C 
HETATM   19  C   UNK N   1      20.174  17.746   1.689  0.00  0.00     0.091 C 
HETATM   20  C   UNK N   1      20.812  16.807   2.714  0.00  0.00     0.147 C 
BRANCH  19  21
HETATM   21  N   UNK N   1      19.419  16.952   0.739  0.00  0.00    -0.424 N 
HETATM   22  H   UNK N   1      19.416  15.934   0.797  0.00  0.00     0.150 HD
HETATM   23  H   UNK N   1      18.883  17.417   0.005  0.00  0.00     0.150 HD
ENDBRANCH  19  21
ENDBRANCH   3  14
BRANCH  13  24
HETATM   24  C   UNK N   1      20.374  14.633   8.134  0.00  0.00     0.090 A 
HETATM   25  C   UNK N   1      19.997  15.758   9.095  0.00  0.00     0.028 A 
HETATM   26  C   UNK N   1      20.112  14.338   9.603  0.00  0.00     0.028 A 
ENDBRANCH  13  24
BRANCH  11  27
HETATM   27  C   UNK N   1      24.693  12.826   9.562  0.00  0.00     0.181 C 
HETATM   28  O   UNK N   1      24.482  11.626   9.663  0.00  0.00    -0.646 OA
BRANCH  27  29
HETATM   29  O   UNK N   1      25.597  13.402  10.378  0.00  0.00    -0.772 OA
HETATM   30  H   UNK N   1      26.181  12.872  10.885  0.00  0.00     0.167 HD
ENDBRANCH  27  29
ENDBRANCH  11  27
TORSDOF 5
ENDMDL
MODEL 8
REMARK VINA RESULT:      -6.7      7.512     10.803
REMARK  5 active torsions:
REMARK  status: ('A' for Active; 'I' for Inactive)
REMARK    1  A    between atoms: C_3  and  N_20 
REMARK    2  A    between atoms: C_11  and  C_12 
REMARK    3  A    between atoms: C_12  and  O_14 
REMARK    4  A    between atoms: N_16  and  C_17 
REMARK    5  A    between atoms: C_25  and  N_26 
ROOT
HETATM    1  F   UNK N   1      28.795  15.408   1.838  0.00  0.00    -0.204 F 
HETATM    2  C   UNK N   1      29.072  15.770   3.115  0.00  0.00     0.145 A 
HETATM    3  C   UNK N   1      28.055  15.964   4.084  0.00  0.00     0.093 A 
HETATM    4  C   UNK N   1      28.457  16.372   5.416  0.00  0.00     0.091 A 
HETATM    5 Cl   UNK N   1      27.223  16.530   6.682  0.00  0.00    -0.079 Cl
HETATM    6  C   UNK N   1      29.861  16.595   5.720  0.00  0.00     0.073 A 
HETATM    7  C   UNK N   1      30.809  16.380   4.681  0.00  0.00     0.047 A 
HETATM    8  C   UNK N   1      30.398  15.974   3.421  0.00  0.00     0.062 A 
HETATM    9  C   UNK N   1      32.181  16.577   4.907  0.00  0.00     0.202 A 
HETATM   10  O   UNK N   1      32.983  16.388   4.005  0.00  0.00    -0.286 OA
HETATM   11  C   UNK N   1      32.623  16.995   6.164  0.00  0.00     0.104 A 
HETATM   12  C   UNK N   1      31.680  17.200   7.161  0.00  0.00     0.114 A 
HETATM   13  N   UNK N   1      30.338  17.009   6.968  0.00  0.00    -0.349 N 
ENDROOT
BRANCH   3  14
HETATM   14  N   UNK N   1      26.663  15.747   3.702  0.00  0.00    -0.375 N 
HETATM   15  C   UNK N   1      25.875  16.788   3.071  0.00  0.00     0.123 C 
HETATM   16  C   UNK N   1      24.766  17.275   3.997  0.00  0.00     0.020 C 
HETATM   17  C   UNK N   1      23.505  16.447   3.844  0.00  0.00     0.004 C 
HETATM   18  C   UNK N   1      23.703  15.024   4.334  0.00  0.00     0.026 C 
HETATM   19  C   UNK N   1      24.621  14.261   3.396  0.00  0.00     0.091 C 
HETATM   20  C   UNK N   1      26.081  14.411   3.829  0.00  0.00     0.147 C 
BRANCH  19  21
HETATM   21  N   UNK N   1      24.266  12.855   3.438  0.00  0.00    -0.424 N 
HETATM   22  H   UNK N   1      23.958  12.370   2.596  0.00  0.00     0.150 HD
HETATM   23  H   UNK N   1      24.327  12.345   4.320  0.00  0.00     0.150 HD
ENDBRANCH  19  21
ENDBRANCH   3  14
BRANCH  13  24
HETATM   24  C   UNK N   1      29.446  17.302   8.110  0.00  0.00     0.090 A 
HETATM   25  C   UNK N   1      29.082  18.775   8.293  0.00  0.00     0.028 A 
HETATM   26  C   UNK N   1      30.166  18.152   9.145  0.00  0.00     0.028 A 
ENDBRANCH  13  24
BRANCH  11  27
HETATM   27  C   UNK N   1      34.058  17.239   6.471  0.00  0.00     0.181 C 
HETATM   28  O   UNK N   1      34.395  18.267   7.040  0.00  0.00    -0.646 OA
BRANCH  27  29
HETATM   29  O   UNK N   1      35.002  16.344   6.123  0.00  0.00    -0.772 OA
HETATM   30  H   UNK N   1      34.764  15.557   5.673  0.00  0.00     0.167 HD
ENDBRANCH  27  29
ENDBRANCH  11  27
TORSDOF 5
ENDMDL
MODEL 9
REMARK VINA RESULT:      -6.6      6.457      9.306
REMARK  5 active torsions:
REMARK  status: ('A' for Active; 'I' for Inactive)
REMARK    1  A    between atoms: C_3  and  N_20 
REMARK    2  A    between atoms: C_11  and  C_12 
REMARK    3  A    between atoms: C_12  and  O_14 
REMARK    4  A    between atoms: N_16  and  C_17 
REMARK    5  A    between atoms: C_25  and  N_26 
ROOT
HETATM    1  F   UNK N   1      27.723  17.132   6.498  0.00  0.00    -0.204 F 
HETATM    2  C   UNK N   1      29.016  16.820   6.231  0.00  0.00     0.145 A 
HETATM    3  C   UNK N   1      29.382  15.960   5.164  0.00  0.00     0.093 A 
HETATM    4  C   UNK N   1      30.791  15.675   4.977  0.00  0.00     0.091 A 
HETATM    5 Cl   UNK N   1      31.297  14.683   3.595  0.00  0.00    -0.079 Cl
HETATM    6  C   UNK N   1      31.779  16.241   5.883  0.00  0.00     0.073 A 
HETATM    7  C   UNK N   1      31.315  17.088   6.928  0.00  0.00     0.047 A 
HETATM    8  C   UNK N   1      29.963  17.357   7.072  0.00  0.00     0.062 A 
HETATM    9  C   UNK N   1      32.215  17.666   7.837  0.00  0.00     0.202 A 
HETATM   10  O   UNK N   1      31.802  18.392   8.729  0.00  0.00    -0.286 OA
HETATM   11  C   UNK N   1      33.582  17.405   7.720  0.00  0.00     0.104 A 
HETATM   12  C   UNK N   1      34.010  16.574   6.695  0.00  0.00     0.114 A 
HETATM   13  N   UNK N   1      33.154  16.003   5.792  0.00  0.00    -0.349 N 
ENDROOT
BRANCH   3  14
HETATM   14  N   UNK N   1      28.336  15.408   4.310  0.00  0.00    -0.375 N 
HETATM   15  C   UNK N   1      27.913  16.077   3.095  0.00  0.00     0.123 C 
HETATM   16  C   UNK N   1      26.488  16.606   3.228  0.00  0.00     0.020 C 
HETATM   17  C   UNK N   1      25.465  15.563   2.822  0.00  0.00     0.004 C 
HETATM   18  C   UNK N   1      25.442  14.392   3.787  0.00  0.00     0.026 C 
HETATM   19  C   UNK N   1      26.709  13.567   3.652  0.00  0.00     0.091 C 
HETATM   20  C   UNK N   1      27.792  14.081   4.601  0.00  0.00     0.147 C 
BRANCH  19  21
HETATM   21  N   UNK N   1      26.407  12.190   3.995  0.00  0.00    -0.424 N 
HETATM   22  H   UNK N   1      25.665  11.969   4.658  0.00  0.00     0.150 HD
HETATM   23  H   UNK N   1      26.942  11.434   3.566  0.00  0.00     0.150 HD
ENDBRANCH  19  21
ENDBRANCH   3  14
BRANCH  13  24
HETATM   24  C   UNK N   1      33.748  15.109   4.775  0.00  0.00     0.090 A 
HETATM   25  C   UNK N   1      34.114  13.711   5.268  0.00  0.00     0.028 A 
HETATM   26  C   UNK N   1      35.186  14.771   5.136  0.00  0.00     0.028 A 
ENDBRANCH  13  24
BRANCH  11  27
HETATM   27  C   UNK N   1      34.591  17.970   8.656  0.00  0.00     0.181 C 
HETATM   28  O   UNK N   1      34.872  17.373   9.685  0.00  0.00    -0.646 OA
BRANCH  27  29
HETATM   29  O   UNK N   1      35.200  19.142   8.392  0.00  0.00    -0.772 OA
HETATM   30  H   UNK N   1      34.935  19.923   8.838  0.00  0.00     0.167 HD
ENDBRANCH  27  29
ENDBRANCH  11  27
TORSDOF 5
ENDMDL
