MODEL 1
REMARK VINA RESULT:      -8.5      0.000      0.000
REMARK WARNING: 32 MAX_TORS EXCEEDED!!!
REMARK  35 active torsions:
REMARK  status: ('A' for Active; 'I' for Inactive)
REMARK    1  A    between atoms: C_7  and  C_10 
REMARK    2  A    between atoms: C_17  and  C_10 
REMARK    3  A    between atoms: C_12  and  C_11 
REMARK       I    between atoms: C_11  and  N_73 
REMARK    4  A    between atoms: N_14  and  C_12 
REMARK    5  A    between atoms: C_12  and  C_69 
REMARK       I    between atoms: C_16  and  N_14 
REMARK    6  A    between atoms: C_16  and  C_17 
REMARK    7  A    between atoms: C_17  and  N_18 
REMARK       I    between atoms: N_18  and  C_19 
REMARK    8  A    between atoms: C_19  and  C_20 
REMARK    9  A    between atoms: C_20  and  C_22 
REMARK   10  A    between atoms: C_20  and  N_23 
REMARK   11  A    between atoms: C_22  and  C_24 
REMARK       I    between atoms: N_23  and  C_31 
REMARK   12  A    between atoms: C_29  and  O_30 
REMARK   13  A    between atoms: C_31  and  C_32 
REMARK   14  A    between atoms: C_32  and  N_33 
REMARK   15  A    between atoms: C_32  and  C_34 
REMARK       I    between atoms: N_33  and  C_36 
REMARK   16  A    between atoms: C_34  and  O_97 
REMARK   17  A    between atoms: C_36  and  C_37 
REMARK   18  A    between atoms: C_37  and  C_38 
REMARK   19  A    between atoms: C_37  and  N_49 
REMARK   20  A    between atoms: C_38  and  C_39 
REMARK       I    between atoms: N_49  and  C_50 
REMARK   21  A    between atoms: C_50  and  C_51 
REMARK   22  A    between atoms: C_51  and  C_53 
REMARK   23  A    between atoms: N_60  and  C_51 
REMARK   24  A    between atoms: C_53  and  C_54 
REMARK       I    between atoms: N_60  and  C_61 
REMARK   25  A    between atoms: C_63  and  C_61 
REMARK   26  A    between atoms: C_69  and  C_70 
REMARK   27  A    between atoms: N_73  and  C_74 
REMARK   28  A    between atoms: C_74  and  C_75 
REMARK   29  A    between atoms: C_74  and  C_78 
REMARK       I    between atoms: C_75  and  N_76 
REMARK   30  A    between atoms: C_78  and  C_79 
REMARK   31  A    between atoms: C_79  and  C_80 
REMARK   32  A    between atoms: C_80  and  N_81 
REMARK       I    between atoms: N_81  and  C_82 
REMARK       I    between atoms: C_82  and  N_83 
REMARK   33  A    between atoms: C_88  and  C_92 
REMARK   34  A    between atoms: N_93  and  C_91 
REMARK   35  A    between atoms: C_91  and  C_94 
REMARK       I    between atoms: N_93  and  C_92 
REMARK       I    between atoms: C_94  and  N_95 
ROOT
HETATM    1  N   UNK N   1      27.368  15.657   4.676  0.00  0.00    -0.346 N 
HETATM    2  C   UNK N   1      26.033  15.420   4.778  0.00  0.00     0.241 C 
HETATM    3  O   UNK N   1      25.603  14.561   5.532  0.00  0.00    -0.271 OA
HETATM    4  H   UNK N   1      27.672  16.307   4.002  0.00  0.00     0.163 HD
ENDROOT
BRANCH   2   5
HETATM    5  C   UNK N   1      25.069  16.212   3.978  0.00  0.00     0.180 C 
BRANCH   5   6
HETATM    6  C   UNK N   1      25.627  17.589   3.626  0.00  0.00     0.073 C 
BRANCH   6   7
HETATM    7  C   UNK N   1      24.566  18.620   3.398  0.00  0.00    -0.056 A 
HETATM    8  C   UNK N   1      24.915  19.813   2.787  0.00  0.00     0.010 A 
HETATM    9  C   UNK N   1      23.956  20.806   2.594  0.00  0.00     0.037 A 
HETATM   10  C   UNK N   1      22.642  20.610   3.003  0.00  0.00     0.065 A 
HETATM   11  C   UNK N   1      22.281  19.416   3.625  0.00  0.00     0.037 A 
HETATM   12  C   UNK N   1      23.244  18.425   3.831  0.00  0.00     0.010 A 
BRANCH  10  13
HETATM   13  O   UNK N   1      21.729  21.572   2.796  0.00  0.00    -0.361 OA
HETATM   14  H   UNK N   1      20.800  21.598   2.682  0.00  0.00     0.217 HD
ENDBRANCH  10  13
ENDBRANCH   6   7
ENDBRANCH   5   6
BRANCH   5  15
HETATM   15  N   UNK N   1      24.630  15.548   2.778  0.00  0.00    -0.346 N 
HETATM   16  C   UNK N   1      23.340  15.183   2.577  0.00  0.00     0.243 C 
HETATM   17  O   UNK N   1      23.030  14.727   1.490  0.00  0.00    -0.271 OA
HETATM   18  H   UNK N   1      25.293  15.353   2.075  0.00  0.00     0.163 HD
BRANCH  16  19
HETATM   19  C   UNK N   1      22.300  15.237   3.690  0.00  0.00     0.200 C 
BRANCH  19  20
HETATM   20  N   UNK N   1      22.439  14.357   4.806  0.00  0.00    -0.344 N 
HETATM   21  C   UNK N   1      22.323  14.719   6.101  0.00  0.00     0.241 C 
HETATM   22  O   UNK N   1      22.374  15.888   6.449  0.00  0.00    -0.271 OA
HETATM   23  H   UNK N   1      22.635  13.411   4.615  0.00  0.00     0.163 HD
BRANCH  21  24
HETATM   24  C   UNK N   1      21.889  13.672   7.061  0.00  0.00     0.181 C 
BRANCH  24  25
HETATM   25  C   UNK N   1      21.095  14.399   8.172  0.00  0.00     0.075 C 
BRANCH  25  26
HETATM   26  C   UNK N   1      21.324  13.669   9.487  0.00  0.00    -0.028 A 
HETATM   27  C   UNK N   1      20.321  13.163  10.304  0.00  0.00     0.096 A 
HETATM   28  N   UNK N   1      20.871  12.416  11.298  0.00  0.00    -0.365 N 
HETATM   29  C   UNK N   1      22.200  12.438  11.098  0.00  0.00     0.042 A 
HETATM   30  H   UNK N   1      20.391  11.950  12.021  0.00  0.00     0.165 HD
HETATM   31  C   UNK N   1      23.166  11.748  11.829  0.00  0.00     0.030 A 
HETATM   32  C   UNK N   1      22.520  13.204  10.014  0.00  0.00    -0.002 A 
HETATM   33  C   UNK N   1      24.508  11.863  11.422  0.00  0.00     0.002 A 
HETATM   34  C   UNK N   1      24.846  12.665  10.312  0.00  0.00     0.001 A 
HETATM   35  C   UNK N   1      23.841  13.346   9.597  0.00  0.00     0.014 A 
ENDBRANCH  25  26
ENDBRANCH  24  25
BRANCH  24  36
HETATM   36  N   UNK N   1      21.094  12.756   6.274  0.00  0.00    -0.346 N 
HETATM   37  C   UNK N   1      21.377  11.433   6.232  0.00  0.00     0.241 C 
HETATM   38  O   UNK N   1      22.102  10.931   7.077  0.00  0.00    -0.271 OA
HETATM   39  H   UNK N   1      20.329  13.101   5.760  0.00  0.00     0.163 HD
BRANCH  37  40
HETATM   40  C   UNK N   1      21.043  10.642   4.999  0.00  0.00     0.182 C 
BRANCH  40  41
HETATM   41  C   UNK N   1      19.534  10.318   4.961  0.00  0.00     0.093 C 
BRANCH  41  42
HETATM   42  C   UNK N   1      18.792  10.497   3.667  0.00  0.00     0.028 A 
HETATM   43  N   UNK N   1      19.174   9.889   2.534  0.00  0.00    -0.354 N 
HETATM   44  C   UNK N   1      18.210  10.173   1.640  0.00  0.00     0.180 A 
ATOM     45  HN  UNK N   1      20.015   9.332   2.384  1.00  0.00     0.166 HD
HETATM   46  N   UNK N   1      17.237  10.938   2.176  0.00  0.00    -0.360 N 
HETATM   47  C   UNK N   1      17.592  11.139   3.458  0.00  0.00     0.114 A 
HETATM   48  H   UNK N   1      16.434  11.280   1.721  0.00  0.00     0.166 HD
ENDBRANCH  41  42
ENDBRANCH  40  41
BRANCH  40  49
HETATM   49  N   UNK N   1      21.974   9.559   4.686  0.00  0.00    -0.346 N 
HETATM   50  C   UNK N   1      23.188   9.691   4.066  0.00  0.00     0.241 C 
HETATM   51  O   UNK N   1      23.912   8.714   3.961  0.00  0.00    -0.271 OA
HETATM   52  H   UNK N   1      21.703   8.649   4.947  0.00  0.00     0.163 HD
BRANCH  50  53
HETATM   53  C   UNK N   1      23.622  10.993   3.443  0.00  0.00     0.177 C 
HETATM   54  C   UNK N   1      25.049  11.478   3.721  0.00  0.00     0.044 C 
HETATM   55  C   UNK N   1      25.529  12.116   2.400  0.00  0.00     0.105 C 
HETATM   56  C   UNK N   1      24.514  11.620   1.444  0.00  0.00     0.218 C 
HETATM   57  N   UNK N   1      23.498  10.985   2.017  0.00  0.00    -0.348 N 
HETATM   58  O   UNK N   1      24.573  11.796   0.238  0.00  0.00    -0.274 OA
HETATM   59  H   UNK N   1      22.758  10.562   1.525  0.00  0.00     0.163 HD
ENDBRANCH  50  53
ENDBRANCH  40  49
ENDBRANCH  37  40
ENDBRANCH  24  36
ENDBRANCH  21  24
ENDBRANCH  19  20
BRANCH  19  60
HETATM   60  C   UNK N   1      20.819  15.527   3.475  0.00  0.00     0.199 C 
BRANCH  60  61
HETATM   61  O   UNK N   1      20.492  15.411   2.126  0.00  0.00    -0.398 OA
HETATM   62  H   UNK N   1      20.818  14.708   1.542  0.00  0.00     0.209 HD
ENDBRANCH  60  61
ENDBRANCH  19  60
ENDBRANCH  16  19
ENDBRANCH   5  15
ENDBRANCH   2   5
BRANCH   1  63
HETATM   63  C   UNK N   1      28.368  15.009   5.500  0.00  0.00     0.181 C 
BRANCH  63  64
HETATM   64  C   UNK N   1      29.296  14.235   4.617  0.00  0.00     0.241 C 
HETATM   65  N   UNK N   1      29.718  13.003   4.986  0.00  0.00    -0.346 N 
HETATM   66  H   UNK N   1      29.415  12.626   5.844  0.00  0.00     0.163 HD
HETATM   67  O   UNK N   1      29.692  14.728   3.569  0.00  0.00    -0.271 OA
BRANCH  65  68
HETATM   68  C   UNK N   1      30.608  12.226   4.145  0.00  0.00     0.177 C 
BRANCH  68  69
HETATM   69  C   UNK N   1      31.595  11.495   5.051  0.00  0.00     0.241 C 
HETATM   70  O   UNK N   1      31.213  10.454   5.561  0.00  0.00    -0.271 OA
HETATM   71  N   UNK N   1      32.870  11.904   5.314  0.00  0.00    -0.346 N 
HETATM   72  H   UNK N   1      33.420  11.305   5.870  0.00  0.00     0.163 HD
BRANCH  71  73
HETATM   73  C   UNK N   1      33.498  13.124   4.859  0.00  0.00     0.176 C 
BRANCH  73  74
HETATM   74  C   UNK N   1      32.929  14.361   5.486  0.00  0.00     0.243 C 
HETATM   75  N   UNK N   1      32.697  15.517   4.787  0.00  0.00    -0.337 N 
HETATM   76  C   UNK N   1      32.867  15.627   3.362  0.00  0.00     0.127 A 
HETATM   77  C   UNK N   1      32.251  16.723   5.427  0.00  0.00     0.179 A 
HETATM   78  C   UNK N   1      32.438  17.037   3.004  0.00  0.00     0.022 A 
HETATM   79  C   UNK N   1      31.983  17.704   4.297  0.00  0.00     0.037 A 
HETATM   80  O   UNK N   1      32.699  14.330   6.691  0.00  0.00    -0.271 OA
BRANCH  77  81
HETATM   81  C   UNK N   1      33.310  17.288   6.353  0.00  0.00     0.241 C 
HETATM   82  O   UNK N   1      34.319  17.780   5.875  0.00  0.00    -0.271 OA
HETATM   83  N   UNK N   1      33.134  17.258   7.701  0.00  0.00    -0.351 N 
HETATM   84  H   UNK N   1      32.309  16.862   8.065  0.00  0.00     0.163 HD
BRANCH  83  85
HETATM   85  C   UNK N   1      34.116  17.789   8.614  0.00  0.00     0.225 C 
BRANCH  85  86
HETATM   86  C   UNK N   1      34.543  16.737   9.583  0.00  0.00     0.233 C 
HETATM   87  N   UNK N   1      35.135  17.094  10.738  0.00  0.00    -0.369 N 
HETATM   88  H   UNK N   1      34.950  16.778  11.652  0.00  0.00     0.159 HD
HETATM   89  H   UNK N   1      35.852  17.764  10.658  0.00  0.00     0.159 HD
HETATM   90  O   UNK N   1      34.377  15.557   9.323  0.00  0.00    -0.272 OA
ENDBRANCH  85  86
ENDBRANCH  83  85
ENDBRANCH  77  81
ENDBRANCH  73  74
BRANCH  73  91
HETATM   91  C   UNK N   1      35.029  13.108   4.742  0.00  0.00     0.036 C 
BRANCH  91  92
HETATM   92  C   UNK N   1      35.780  14.332   5.265  0.00  0.00     0.023 C 
BRANCH  92  93
HETATM   93  C   UNK N   1      36.919  14.053   6.232  0.00  0.00     0.138 C 
BRANCH  93  94
HETATM   94  N   UNK N   1      36.442  14.133   7.597  0.00  0.00    -0.227 N 
HETATM   95  C   UNK N   1      36.944  13.320   8.650  0.00  0.00     0.665 C 
HETATM   96  N   UNK N   1      37.974  12.381   8.413  0.00  0.00    -0.235 N 
HETATM   97  N   UNK N   1      36.415  13.396   9.815  0.00  0.00    -0.235 N 
HETATM   98  H   UNK N   1      38.938  12.245   8.559  0.00  0.00     0.174 HD
HETATM   99  H   UNK N   1      37.601  11.600   7.943  0.00  0.00     0.174 HD
HETATM  100  H   UNK N   1      35.892  13.911  10.471  0.00  0.00     0.174 HD
ATOM    101  HN  UNK N   1      36.639  12.513  10.275  1.00  0.00     0.174 HD
HETATM  102  H   UNK N   1      35.734  14.783   7.806  0.00  0.00     0.177 HD
ENDBRANCH  93  94
ENDBRANCH  92  93
ENDBRANCH  91  92
ENDBRANCH  73  91
ENDBRANCH  71  73
ENDBRANCH  68  69
BRANCH  68 103
HETATM  103  C   UNK N   1      29.805  11.366   3.150  0.00  0.00     0.038 C 
BRANCH 103 104
HETATM  104  C   UNK N   1      30.153  11.573   1.676  0.00  0.00    -0.020 C 
HETATM  105  C   UNK N   1      31.463  12.316   1.484  0.00  0.00     0.009 C 
HETATM  106  C   UNK N   1      29.057  12.401   1.043  0.00  0.00     0.009 C 
ENDBRANCH 103 104
ENDBRANCH  68 103
ENDBRANCH  65  68
ENDBRANCH  63  64
BRANCH  63 107
HETATM  107  C   UNK N   1      29.197  15.994   6.330  0.00  0.00     0.075 C 
BRANCH 107 108
HETATM  108  C   UNK N   1      28.552  17.243   6.862  0.00  0.00    -0.028 A 
HETATM  109  C   UNK N   1      28.255  18.452   6.261  0.00  0.00    -0.002 A 
HETATM  110  C   UNK N   1      28.435  18.928   4.961  0.00  0.00     0.014 A 
HETATM  111  C   UNK N   1      27.699  19.241   7.231  0.00  0.00     0.042 A 
HETATM  112  C   UNK N   1      28.035  20.246   4.675  0.00  0.00     0.001 A 
HETATM  113  C   UNK N   1      27.464  21.052   5.683  0.00  0.00     0.002 A 
HETATM  114  C   UNK N   1      27.290  20.546   6.982  0.00  0.00     0.030 A 
HETATM  115  N   UNK N   1      27.627  18.590   8.404  0.00  0.00    -0.365 N 
HETATM  116  C   UNK N   1      28.151  17.360   8.187  0.00  0.00     0.096 A 
HETATM  117  H   UNK N   1      27.264  18.937   9.251  0.00  0.00     0.165 HD
ENDBRANCH 107 108
ENDBRANCH  63 107
ENDBRANCH   1  63
TORSDOF 35
ENDMDL
MODEL 2
REMARK VINA RESULT:      -8.5      2.524      6.692
REMARK WARNING: 32 MAX_TORS EXCEEDED!!!
REMARK  35 active torsions:
REMARK  status: ('A' for Active; 'I' for Inactive)
REMARK    1  A    between atoms: C_7  and  C_10 
REMARK    2  A    between atoms: C_17  and  C_10 
REMARK    3  A    between atoms: C_12  and  C_11 
REMARK       I    between atoms: C_11  and  N_73 
REMARK    4  A    between atoms: N_14  and  C_12 
REMARK    5  A    between atoms: C_12  and  C_69 
REMARK       I    between atoms: C_16  and  N_14 
REMARK    6  A    between atoms: C_16  and  C_17 
REMARK    7  A    between atoms: C_17  and  N_18 
REMARK       I    between atoms: N_18  and  C_19 
REMARK    8  A    between atoms: C_19  and  C_20 
REMARK    9  A    between atoms: C_20  and  C_22 
REMARK   10  A    between atoms: C_20  and  N_23 
REMARK   11  A    between atoms: C_22  and  C_24 
REMARK       I    between atoms: N_23  and  C_31 
REMARK   12  A    between atoms: C_29  and  O_30 
REMARK   13  A    between atoms: C_31  and  C_32 
REMARK   14  A    between atoms: C_32  and  N_33 
REMARK   15  A    between atoms: C_32  and  C_34 
REMARK       I    between atoms: N_33  and  C_36 
REMARK   16  A    between atoms: C_34  and  O_97 
REMARK   17  A    between atoms: C_36  and  C_37 
REMARK   18  A    between atoms: C_37  and  C_38 
REMARK   19  A    between atoms: C_37  and  N_49 
REMARK   20  A    between atoms: C_38  and  C_39 
REMARK       I    between atoms: N_49  and  C_50 
REMARK   21  A    between atoms: C_50  and  C_51 
REMARK   22  A    between atoms: C_51  and  C_53 
REMARK   23  A    between atoms: N_60  and  C_51 
REMARK   24  A    between atoms: C_53  and  C_54 
REMARK       I    between atoms: N_60  and  C_61 
REMARK   25  A    between atoms: C_63  and  C_61 
REMARK   26  A    between atoms: C_69  and  C_70 
REMARK   27  A    between atoms: N_73  and  C_74 
REMARK   28  A    between atoms: C_74  and  C_75 
REMARK   29  A    between atoms: C_74  and  C_78 
REMARK       I    between atoms: C_75  and  N_76 
REMARK   30  A    between atoms: C_78  and  C_79 
REMARK   31  A    between atoms: C_79  and  C_80 
REMARK   32  A    between atoms: C_80  and  N_81 
REMARK       I    between atoms: N_81  and  C_82 
REMARK       I    between atoms: C_82  and  N_83 
REMARK   33  A    between atoms: C_88  and  C_92 
REMARK   34  A    between atoms: N_93  and  C_91 
REMARK   35  A    between atoms: C_91  and  C_94 
REMARK       I    between atoms: N_93  and  C_92 
REMARK       I    between atoms: C_94  and  N_95 
ROOT
HETATM    1  N   UNK N   1      29.972  13.988   3.872  0.00  0.00    -0.346 N 
HETATM    2  C   UNK N   1      30.272  12.667   3.986  0.00  0.00     0.241 C 
HETATM    3  O   UNK N   1      30.867  12.240   4.965  0.00  0.00    -0.271 OA
HETATM    4  H   UNK N   1      29.559  14.297   3.033  0.00  0.00     0.163 HD
ENDROOT
BRANCH   2   5
HETATM    5  C   UNK N   1      29.874  11.713   2.924  0.00  0.00     0.180 C 
BRANCH   5   6
HETATM    6  C   UNK N   1      31.090  11.073   2.259  0.00  0.00     0.073 C 
BRANCH   6   7
HETATM    7  C   UNK N   1      31.137  11.284   0.778  0.00  0.00    -0.056 A 
HETATM    8  C   UNK N   1      30.077  10.835   0.006  0.00  0.00     0.010 A 
HETATM    9  C   UNK N   1      30.110  10.985  -1.379  0.00  0.00     0.037 A 
HETATM   10  C   UNK N   1      31.194  11.593  -2.001  0.00  0.00     0.065 A 
HETATM   11  C   UNK N   1      32.268  12.043  -1.234  0.00  0.00     0.037 A 
HETATM   12  C   UNK N   1      32.245  11.880   0.152  0.00  0.00     0.010 A 
BRANCH  10  13
HETATM   13  O   UNK N   1      31.201  11.743  -3.334  0.00  0.00    -0.361 OA
HETATM   14  H   UNK N   1      31.847  11.947  -3.981  0.00  0.00     0.217 HD
ENDBRANCH  10  13
ENDBRANCH   6   7
ENDBRANCH   5   6
BRANCH   5  15
HETATM   15  N   UNK N   1      28.974  10.685   3.378  0.00  0.00    -0.346 N 
HETATM   16  C   UNK N   1      27.651  10.693   3.086  0.00  0.00     0.243 C 
HETATM   17  O   UNK N   1      26.979   9.729   3.412  0.00  0.00    -0.271 OA
HETATM   18  H   UNK N   1      29.335   9.945   3.920  0.00  0.00     0.163 HD
BRANCH  16  19
HETATM   19  C   UNK N   1      26.968  11.901   2.454  0.00  0.00     0.200 C 
BRANCH  19  20
HETATM   20  N   UNK N   1      26.579  12.988   3.292  0.00  0.00    -0.344 N 
HETATM   21  C   UNK N   1      26.713  14.295   2.984  0.00  0.00     0.241 C 
HETATM   22  O   UNK N   1      27.444  14.671   2.080  0.00  0.00    -0.271 OA
HETATM   23  H   UNK N   1      26.181  12.768   4.165  0.00  0.00     0.163 HD
BRANCH  21  24
HETATM   24  C   UNK N   1      25.760  15.243   3.616  0.00  0.00     0.181 C 
BRANCH  24  25
HETATM   25  C   UNK N   1      25.813  16.543   2.778  0.00  0.00     0.075 C 
BRANCH  25  26
HETATM   26  C   UNK N   1      25.474  17.716   3.683  0.00  0.00    -0.028 A 
HETATM   27  C   UNK N   1      24.260  17.899   4.333  0.00  0.00     0.096 A 
HETATM   28  N   UNK N   1      24.355  18.942   5.199  0.00  0.00    -0.365 N 
HETATM   29  C   UNK N   1      25.616  19.399   5.107  0.00  0.00     0.042 A 
HETATM   30  H   UNK N   1      23.641  19.293   5.780  0.00  0.00     0.165 HD
HETATM   31  C   UNK N   1      26.193  20.417   5.866  0.00  0.00     0.030 A 
HETATM   32  C   UNK N   1      26.327  18.690   4.182  0.00  0.00    -0.002 A 
HETATM   33  C   UNK N   1      27.552  20.708   5.651  0.00  0.00     0.002 A 
HETATM   34  C   UNK N   1      28.289  19.990   4.687  0.00  0.00     0.001 A 
HETATM   35  C   UNK N   1      27.670  18.967   3.940  0.00  0.00     0.014 A 
ENDBRANCH  25  26
ENDBRANCH  24  25
BRANCH  24  36
HETATM   36  N   UNK N   1      24.482  14.567   3.570  0.00  0.00    -0.346 N 
HETATM   37  C   UNK N   1      23.778  14.312   4.697  0.00  0.00     0.241 C 
HETATM   38  O   UNK N   1      24.041  14.901   5.734  0.00  0.00    -0.271 OA
HETATM   39  H   UNK N   1      24.115  14.289   2.700  0.00  0.00     0.163 HD
BRANCH  37  40
HETATM   40  C   UNK N   1      22.877  13.111   4.752  0.00  0.00     0.182 C 
BRANCH  40  41
HETATM   41  C   UNK N   1      23.044  12.256   3.478  0.00  0.00     0.093 C 
BRANCH  41  42
HETATM   42  C   UNK N   1      21.977  12.325   2.421  0.00  0.00     0.028 A 
HETATM   43  N   UNK N   1      21.944  13.302   1.502  0.00  0.00    -0.354 N 
HETATM   44  C   UNK N   1      20.949  12.960   0.662  0.00  0.00     0.180 A 
ATOM     45  HN  UNK N   1      22.543  14.126   1.452  1.00  0.00     0.166 HD
HETATM   46  N   UNK N   1      20.360  11.802   1.026  0.00  0.00    -0.360 N 
HETATM   47  C   UNK N   1      21.010  11.390   2.129  0.00  0.00     0.114 A 
HETATM   48  H   UNK N   1      19.609  11.353   0.576  0.00  0.00     0.166 HD
ENDBRANCH  41  42
ENDBRANCH  40  41
BRANCH  40  49
HETATM   49  N   UNK N   1      21.515  13.379   5.212  0.00  0.00    -0.346 N 
HETATM   50  C   UNK N   1      21.045  13.211   6.488  0.00  0.00     0.241 C 
HETATM   51  O   UNK N   1      19.912  13.574   6.757  0.00  0.00    -0.271 OA
HETATM   52  H   UNK N   1      20.876  13.713   4.541  0.00  0.00     0.163 HD
BRANCH  50  53
HETATM   53  C   UNK N   1      21.864  12.522   7.549  0.00  0.00     0.177 C 
HETATM   54  C   UNK N   1      22.612  11.242   7.156  0.00  0.00     0.044 C 
HETATM   55  C   UNK N   1      23.955  11.304   7.914  0.00  0.00     0.105 C 
HETATM   56  C   UNK N   1      23.988  12.720   8.345  0.00  0.00     0.218 C 
HETATM   57  N   UNK N   1      22.860  13.380   8.114  0.00  0.00    -0.348 N 
HETATM   58  O   UNK N   1      24.947  13.241   8.891  0.00  0.00    -0.274 OA
HETATM   59  H   UNK N   1      22.726  14.337   8.305  0.00  0.00     0.163 HD
ENDBRANCH  50  53
ENDBRANCH  40  49
ENDBRANCH  37  40
ENDBRANCH  24  36
ENDBRANCH  21  24
ENDBRANCH  19  20
BRANCH  19  60
HETATM   60  C   UNK N   1      26.015  11.830   1.266  0.00  0.00     0.199 C 
BRANCH  60  61
HETATM   61  O   UNK N   1      25.354  10.604   1.246  0.00  0.00    -0.398 OA
HETATM   62  H   UNK N   1      24.972  10.201   0.450  0.00  0.00     0.209 HD
ENDBRANCH  60  61
ENDBRANCH  19  60
ENDBRANCH  16  19
ENDBRANCH   5  15
ENDBRANCH   2   5
BRANCH   1  63
HETATM   63  C   UNK N   1      30.225  14.966   4.909  0.00  0.00     0.181 C 
BRANCH  63  64
HETATM   64  C   UNK N   1      31.581  15.562   4.693  0.00  0.00     0.241 C 
HETATM   65  N   UNK N   1      32.649  15.096   5.383  0.00  0.00    -0.346 N 
HETATM   66  H   UNK N   1      32.522  14.367   6.034  0.00  0.00     0.163 HD
HETATM   67  O   UNK N   1      31.720  16.490   3.907  0.00  0.00    -0.271 OA
BRANCH  65  68
HETATM   68  C   UNK N   1      33.975  15.647   5.185  0.00  0.00     0.177 C 
BRANCH  68  69
HETATM   69  C   UNK N   1      34.267  16.601   6.341  0.00  0.00     0.241 C 
HETATM   70  O   UNK N   1      34.167  17.796   6.110  0.00  0.00    -0.271 OA
HETATM   71  N   UNK N   1      34.606  16.221   7.606  0.00  0.00    -0.346 N 
HETATM   72  H   UNK N   1      34.710  16.940   8.271  0.00  0.00     0.163 HD
BRANCH  71  73
HETATM   73  C   UNK N   1      34.829  14.871   8.073  0.00  0.00     0.176 C 
BRANCH  73  74
HETATM   74  C   UNK N   1      35.996  14.743   9.005  0.00  0.00     0.243 C 
HETATM   75  N   UNK N   1      37.077  13.942   8.748  0.00  0.00    -0.337 N 
HETATM   76  C   UNK N   1      37.257  13.231   7.509  0.00  0.00     0.127 A 
HETATM   77  C   UNK N   1      38.134  13.751   9.701  0.00  0.00     0.179 A 
HETATM   78  C   UNK N   1      38.601  12.537   7.625  0.00  0.00     0.022 A 
HETATM   79  C   UNK N   1      39.185  12.923   8.979  0.00  0.00     0.037 A 
HETATM   80  O   UNK N   1      35.946  15.366  10.061  0.00  0.00    -0.271 OA
BRANCH  77  81
HETATM   81  C   UNK N   1      37.651  13.005  10.929  0.00  0.00     0.241 C 
HETATM   82  O   UNK N   1      37.667  11.784  10.930  0.00  0.00    -0.271 OA
HETATM   83  N   UNK N   1      37.216  13.686  12.023  0.00  0.00    -0.351 N 
HETATM   84  H   UNK N   1      37.217  14.670  12.003  0.00  0.00     0.163 HD
BRANCH  83  85
HETATM   85  C   UNK N   1      36.754  13.012  13.211  0.00  0.00     0.225 C 
BRANCH  85  86
HETATM   86  C   UNK N   1      35.284  13.212  13.380  0.00  0.00     0.233 C 
HETATM   87  N   UNK N   1      34.560  13.726  12.368  0.00  0.00    -0.369 N 
HETATM   88  H   UNK N   1      33.700  13.416  12.002  0.00  0.00     0.159 HD
HETATM   89  H   UNK N   1      34.943  14.522  11.933  0.00  0.00     0.159 HD
HETATM   90  O   UNK N   1      34.742  12.934  14.437  0.00  0.00    -0.272 OA
ENDBRANCH  85  86
ENDBRANCH  83  85
ENDBRANCH  77  81
ENDBRANCH  73  74
BRANCH  73  91
HETATM   91  C   UNK N   1      33.585  14.071   8.486  0.00  0.00     0.036 C 
BRANCH  91  92
HETATM   92  C   UNK N   1      33.449  12.657   7.924  0.00  0.00     0.023 C 
BRANCH  92  93
HETATM   93  C   UNK N   1      34.198  11.566   8.672  0.00  0.00     0.138 C 
BRANCH  93  94
HETATM   94  N   UNK N   1      33.576  11.332   9.959  0.00  0.00    -0.227 N 
HETATM   95  C   UNK N   1      34.160  10.526  10.976  0.00  0.00     0.665 C 
HETATM   96  N   UNK N   1      35.417   9.912  10.780  0.00  0.00    -0.235 N 
HETATM   97  N   UNK N   1      33.510  10.304  12.057  0.00  0.00    -0.235 N 
HETATM   98  H   UNK N   1      36.363   9.997  11.041  0.00  0.00     0.174 HD
HETATM   99  H   UNK N   1      35.313   9.138  10.180  0.00  0.00     0.174 HD
HETATM  100  H   UNK N   1      32.805  10.576  12.689  0.00  0.00     0.174 HD
ATOM    101  HN  UNK N   1      33.907   9.447  12.444  1.00  0.00     0.174 HD
HETATM  102  H   UNK N   1      32.705  11.752  10.139  0.00  0.00     0.177 HD
ENDBRANCH  93  94
ENDBRANCH  92  93
ENDBRANCH  91  92
ENDBRANCH  73  91
ENDBRANCH  71  73
ENDBRANCH  68  69
BRANCH  68 103
HETATM  103  C   UNK N   1      35.000  14.525   4.931  0.00  0.00     0.038 C 
BRANCH 103 104
HETATM  104  C   UNK N   1      34.434  13.248   4.312  0.00  0.00    -0.020 C 
HETATM  105  C   UNK N   1      35.250  12.017   4.662  0.00  0.00     0.009 C 
HETATM  106  C   UNK N   1      34.456  13.401   2.807  0.00  0.00     0.009 C 
ENDBRANCH 103 104
ENDBRANCH  68 103
ENDBRANCH  65  68
ENDBRANCH  63  64
BRANCH  63 107
HETATM  107  C   UNK N   1      29.195  16.099   4.935  0.00  0.00     0.075 C 
BRANCH 107 108
HETATM  108  C   UNK N   1      28.620  16.550   6.248  0.00  0.00    -0.028 A 
HETATM  109  C   UNK N   1      29.182  17.227   7.315  0.00  0.00    -0.002 A 
HETATM  110  C   UNK N   1      30.461  17.736   7.540  0.00  0.00     0.014 A 
HETATM  111  C   UNK N   1      28.200  17.342   8.261  0.00  0.00     0.042 A 
HETATM  112  C   UNK N   1      30.719  18.366   8.770  0.00  0.00     0.001 A 
HETATM  113  C   UNK N   1      29.700  18.479   9.740  0.00  0.00     0.002 A 
HETATM  114  C   UNK N   1      28.418  17.962   9.486  0.00  0.00     0.030 A 
HETATM  115  N   UNK N   1      27.053  16.780   7.843  0.00  0.00    -0.365 N 
HETATM  116  C   UNK N   1      27.303  16.288   6.606  0.00  0.00     0.096 A 
HETATM  117  H   UNK N   1      26.203  16.736   8.336  0.00  0.00     0.165 HD
ENDBRANCH 107 108
ENDBRANCH  63 107
ENDBRANCH   1  63
TORSDOF 35
ENDMDL
MODEL 3
REMARK VINA RESULT:      -8.3      2.817      6.985
REMARK WARNING: 32 MAX_TORS EXCEEDED!!!
REMARK  35 active torsions:
REMARK  status: ('A' for Active; 'I' for Inactive)
REMARK    1  A    between atoms: C_7  and  C_10 
REMARK    2  A    between atoms: C_17  and  C_10 
REMARK    3  A    between atoms: C_12  and  C_11 
REMARK       I    between atoms: C_11  and  N_73 
REMARK    4  A    between atoms: N_14  and  C_12 
REMARK    5  A    between atoms: C_12  and  C_69 
REMARK       I    between atoms: C_16  and  N_14 
REMARK    6  A    between atoms: C_16  and  C_17 
REMARK    7  A    between atoms: C_17  and  N_18 
REMARK       I    between atoms: N_18  and  C_19 
REMARK    8  A    between atoms: C_19  and  C_20 
REMARK    9  A    between atoms: C_20  and  C_22 
REMARK   10  A    between atoms: C_20  and  N_23 
REMARK   11  A    between atoms: C_22  and  C_24 
REMARK       I    between atoms: N_23  and  C_31 
REMARK   12  A    between atoms: C_29  and  O_30 
REMARK   13  A    between atoms: C_31  and  C_32 
REMARK   14  A    between atoms: C_32  and  N_33 
REMARK   15  A    between atoms: C_32  and  C_34 
REMARK       I    between atoms: N_33  and  C_36 
REMARK   16  A    between atoms: C_34  and  O_97 
REMARK   17  A    between atoms: C_36  and  C_37 
REMARK   18  A    between atoms: C_37  and  C_38 
REMARK   19  A    between atoms: C_37  and  N_49 
REMARK   20  A    between atoms: C_38  and  C_39 
REMARK       I    between atoms: N_49  and  C_50 
REMARK   21  A    between atoms: C_50  and  C_51 
REMARK   22  A    between atoms: C_51  and  C_53 
REMARK   23  A    between atoms: N_60  and  C_51 
REMARK   24  A    between atoms: C_53  and  C_54 
REMARK       I    between atoms: N_60  and  C_61 
REMARK   25  A    between atoms: C_63  and  C_61 
REMARK   26  A    between atoms: C_69  and  C_70 
REMARK   27  A    between atoms: N_73  and  C_74 
REMARK   28  A    between atoms: C_74  and  C_75 
REMARK   29  A    between atoms: C_74  and  C_78 
REMARK       I    between atoms: C_75  and  N_76 
REMARK   30  A    between atoms: C_78  and  C_79 
REMARK   31  A    between atoms: C_79  and  C_80 
REMARK   32  A    between atoms: C_80  and  N_81 
REMARK       I    between atoms: N_81  and  C_82 
REMARK       I    between atoms: C_82  and  N_83 
REMARK   33  A    between atoms: C_88  and  C_92 
REMARK   34  A    between atoms: N_93  and  C_91 
REMARK   35  A    between atoms: C_91  and  C_94 
REMARK       I    between atoms: N_93  and  C_92 
REMARK       I    between atoms: C_94  and  N_95 
ROOT
HETATM    1  N   UNK N   1      29.787  14.822   3.908  0.00  0.00    -0.346 N 
HETATM    2  C   UNK N   1      29.886  16.140   3.593  0.00  0.00     0.241 C 
HETATM    3  O   UNK N   1      29.728  16.526   2.444  0.00  0.00    -0.271 OA
HETATM    4  H   UNK N   1      29.996  14.550   4.831  0.00  0.00     0.163 HD
ENDROOT
BRANCH   2   5
HETATM    5  C   UNK N   1      30.182  17.142   4.645  0.00  0.00     0.180 C 
BRANCH   5   6
HETATM    6  C   UNK N   1      31.657  17.539   4.643  0.00  0.00     0.073 C 
BRANCH   6   7
HETATM    7  C   UNK N   1      32.300  17.438   5.991  0.00  0.00    -0.056 A 
HETATM    8  C   UNK N   1      31.514  17.105   7.082  0.00  0.00     0.010 A 
HETATM    9  C   UNK N   1      32.078  17.039   8.355  0.00  0.00     0.037 A 
HETATM   10  C   UNK N   1      33.430  17.297   8.545  0.00  0.00     0.065 A 
HETATM   11  C   UNK N   1      34.229  17.639   7.455  0.00  0.00     0.037 A 
HETATM   12  C   UNK N   1      33.664  17.720   6.181  0.00  0.00     0.010 A 
BRANCH  10  13
HETATM   13  O   UNK N   1      33.959  17.214   9.775  0.00  0.00    -0.361 OA
HETATM   14  H   UNK N   1      33.621  17.144  10.646  0.00  0.00     0.217 HD
ENDBRANCH  10  13
ENDBRANCH   6   7
ENDBRANCH   5   6
BRANCH   5  15
HETATM   15  N   UNK N   1      29.363  18.323   4.566  0.00  0.00    -0.346 N 
HETATM   16  C   UNK N   1      28.441  18.636   5.509  0.00  0.00     0.243 C 
HETATM   17  O   UNK N   1      27.869  19.709   5.427  0.00  0.00    -0.271 OA
HETATM   18  H   UNK N   1      29.479  18.929   3.797  0.00  0.00     0.163 HD
BRANCH  16  19
HETATM   19  C   UNK N   1      28.036  17.654   6.603  0.00  0.00     0.200 C 
BRANCH  19  20
HETATM   20  N   UNK N   1      26.754  17.031   6.528  0.00  0.00    -0.344 N 
HETATM   21  C   UNK N   1      26.403  16.076   5.640  0.00  0.00     0.241 C 
HETATM   22  O   UNK N   1      27.061  15.861   4.633  0.00  0.00    -0.271 OA
HETATM   23  H   UNK N   1      26.070  17.321   7.174  0.00  0.00     0.163 HD
BRANCH  21  24
HETATM   24  C   UNK N   1      25.331  15.132   6.047  0.00  0.00     0.181 C 
BRANCH  24  25
HETATM   25  C   UNK N   1      25.682  14.662   7.479  0.00  0.00     0.075 C 
BRANCH  25  26
HETATM   26  C   UNK N   1      24.936  13.368   7.759  0.00  0.00    -0.028 A 
HETATM   27  C   UNK N   1      24.181  13.111   8.898  0.00  0.00     0.096 A 
HETATM   28  N   UNK N   1      23.505  11.942   8.747  0.00  0.00    -0.365 N 
HETATM   29  C   UNK N   1      23.816  11.478   7.525  0.00  0.00     0.042 A 
HETATM   30  H   UNK N   1      22.904  11.519   9.403  0.00  0.00     0.165 HD
HETATM   31  C   UNK N   1      23.298  10.340   6.906  0.00  0.00     0.030 A 
HETATM   32  C   UNK N   1      24.699  12.309   6.896  0.00  0.00    -0.002 A 
HETATM   33  C   UNK N   1      23.716  10.056   5.594  0.00  0.00     0.002 A 
HETATM   34  C   UNK N   1      24.639  10.902   4.944  0.00  0.00     0.001 A 
HETATM   35  C   UNK N   1      25.139  12.043   5.601  0.00  0.00     0.014 A 
ENDBRANCH  25  26
ENDBRANCH  24  25
BRANCH  24  36
HETATM   36  N   UNK N   1      24.110  15.902   5.965  0.00  0.00    -0.346 N 
HETATM   37  C   UNK N   1      23.208  15.690   4.978  0.00  0.00     0.241 C 
HETATM   38  O   UNK N   1      23.244  14.661   4.321  0.00  0.00    -0.271 OA
HETATM   39  H   UNK N   1      23.930  16.593   6.641  0.00  0.00     0.163 HD
BRANCH  37  40
HETATM   40  C   UNK N   1      22.353  16.829   4.499  0.00  0.00     0.182 C 
BRANCH  40  41
HETATM   41  C   UNK N   1      22.847  18.161   5.102  0.00  0.00     0.093 C 
BRANCH  41  42
HETATM   42  C   UNK N   1      23.629  19.100   4.228  0.00  0.00     0.028 A 
HETATM   43  N   UNK N   1      24.970  19.099   4.198  0.00  0.00    -0.354 N 
HETATM   44  C   UNK N   1      25.301  19.962   3.219  0.00  0.00     0.180 A 
ATOM     45  HN  UNK N   1      25.602  18.560   4.789  1.00  0.00     0.166 HD
HETATM   46  N   UNK N   1      24.211  20.502   2.636  0.00  0.00    -0.360 N 
HETATM   47  C   UNK N   1      23.151  19.956   3.260  0.00  0.00     0.114 A 
HETATM   48  H   UNK N   1      24.195  21.161   1.905  0.00  0.00     0.166 HD
ENDBRANCH  41  42
ENDBRANCH  40  41
BRANCH  40  49
HETATM   49  N   UNK N   1      20.913  16.572   4.515  0.00  0.00    -0.346 N 
HETATM   50  C   UNK N   1      20.174  16.186   5.602  0.00  0.00     0.241 C 
HETATM   51  O   UNK N   1      18.961  16.108   5.498  0.00  0.00    -0.271 OA
HETATM   52  H   UNK N   1      20.430  16.688   3.665  0.00  0.00     0.163 HD
BRANCH  50  53
HETATM   53  C   UNK N   1      20.825  15.783   6.900  0.00  0.00     0.177 C 
HETATM   54  C   UNK N   1      20.236  16.344   8.200  0.00  0.00     0.044 C 
HETATM   55  C   UNK N   1      20.339  15.194   9.225  0.00  0.00     0.105 C 
HETATM   56  C   UNK N   1      20.620  14.037   8.347  0.00  0.00     0.218 C 
HETATM   57  N   UNK N   1      20.852  14.364   7.081  0.00  0.00    -0.348 N 
HETATM   58  O   UNK N   1      20.668  12.882   8.739  0.00  0.00    -0.274 OA
HETATM   59  H   UNK N   1      21.018  13.714   6.359  0.00  0.00     0.163 HD
ENDBRANCH  50  53
ENDBRANCH  40  49
ENDBRANCH  37  40
ENDBRANCH  24  36
ENDBRANCH  21  24
ENDBRANCH  19  20
BRANCH  19  60
HETATM   60  C   UNK N   1      28.436  17.780   8.068  0.00  0.00     0.199 C 
BRANCH  60  61
HETATM   61  O   UNK N   1      27.770  18.850   8.663  0.00  0.00    -0.398 OA
HETATM   62  H   UNK N   1      26.939  18.771   9.157  0.00  0.00     0.209 HD
ENDBRANCH  60  61
ENDBRANCH  19  60
ENDBRANCH  16  19
ENDBRANCH   5  15
ENDBRANCH   2   5
BRANCH   1  63
HETATM   63  C   UNK N   1      29.393  13.794   2.965  0.00  0.00     0.181 C 
BRANCH  63  64
HETATM   64  C   UNK N   1      30.621  13.099   2.466  0.00  0.00     0.241 C 
HETATM   65  N   UNK N   1      31.739  13.059   3.229  0.00  0.00    -0.346 N 
HETATM   66  H   UNK N   1      31.738  13.499   4.111  0.00  0.00     0.163 HD
HETATM   67  O   UNK N   1      30.621  12.585   1.355  0.00  0.00    -0.271 OA
BRANCH  65  68
HETATM   68  C   UNK N   1      32.939  12.383   2.776  0.00  0.00     0.177 C 
BRANCH  68  69
HETATM   69  C   UNK N   1      34.011  13.441   2.527  0.00  0.00     0.241 C 
HETATM   70  O   UNK N   1      34.085  13.899   1.398  0.00  0.00    -0.271 OA
HETATM   71  N   UNK N   1      34.872  13.924   3.469  0.00  0.00    -0.346 N 
HETATM   72  H   UNK N   1      35.475  14.649   3.186  0.00  0.00     0.163 HD
BRANCH  71  73
HETATM   73  C   UNK N   1      34.988  13.482   4.841  0.00  0.00     0.176 C 
BRANCH  73  74
HETATM   74  C   UNK N   1      36.393  13.157   5.249  0.00  0.00     0.243 C 
HETATM   75  N   UNK N   1      36.722  12.053   5.991  0.00  0.00    -0.337 N 
HETATM   76  C   UNK N   1      35.773  11.034   6.356  0.00  0.00     0.127 A 
HETATM   77  C   UNK N   1      38.058  11.817   6.462  0.00  0.00     0.179 A 
HETATM   78  C   UNK N   1      36.568   9.980   7.101  0.00  0.00     0.022 A 
HETATM   79  C   UNK N   1      38.022  10.440   7.106  0.00  0.00     0.037 A 
HETATM   80  O   UNK N   1      37.273  13.949   4.925  0.00  0.00    -0.271 OA
BRANCH  77  81
HETATM   81  C   UNK N   1      38.480  12.850   7.489  0.00  0.00     0.241 C 
HETATM   82  O   UNK N   1      39.503  13.489   7.305  0.00  0.00    -0.271 OA
HETATM   83  N   UNK N   1      37.722  13.072   8.595  0.00  0.00    -0.351 N 
HETATM   84  H   UNK N   1      36.897  12.549   8.720  0.00  0.00     0.163 HD
BRANCH  83  85
HETATM   85  C   UNK N   1      38.088  14.049   9.590  0.00  0.00     0.225 C 
BRANCH  85  86
HETATM   86  C   UNK N   1      36.864  14.612  10.236  0.00  0.00     0.233 C 
HETATM   87  N   UNK N   1      36.728  14.553  11.573  0.00  0.00    -0.369 N 
HETATM   88  H   UNK N   1      36.452  15.261  12.200  0.00  0.00     0.159 HD
HETATM   89  H   UNK N   1      36.932  13.682  11.983  0.00  0.00     0.159 HD
HETATM   90  O   UNK N   1      35.980  15.105   9.555  0.00  0.00    -0.272 OA
ENDBRANCH  85  86
ENDBRANCH  83  85
ENDBRANCH  77  81
ENDBRANCH  73  74
BRANCH  73  91
HETATM   91  C   UNK N   1      34.178  14.262   5.886  0.00  0.00     0.036 C 
BRANCH  91  92
HETATM   92  C   UNK N   1      33.014  13.529   6.552  0.00  0.00     0.023 C 
BRANCH  92  93
HETATM   93  C   UNK N   1      32.906  13.680   8.061  0.00  0.00     0.138 C 
BRANCH  93  94
HETATM   94  N   UNK N   1      34.016  13.011   8.706  0.00  0.00    -0.227 N 
HETATM   95  C   UNK N   1      33.875  11.823   9.476  0.00  0.00     0.665 C 
HETATM   96  N   UNK N   1      32.611  11.212   9.639  0.00  0.00    -0.235 N 
HETATM   97  N   UNK N   1      34.894  11.336  10.080  0.00  0.00    -0.235 N 
HETATM   98  H   UNK N   1      32.084  10.441   9.325  0.00  0.00     0.174 HD
HETATM   99  H   UNK N   1      32.077  11.732  10.282  0.00  0.00     0.174 HD
HETATM  100  H   UNK N   1      35.873  11.258  10.154  0.00  0.00     0.174 HD
ATOM    101  HN  UNK N   1      34.516  10.763  10.836  1.00  0.00     0.174 HD
HETATM  102  H   UNK N   1      34.915  13.398   8.607  0.00  0.00     0.177 HD
ENDBRANCH  93  94
ENDBRANCH  92  93
ENDBRANCH  91  92
ENDBRANCH  73  91
ENDBRANCH  71  73
ENDBRANCH  68  69
BRANCH  68 103
HETATM  103  C   UNK N   1      33.307  11.227   3.726  0.00  0.00     0.038 C 
BRANCH 103 104
HETATM  104  C   UNK N   1      33.855   9.972   3.048  0.00  0.00    -0.020 C 
HETATM  105  C   UNK N   1      35.360  10.025   2.852  0.00  0.00     0.009 C 
HETATM  106  C   UNK N   1      33.217   9.855   1.681  0.00  0.00     0.009 C 
ENDBRANCH 103 104
ENDBRANCH  68 103
ENDBRANCH  65  68
ENDBRANCH  63  64
BRANCH  63 107
HETATM  107  C   UNK N   1      28.454  12.747   3.571  0.00  0.00     0.075 C 
BRANCH 107 108
HETATM  108  C   UNK N   1      27.424  12.082   2.703  0.00  0.00    -0.028 A 
HETATM  109  C   UNK N   1      26.308  12.579   2.055  0.00  0.00    -0.002 A 
HETATM  110  C   UNK N   1      25.760  13.859   1.968  0.00  0.00     0.014 A 
HETATM  111  C   UNK N   1      25.716  11.513   1.432  0.00  0.00     0.042 A 
HETATM  112  C   UNK N   1      24.576  14.026   1.229  0.00  0.00     0.001 A 
HETATM  113  C   UNK N   1      23.972  12.921   0.592  0.00  0.00     0.002 A 
HETATM  114  C   UNK N   1      24.547  11.643   0.690  0.00  0.00     0.030 A 
HETATM  115  N   UNK N   1      26.403  10.379   1.650  0.00  0.00    -0.365 N 
HETATM  116  C   UNK N   1      27.455  10.719   2.432  0.00  0.00     0.096 A 
HETATM  117  H   UNK N   1      26.186   9.482   1.308  0.00  0.00     0.165 HD
ENDBRANCH 107 108
ENDBRANCH  63 107
ENDBRANCH   1  63
TORSDOF 35
ENDMDL
MODEL 4
REMARK VINA RESULT:      -8.3      1.997      4.855
REMARK WARNING: 32 MAX_TORS EXCEEDED!!!
REMARK  35 active torsions:
REMARK  status: ('A' for Active; 'I' for Inactive)
REMARK    1  A    between atoms: C_7  and  C_10 
REMARK    2  A    between atoms: C_17  and  C_10 
REMARK    3  A    between atoms: C_12  and  C_11 
REMARK       I    between atoms: C_11  and  N_73 
REMARK    4  A    between atoms: N_14  and  C_12 
REMARK    5  A    between atoms: C_12  and  C_69 
REMARK       I    between atoms: C_16  and  N_14 
REMARK    6  A    between atoms: C_16  and  C_17 
REMARK    7  A    between atoms: C_17  and  N_18 
REMARK       I    between atoms: N_18  and  C_19 
REMARK    8  A    between atoms: C_19  and  C_20 
REMARK    9  A    between atoms: C_20  and  C_22 
REMARK   10  A    between atoms: C_20  and  N_23 
REMARK   11  A    between atoms: C_22  and  C_24 
REMARK       I    between atoms: N_23  and  C_31 
REMARK   12  A    between atoms: C_29  and  O_30 
REMARK   13  A    between atoms: C_31  and  C_32 
REMARK   14  A    between atoms: C_32  and  N_33 
REMARK   15  A    between atoms: C_32  and  C_34 
REMARK       I    between atoms: N_33  and  C_36 
REMARK   16  A    between atoms: C_34  and  O_97 
REMARK   17  A    between atoms: C_36  and  C_37 
REMARK   18  A    between atoms: C_37  and  C_38 
REMARK   19  A    between atoms: C_37  and  N_49 
REMARK   20  A    between atoms: C_38  and  C_39 
REMARK       I    between atoms: N_49  and  C_50 
REMARK   21  A    between atoms: C_50  and  C_51 
REMARK   22  A    between atoms: C_51  and  C_53 
REMARK   23  A    between atoms: N_60  and  C_51 
REMARK   24  A    between atoms: C_53  and  C_54 
REMARK       I    between atoms: N_60  and  C_61 
REMARK   25  A    between atoms: C_63  and  C_61 
REMARK   26  A    between atoms: C_69  and  C_70 
REMARK   27  A    between atoms: N_73  and  C_74 
REMARK   28  A    between atoms: C_74  and  C_75 
REMARK   29  A    between atoms: C_74  and  C_78 
REMARK       I    between atoms: C_75  and  N_76 
REMARK   30  A    between atoms: C_78  and  C_79 
REMARK   31  A    between atoms: C_79  and  C_80 
REMARK   32  A    between atoms: C_80  and  N_81 
REMARK       I    between atoms: N_81  and  C_82 
REMARK       I    between atoms: C_82  and  N_83 
REMARK   33  A    between atoms: C_88  and  C_92 
REMARK   34  A    between atoms: N_93  and  C_91 
REMARK   35  A    between atoms: C_91  and  C_94 
REMARK       I    between atoms: N_93  and  C_92 
REMARK       I    between atoms: C_94  and  N_95 
ROOT
HETATM    1  N   UNK N   1      28.156  15.947   5.176  0.00  0.00    -0.346 N 
HETATM    2  C   UNK N   1      26.865  15.696   5.522  0.00  0.00     0.241 C 
HETATM    3  O   UNK N   1      26.590  15.197   6.603  0.00  0.00    -0.271 OA
HETATM    4  H   UNK N   1      28.334  16.281   4.266  0.00  0.00     0.163 HD
ENDROOT
BRANCH   2   5
HETATM    5  C   UNK N   1      25.761  16.033   4.593  0.00  0.00     0.180 C 
BRANCH   5   6
HETATM    6  C   UNK N   1      25.021  17.294   5.033  0.00  0.00     0.073 C 
BRANCH   6   7
HETATM    7  C   UNK N   1      23.531  17.164   4.962  0.00  0.00    -0.056 A 
HETATM    8  C   UNK N   1      22.879  16.426   5.936  0.00  0.00     0.010 A 
HETATM    9  C   UNK N   1      21.496  16.257   5.874  0.00  0.00     0.037 A 
HETATM   10  C   UNK N   1      20.757  16.831   4.847  0.00  0.00     0.065 A 
HETATM   11  C   UNK N   1      21.405  17.572   3.859  0.00  0.00     0.037 A 
HETATM   12  C   UNK N   1      22.791  17.730   3.910  0.00  0.00     0.010 A 
BRANCH  10  13
HETATM   13  O   UNK N   1      19.425  16.671   4.813  0.00  0.00    -0.361 OA
HETATM   14  H   UNK N   1      18.745  16.581   5.451  0.00  0.00     0.217 HD
ENDBRANCH  10  13
ENDBRANCH   6   7
ENDBRANCH   5   6
BRANCH   5  15
HETATM   15  N   UNK N   1      26.179  16.172   3.223  0.00  0.00    -0.346 N 
HETATM   16  C   UNK N   1      25.816  15.293   2.257  0.00  0.00     0.243 C 
HETATM   17  O   UNK N   1      26.118  15.543   1.103  0.00  0.00    -0.271 OA
HETATM   18  H   UNK N   1      26.750  16.937   2.977  0.00  0.00     0.163 HD
BRANCH  16  19
HETATM   19  C   UNK N   1      25.131  13.970   2.581  0.00  0.00     0.200 C 
BRANCH  19  20
HETATM   20  N   UNK N   1      23.870  13.994   3.249  0.00  0.00    -0.344 N 
HETATM   21  C   UNK N   1      22.688  14.288   2.669  0.00  0.00     0.241 C 
HETATM   22  O   UNK N   1      22.625  14.842   1.582  0.00  0.00    -0.271 OA
HETATM   23  H   UNK N   1      23.862  13.779   4.210  0.00  0.00     0.163 HD
BRANCH  21  24
HETATM   24  C   UNK N   1      21.467  13.699   3.278  0.00  0.00     0.181 C 
BRANCH  24  25
HETATM   25  C   UNK N   1      20.640  13.105   2.114  0.00  0.00     0.075 C 
BRANCH  25  26
HETATM   26  C   UNK N   1      21.031  11.646   1.938  0.00  0.00    -0.028 A 
HETATM   27  C   UNK N   1      20.347  10.565   2.481  0.00  0.00     0.096 A 
HETATM   28  N   UNK N   1      20.851   9.405   1.983  0.00  0.00    -0.365 N 
HETATM   29  C   UNK N   1      21.827   9.752   1.126  0.00  0.00     0.042 A 
HETATM   30  H   UNK N   1      20.559   8.491   2.205  0.00  0.00     0.165 HD
HETATM   31  C   UNK N   1      22.576   8.894   0.321  0.00  0.00     0.030 A 
HETATM   32  C   UNK N   1      21.980  11.109   1.081  0.00  0.00    -0.002 A 
HETATM   33  C   UNK N   1      23.518   9.466  -0.553  0.00  0.00     0.002 A 
HETATM   34  C   UNK N   1      23.692  10.865  -0.593  0.00  0.00     0.001 A 
HETATM   35  C   UNK N   1      22.915  11.700   0.235  0.00  0.00     0.014 A 
ENDBRANCH  25  26
ENDBRANCH  24  25
BRANCH  24  36
HETATM   36  N   UNK N   1      21.961  12.711   4.212  0.00  0.00    -0.346 N 
HETATM   37  C   UNK N   1      21.421  12.575   5.445  0.00  0.00     0.241 C 
HETATM   38  O   UNK N   1      20.326  13.056   5.695  0.00  0.00    -0.271 OA
HETATM   39  H   UNK N   1      22.704  12.124   3.945  0.00  0.00     0.163 HD
BRANCH  37  40
HETATM   40  C   UNK N   1      22.278  12.092   6.581  0.00  0.00     0.182 C 
BRANCH  40  41
HETATM   41  C   UNK N   1      22.244  13.104   7.746  0.00  0.00     0.093 C 
BRANCH  41  42
HETATM   42  C   UNK N   1      22.211  12.578   9.154  0.00  0.00     0.028 A 
HETATM   43  N   UNK N   1      21.304  12.993  10.050  0.00  0.00    -0.354 N 
HETATM   44  C   UNK N   1      21.499  12.216  11.133  0.00  0.00     0.180 A 
ATOM     45  HN  UNK N   1      20.616  13.736   9.937  1.00  0.00     0.166 HD
HETATM   46  N   UNK N   1      22.498  11.330  10.941  0.00  0.00    -0.360 N 
HETATM   47  C   UNK N   1      22.946  11.545   9.691  0.00  0.00     0.114 A 
HETATM   48  H   UNK N   1      22.830  10.664  11.585  0.00  0.00     0.166 HD
ENDBRANCH  41  42
ENDBRANCH  40  41
BRANCH  40  49
HETATM   49  N   UNK N   1      23.582  11.557   6.189  0.00  0.00    -0.346 N 
HETATM   50  C   UNK N   1      23.876  10.241   5.950  0.00  0.00     0.241 C 
HETATM   51  O   UNK N   1      24.982   9.947   5.527  0.00  0.00    -0.271 OA
HETATM   52  H   UNK N   1      24.317  12.205   6.086  0.00  0.00     0.163 HD
BRANCH  50  53
HETATM   53  C   UNK N   1      22.896   9.141   6.267  0.00  0.00     0.177 C 
HETATM   54  C   UNK N   1      22.394   8.275   5.105  0.00  0.00     0.044 C 
HETATM   55  C   UNK N   1      22.285   6.845   5.678  0.00  0.00     0.105 C 
HETATM   56  C   UNK N   1      23.053   6.970   6.937  0.00  0.00     0.218 C 
HETATM   57  N   UNK N   1      23.407   8.215   7.232  0.00  0.00    -0.348 N 
HETATM   58  O   UNK N   1      23.320   6.028   7.666  0.00  0.00    -0.274 OA
HETATM   59  H   UNK N   1      23.952   8.469   8.012  0.00  0.00     0.163 HD
ENDBRANCH  50  53
ENDBRANCH  40  49
ENDBRANCH  37  40
ENDBRANCH  24  36
ENDBRANCH  21  24
ENDBRANCH  19  20
BRANCH  19  60
HETATM   60  C   UNK N   1      25.864  12.689   2.960  0.00  0.00     0.199 C 
BRANCH  60  61
HETATM   61  O   UNK N   1      26.209  11.969   1.818  0.00  0.00    -0.398 OA
HETATM   62  H   UNK N   1      26.330  12.362   0.940  0.00  0.00     0.209 HD
ENDBRANCH  60  61
ENDBRANCH  19  60
ENDBRANCH  16  19
ENDBRANCH   5  15
ENDBRANCH   2   5
BRANCH   1  63
HETATM   63  C   UNK N   1      29.283  15.753   6.065  0.00  0.00     0.181 C 
BRANCH  63  64
HETATM   64  C   UNK N   1      30.406  15.135   5.294  0.00  0.00     0.241 C 
HETATM   65  N   UNK N   1      30.746  13.841   5.503  0.00  0.00    -0.346 N 
HETATM   66  H   UNK N   1      30.251  13.314   6.173  0.00  0.00     0.163 HD
HETATM   67  O   UNK N   1      31.036  15.809   4.489  0.00  0.00    -0.271 OA
BRANCH  65  68
HETATM   68  C   UNK N   1      31.822  13.213   4.763  0.00  0.00     0.177 C 
BRANCH  68  69
HETATM   69  C   UNK N   1      32.441  12.136   5.651  0.00  0.00     0.241 C 
HETATM   70  O   UNK N   1      31.887  11.049   5.669  0.00  0.00    -0.271 OA
HETATM   71  N   UNK N   1      33.569  12.291   6.403  0.00  0.00    -0.346 N 
HETATM   72  H   UNK N   1      33.892  11.495   6.884  0.00  0.00     0.163 HD
BRANCH  71  73
HETATM   73  C   UNK N   1      34.341  13.503   6.565  0.00  0.00     0.176 C 
BRANCH  73  74
HETATM   74  C   UNK N   1      33.879  14.360   7.705  0.00  0.00     0.243 C 
HETATM   75  N   UNK N   1      33.683  15.712   7.596  0.00  0.00    -0.337 N 
HETATM   76  C   UNK N   1      33.787  16.428   6.352  0.00  0.00     0.127 A 
HETATM   77  C   UNK N   1      33.344  16.531   8.726  0.00  0.00     0.179 A 
HETATM   78  C   UNK N   1      33.427  17.865   6.673  0.00  0.00     0.022 A 
HETATM   79  C   UNK N   1      33.079  17.915   8.157  0.00  0.00     0.037 A 
HETATM   80  O   UNK N   1      33.709  13.813   8.790  0.00  0.00    -0.271 OA
BRANCH  77  81
HETATM   81  C   UNK N   1      34.480  16.599   9.727  0.00  0.00     0.241 C 
HETATM   82  O   UNK N   1      35.320  17.479   9.617  0.00  0.00    -0.271 OA
HETATM   83  N   UNK N   1      34.558  15.700  10.744  0.00  0.00    -0.351 N 
HETATM   84  H   UNK N   1      33.867  15.002  10.817  0.00  0.00     0.163 HD
BRANCH  83  85
HETATM   85  C   UNK N   1      35.621  15.736  11.718  0.00  0.00     0.225 C 
BRANCH  85  86
HETATM   86  C   UNK N   1      35.652  14.461  12.495  0.00  0.00     0.233 C 
HETATM   87  N   UNK N   1      36.785  14.087  13.118  0.00  0.00    -0.369 N 
HETATM   88  H   UNK N   1      36.906  13.757  14.038  0.00  0.00     0.159 HD
HETATM   89  H   UNK N   1      37.607  14.153  12.581  0.00  0.00     0.159 HD
HETATM   90  O   UNK N   1      34.664  13.748  12.549  0.00  0.00    -0.272 OA
ENDBRANCH  85  86
ENDBRANCH  83  85
ENDBRANCH  77  81
ENDBRANCH  73  74
BRANCH  73  91
HETATM   91  C   UNK N   1      35.865  13.372   6.433  0.00  0.00     0.036 C 
BRANCH  91  92
HETATM   92  C   UNK N   1      36.494  12.065   6.913  0.00  0.00     0.023 C 
BRANCH  92  93
HETATM   93  C   UNK N   1      36.625  11.900   8.419  0.00  0.00     0.138 C 
BRANCH  93  94
HETATM   94  N   UNK N   1      36.976  13.166   9.027  0.00  0.00    -0.227 N 
HETATM   95  C   UNK N   1      38.290  13.485   9.468  0.00  0.00     0.665 C 
HETATM   96  N   UNK N   1      39.350  12.562   9.314  0.00  0.00    -0.235 N 
HETATM   97  N   UNK N   1      38.504  14.596  10.068  0.00  0.00    -0.235 N 
HETATM   98  H   UNK N   1      40.147  12.392   8.761  0.00  0.00     0.174 HD
HETATM   99  H   UNK N   1      39.261  11.848   9.986  0.00  0.00     0.174 HD
HETATM  100  H   UNK N   1      38.227  15.524  10.249  0.00  0.00     0.174 HD
ATOM    101  HN  UNK N   1      39.357  14.455  10.611  1.00  0.00     0.174 HD
HETATM  102  H   UNK N   1      36.270  13.841   9.141  0.00  0.00     0.177 HD
ENDBRANCH  93  94
ENDBRANCH  92  93
ENDBRANCH  91  92
ENDBRANCH  73  91
ENDBRANCH  71  73
ENDBRANCH  68  69
BRANCH  68 103
HETATM  103  C   UNK N   1      31.341  12.774   3.366  0.00  0.00     0.038 C 
BRANCH 103 104
HETATM  104  C   UNK N   1      29.828  12.621   3.213  0.00  0.00    -0.020 C 
HETATM  105  C   UNK N   1      29.394  11.169   3.121  0.00  0.00     0.009 C 
HETATM  106  C   UNK N   1      29.411  13.307   1.930  0.00  0.00     0.009 C 
ENDBRANCH 103 104
ENDBRANCH  68 103
ENDBRANCH  65  68
ENDBRANCH  63  64
BRANCH  63 107
HETATM  107  C   UNK N   1      29.785  17.055   6.696  0.00  0.00     0.075 C 
BRANCH 107 108
HETATM  108  C   UNK N   1      28.801  18.127   7.071  0.00  0.00    -0.028 A 
HETATM  109  C   UNK N   1      28.137  19.073   6.312  0.00  0.00    -0.002 A 
HETATM  110  C   UNK N   1      28.137  19.353   4.945  0.00  0.00     0.014 A 
HETATM  111  C   UNK N   1      27.386  19.812   7.185  0.00  0.00     0.042 A 
HETATM  112  C   UNK N   1      27.348  20.424   4.487  0.00  0.00     0.001 A 
HETATM  113  C   UNK N   1      26.579  21.182   5.394  0.00  0.00     0.002 A 
HETATM  114  C   UNK N   1      26.593  20.875   6.766  0.00  0.00     0.030 A 
HETATM  115  N   UNK N   1      27.539  19.378   8.447  0.00  0.00    -0.365 N 
HETATM  116  C   UNK N   1      28.409  18.342   8.387  0.00  0.00     0.096 A 
HETATM  117  H   UNK N   1      27.105  19.739   9.253  0.00  0.00     0.165 HD
ENDBRANCH 107 108
ENDBRANCH  63 107
ENDBRANCH   1  63
TORSDOF 35
ENDMDL
MODEL 5
REMARK VINA RESULT:      -8.3      2.692      6.483
REMARK WARNING: 32 MAX_TORS EXCEEDED!!!
REMARK  35 active torsions:
REMARK  status: ('A' for Active; 'I' for Inactive)
REMARK    1  A    between atoms: C_7  and  C_10 
REMARK    2  A    between atoms: C_17  and  C_10 
REMARK    3  A    between atoms: C_12  and  C_11 
REMARK       I    between atoms: C_11  and  N_73 
REMARK    4  A    between atoms: N_14  and  C_12 
REMARK    5  A    between atoms: C_12  and  C_69 
REMARK       I    between atoms: C_16  and  N_14 
REMARK    6  A    between atoms: C_16  and  C_17 
REMARK    7  A    between atoms: C_17  and  N_18 
REMARK       I    between atoms: N_18  and  C_19 
REMARK    8  A    between atoms: C_19  and  C_20 
REMARK    9  A    between atoms: C_20  and  C_22 
REMARK   10  A    between atoms: C_20  and  N_23 
REMARK   11  A    between atoms: C_22  and  C_24 
REMARK       I    between atoms: N_23  and  C_31 
REMARK   12  A    between atoms: C_29  and  O_30 
REMARK   13  A    between atoms: C_31  and  C_32 
REMARK   14  A    between atoms: C_32  and  N_33 
REMARK   15  A    between atoms: C_32  and  C_34 
REMARK       I    between atoms: N_33  and  C_36 
REMARK   16  A    between atoms: C_34  and  O_97 
REMARK   17  A    between atoms: C_36  and  C_37 
REMARK   18  A    between atoms: C_37  and  C_38 
REMARK   19  A    between atoms: C_37  and  N_49 
REMARK   20  A    between atoms: C_38  and  C_39 
REMARK       I    between atoms: N_49  and  C_50 
REMARK   21  A    between atoms: C_50  and  C_51 
REMARK   22  A    between atoms: C_51  and  C_53 
REMARK   23  A    between atoms: N_60  and  C_51 
REMARK   24  A    between atoms: C_53  and  C_54 
REMARK       I    between atoms: N_60  and  C_61 
REMARK   25  A    between atoms: C_63  and  C_61 
REMARK   26  A    between atoms: C_69  and  C_70 
REMARK   27  A    between atoms: N_73  and  C_74 
REMARK   28  A    between atoms: C_74  and  C_75 
REMARK   29  A    between atoms: C_74  and  C_78 
REMARK       I    between atoms: C_75  and  N_76 
REMARK   30  A    between atoms: C_78  and  C_79 
REMARK   31  A    between atoms: C_79  and  C_80 
REMARK   32  A    between atoms: C_80  and  N_81 
REMARK       I    between atoms: N_81  and  C_82 
REMARK       I    between atoms: C_82  and  N_83 
REMARK   33  A    between atoms: C_88  and  C_92 
REMARK   34  A    between atoms: N_93  and  C_91 
REMARK   35  A    between atoms: C_91  and  C_94 
REMARK       I    between atoms: N_93  and  C_92 
REMARK       I    between atoms: C_94  and  N_95 
ROOT
HETATM    1  N   UNK N   1      29.222  15.037   3.754  0.00  0.00    -0.346 N 
HETATM    2  C   UNK N   1      29.763  16.259   3.505  0.00  0.00     0.241 C 
HETATM    3  O   UNK N   1      30.024  16.611   2.364  0.00  0.00    -0.271 OA
HETATM    4  H   UNK N   1      29.098  14.768   4.693  0.00  0.00     0.163 HD
ENDROOT
BRANCH   2   5
HETATM    5  C   UNK N   1      30.040  17.196   4.619  0.00  0.00     0.180 C 
BRANCH   5   6
HETATM    6  C   UNK N   1      31.520  17.568   4.687  0.00  0.00     0.073 C 
BRANCH   6   7
HETATM    7  C   UNK N   1      32.145  17.277   6.015  0.00  0.00    -0.056 A 
HETATM    8  C   UNK N   1      31.373  16.682   7.000  0.00  0.00     0.010 A 
HETATM    9  C   UNK N   1      31.917  16.433   8.259  0.00  0.00     0.037 A 
HETATM   10  C   UNK N   1      33.236  16.768   8.539  0.00  0.00     0.065 A 
HETATM   11  C   UNK N   1      34.020  17.373   7.557  0.00  0.00     0.037 A 
HETATM   12  C   UNK N   1      33.473  17.637   6.300  0.00  0.00     0.010 A 
BRANCH  10  13
HETATM   13  O   UNK N   1      33.748  16.506   9.752  0.00  0.00    -0.361 OA
HETATM   14  H   UNK N   1      33.420  16.498  10.629  0.00  0.00     0.217 HD
ENDBRANCH  10  13
ENDBRANCH   6   7
ENDBRANCH   5   6
BRANCH   5  15
HETATM   15  N   UNK N   1      29.243  18.394   4.579  0.00  0.00    -0.346 N 
HETATM   16  C   UNK N   1      28.382  18.731   5.571  0.00  0.00     0.243 C 
HETATM   17  O   UNK N   1      27.828  19.815   5.514  0.00  0.00    -0.271 OA
HETATM   18  H   UNK N   1      29.328  18.994   3.802  0.00  0.00     0.163 HD
BRANCH  16  19
HETATM   19  C   UNK N   1      28.019  17.763   6.692  0.00  0.00     0.200 C 
BRANCH  19  20
HETATM   20  N   UNK N   1      26.805  17.018   6.591  0.00  0.00    -0.344 N 
HETATM   21  C   UNK N   1      26.291  16.521   5.446  0.00  0.00     0.241 C 
HETATM   22  O   UNK N   1      26.666  16.909   4.350  0.00  0.00    -0.271 OA
HETATM   23  H   UNK N   1      26.303  16.853   7.421  0.00  0.00     0.163 HD
BRANCH  21  24
HETATM   24  C   UNK N   1      25.430  15.316   5.556  0.00  0.00     0.181 C 
BRANCH  24  25
HETATM   25  C   UNK N   1      25.885  14.567   6.831  0.00  0.00     0.075 C 
BRANCH  25  26
HETATM   26  C   UNK N   1      25.061  13.296   6.967  0.00  0.00    -0.028 A 
HETATM   27  C   UNK N   1      25.004  12.277   6.024  0.00  0.00     0.096 A 
HETATM   28  N   UNK N   1      24.326  11.216   6.536  0.00  0.00    -0.365 N 
HETATM   29  C   UNK N   1      23.977  11.556   7.788  0.00  0.00     0.042 A 
HETATM   30  H   UNK N   1      24.131  10.365   6.079  0.00  0.00     0.165 HD
HETATM   31  C   UNK N   1      23.329  10.749   8.723  0.00  0.00     0.030 A 
HETATM   32  C   UNK N   1      24.391  12.823   8.085  0.00  0.00    -0.002 A 
HETATM   33  C   UNK N   1      23.101  11.279  10.005  0.00  0.00     0.002 A 
HETATM   34  C   UNK N   1      23.513  12.593  10.314  0.00  0.00     0.001 A 
HETATM   35  C   UNK N   1      24.166  13.377   9.343  0.00  0.00     0.014 A 
ENDBRANCH  25  26
ENDBRANCH  24  25
BRANCH  24  36
HETATM   36  N   UNK N   1      24.080  15.831   5.629  0.00  0.00    -0.346 N 
HETATM   37  C   UNK N   1      23.135  15.461   4.734  0.00  0.00     0.241 C 
HETATM   38  O   UNK N   1      23.298  14.469   4.040  0.00  0.00    -0.271 OA
HETATM   39  H   UNK N   1      23.843  16.463   6.345  0.00  0.00     0.163 HD
BRANCH  37  40
HETATM   40  C   UNK N   1      22.028  16.416   4.387  0.00  0.00     0.182 C 
BRANCH  40  41
HETATM   41  C   UNK N   1      22.415  17.855   4.790  0.00  0.00     0.093 C 
BRANCH  41  42
HETATM   42  C   UNK N   1      21.905  18.996   3.956  0.00  0.00     0.028 A 
HETATM   43  N   UNK N   1      22.721  19.759   3.214  0.00  0.00    -0.354 N 
HETATM   44  C   UNK N   1      21.905  20.572   2.517  0.00  0.00     0.180 A 
ATOM     45  HN  UNK N   1      23.740  19.730   3.184  1.00  0.00     0.166 HD
HETATM   46  N   UNK N   1      20.606  20.342   2.800  0.00  0.00    -0.360 N 
HETATM   47  C   UNK N   1      20.597  19.343   3.700  0.00  0.00     0.114 A 
HETATM   48  H   UNK N   1      19.826  20.811   2.425  0.00  0.00     0.166 HD
ENDBRANCH  41  42
ENDBRANCH  40  41
BRANCH  40  49
HETATM   49  N   UNK N   1      20.682  15.956   4.732  0.00  0.00    -0.346 N 
HETATM   50  C   UNK N   1      19.859  15.201   3.941  0.00  0.00     0.241 C 
HETATM   51  O   UNK N   1      18.801  14.799   4.396  0.00  0.00    -0.271 OA
HETATM   52  H   UNK N   1      20.337  16.215   5.618  0.00  0.00     0.163 HD
BRANCH  50  53
HETATM   53  C   UNK N   1      20.191  14.915   2.499  0.00  0.00     0.177 C 
HETATM   54  C   UNK N   1      20.527  13.469   2.116  0.00  0.00     0.044 C 
HETATM   55  C   UNK N   1      19.897  13.258   0.722  0.00  0.00     0.105 C 
HETATM   56  C   UNK N   1      18.995  14.427   0.623  0.00  0.00     0.218 C 
HETATM   57  N   UNK N   1      19.140  15.305   1.608  0.00  0.00    -0.348 N 
HETATM   58  O   UNK N   1      18.205  14.600  -0.290  0.00  0.00    -0.274 OA
HETATM   59  H   UNK N   1      18.594  16.119   1.714  0.00  0.00     0.163 HD
ENDBRANCH  50  53
ENDBRANCH  40  49
ENDBRANCH  37  40
ENDBRANCH  24  36
ENDBRANCH  21  24
ENDBRANCH  19  20
BRANCH  19  60
HETATM   60  C   UNK N   1      28.334  17.991   8.165  0.00  0.00     0.199 C 
BRANCH  60  61
HETATM   61  O   UNK N   1      27.425  17.307   8.968  0.00  0.00    -0.398 OA
HETATM   62  H   UNK N   1      26.461  17.384   8.893  0.00  0.00     0.209 HD
ENDBRANCH  60  61
ENDBRANCH  19  60
ENDBRANCH  16  19
ENDBRANCH   5  15
ENDBRANCH   2   5
BRANCH   1  63
HETATM   63  C   UNK N   1      28.819  14.107   2.719  0.00  0.00     0.181 C 
BRANCH  63  64
HETATM   64  C   UNK N   1      29.913  13.106   2.514  0.00  0.00     0.241 C 
HETATM   65  N   UNK N   1      29.612  11.813   2.247  0.00  0.00    -0.346 N 
HETATM   66  H   UNK N   1      28.668  11.537   2.198  0.00  0.00     0.163 HD
HETATM   67  O   UNK N   1      31.082  13.454   2.612  0.00  0.00    -0.271 OA
BRANCH  65  68
HETATM   68  C   UNK N   1      30.651  10.825   2.034  0.00  0.00     0.177 C 
BRANCH  68  69
HETATM   69  C   UNK N   1      30.512   9.753   3.112  0.00  0.00     0.241 C 
HETATM   70  O   UNK N   1      29.472   9.114   3.126  0.00  0.00    -0.271 OA
HETATM   71  N   UNK N   1      31.464   9.443   4.038  0.00  0.00    -0.346 N 
HETATM   72  H   UNK N   1      31.267   8.688   4.639  0.00  0.00     0.163 HD
BRANCH  71  73
HETATM   73  C   UNK N   1      32.735  10.107   4.229  0.00  0.00     0.176 C 
BRANCH  73  74
HETATM   74  C   UNK N   1      32.617  11.448   4.887  0.00  0.00     0.243 C 
HETATM   75  N   UNK N   1      33.545  12.444   4.731  0.00  0.00    -0.337 N 
HETATM   76  C   UNK N   1      34.665  12.348   3.832  0.00  0.00     0.127 A 
HETATM   77  C   UNK N   1      33.470  13.683   5.454  0.00  0.00     0.179 A 
HETATM   78  C   UNK N   1      35.381  13.681   3.922  0.00  0.00     0.022 A 
HETATM   79  C   UNK N   1      34.586  14.548   4.892  0.00  0.00     0.037 A 
HETATM   80  O   UNK N   1      31.655  11.632   5.626  0.00  0.00    -0.271 OA
BRANCH  77  81
HETATM   81  C   UNK N   1      33.683  13.476   6.941  0.00  0.00     0.241 C 
HETATM   82  O   UNK N   1      32.719  13.253   7.655  0.00  0.00    -0.271 OA
HETATM   83  N   UNK N   1      34.934  13.525   7.471  0.00  0.00    -0.351 N 
HETATM   84  H   UNK N   1      35.698  13.700   6.876  0.00  0.00     0.163 HD
BRANCH  83  85
HETATM   85  C   UNK N   1      35.176  13.328   8.879  0.00  0.00     0.225 C 
BRANCH  85  86
HETATM   86  C   UNK N   1      36.644  13.325   9.155  0.00  0.00     0.233 C 
HETATM   87  N   UNK N   1      37.506  13.677   8.183  0.00  0.00    -0.369 N 
HETATM   88  H   UNK N   1      38.276  14.290   8.230  0.00  0.00     0.159 HD
HETATM   89  H   UNK N   1      37.346  13.264   7.304  0.00  0.00     0.159 HD
HETATM   90  O   UNK N   1      37.064  12.985  10.248  0.00  0.00    -0.272 OA
ENDBRANCH  85  86
ENDBRANCH  83  85
ENDBRANCH  77  81
ENDBRANCH  73  74
BRANCH  73  91
HETATM   91  C   UNK N   1      33.896   9.240   4.736  0.00  0.00     0.036 C 
BRANCH  91  92
HETATM   92  C   UNK N   1      34.179   9.267   6.237  0.00  0.00     0.023 C 
BRANCH  92  93
HETATM   93  C   UNK N   1      33.061   8.765   7.137  0.00  0.00     0.138 C 
BRANCH  93  94
HETATM   94  N   UNK N   1      32.495   9.868   7.886  0.00  0.00    -0.227 N 
HETATM   95  C   UNK N   1      32.971  10.273   9.163  0.00  0.00     0.665 C 
HETATM   96  N   UNK N   1      34.061   9.611   9.773  0.00  0.00    -0.235 N 
HETATM   97  N   UNK N   1      32.366  11.208   9.796  0.00  0.00    -0.235 N 
HETATM   98  H   UNK N   1      35.021   9.727   9.965  0.00  0.00     0.174 HD
HETATM   99  H   UNK N   1      33.761   8.742  10.123  0.00  0.00     0.174 HD
HETATM  100  H   UNK N   1      31.777  11.996   9.774  0.00  0.00     0.174 HD
ATOM    101  HN  UNK N   1      32.607  11.073  10.779  1.00  0.00     0.174 HD
HETATM  102  H   UNK N   1      31.743  10.362   7.490  0.00  0.00     0.177 HD
ENDBRANCH  93  94
ENDBRANCH  92  93
ENDBRANCH  91  92
ENDBRANCH  73  91
ENDBRANCH  71  73
ENDBRANCH  68  69
BRANCH  68 103
HETATM  103  C   UNK N   1      30.656  10.345   0.569  0.00  0.00     0.038 C 
BRANCH 103 104
HETATM  104  C   UNK N   1      29.405  10.691  -0.237  0.00  0.00    -0.020 C 
HETATM  105  C   UNK N   1      28.502   9.490  -0.459  0.00  0.00     0.009 C 
HETATM  106  C   UNK N   1      29.842  11.194  -1.596  0.00  0.00     0.009 C 
ENDBRANCH 103 104
ENDBRANCH  68 103
ENDBRANCH  65  68
ENDBRANCH  63  64
BRANCH  63 107
HETATM  107  C   UNK N   1      27.528  13.354   3.053  0.00  0.00     0.075 C 
BRANCH 107 108
HETATM  108  C   UNK N   1      26.308  13.557   2.200  0.00  0.00    -0.028 A 
HETATM  109  C   UNK N   1      25.517  12.665   1.498  0.00  0.00    -0.002 A 
HETATM  110  C   UNK N   1      25.566  11.279   1.348  0.00  0.00     0.014 A 
HETATM  111  C   UNK N   1      24.556  13.411   0.871  0.00  0.00     0.042 A 
HETATM  112  C   UNK N   1      24.603  10.666   0.526  0.00  0.00     0.001 A 
HETATM  113  C   UNK N   1      23.617  11.443  -0.117  0.00  0.00     0.002 A 
HETATM  114  C   UNK N   1      23.587  12.838   0.055  0.00  0.00     0.030 A 
HETATM  115  N   UNK N   1      24.698  14.718   1.147  0.00  0.00    -0.365 N 
HETATM  116  C   UNK N   1      25.774  14.818   1.962  0.00  0.00     0.096 A 
HETATM  117  H   UNK N   1      24.132  15.455   0.822  0.00  0.00     0.165 HD
ENDBRANCH 107 108
ENDBRANCH  63 107
ENDBRANCH   1  63
TORSDOF 35
ENDMDL
MODEL 6
REMARK VINA RESULT:      -8.2      2.599     12.193
REMARK WARNING: 32 MAX_TORS EXCEEDED!!!
REMARK  35 active torsions:
REMARK  status: ('A' for Active; 'I' for Inactive)
REMARK    1  A    between atoms: C_7  and  C_10 
REMARK    2  A    between atoms: C_17  and  C_10 
REMARK    3  A    between atoms: C_12  and  C_11 
REMARK       I    between atoms: C_11  and  N_73 
REMARK    4  A    between atoms: N_14  and  C_12 
REMARK    5  A    between atoms: C_12  and  C_69 
REMARK       I    between atoms: C_16  and  N_14 
REMARK    6  A    between atoms: C_16  and  C_17 
REMARK    7  A    between atoms: C_17  and  N_18 
REMARK       I    between atoms: N_18  and  C_19 
REMARK    8  A    between atoms: C_19  and  C_20 
REMARK    9  A    between atoms: C_20  and  C_22 
REMARK   10  A    between atoms: C_20  and  N_23 
REMARK   11  A    between atoms: C_22  and  C_24 
REMARK       I    between atoms: N_23  and  C_31 
REMARK   12  A    between atoms: C_29  and  O_30 
REMARK   13  A    between atoms: C_31  and  C_32 
REMARK   14  A    between atoms: C_32  and  N_33 
REMARK   15  A    between atoms: C_32  and  C_34 
REMARK       I    between atoms: N_33  and  C_36 
REMARK   16  A    between atoms: C_34  and  O_97 
REMARK   17  A    between atoms: C_36  and  C_37 
REMARK   18  A    between atoms: C_37  and  C_38 
REMARK   19  A    between atoms: C_37  and  N_49 
REMARK   20  A    between atoms: C_38  and  C_39 
REMARK       I    between atoms: N_49  and  C_50 
REMARK   21  A    between atoms: C_50  and  C_51 
REMARK   22  A    between atoms: C_51  and  C_53 
REMARK   23  A    between atoms: N_60  and  C_51 
REMARK   24  A    between atoms: C_53  and  C_54 
REMARK       I    between atoms: N_60  and  C_61 
REMARK   25  A    between atoms: C_63  and  C_61 
REMARK   26  A    between atoms: C_69  and  C_70 
REMARK   27  A    between atoms: N_73  and  C_74 
REMARK   28  A    between atoms: C_74  and  C_75 
REMARK   29  A    between atoms: C_74  and  C_78 
REMARK       I    between atoms: C_75  and  N_76 
REMARK   30  A    between atoms: C_78  and  C_79 
REMARK   31  A    between atoms: C_79  and  C_80 
REMARK   32  A    between atoms: C_80  and  N_81 
REMARK       I    between atoms: N_81  and  C_82 
REMARK       I    between atoms: C_82  and  N_83 
REMARK   33  A    between atoms: C_88  and  C_92 
REMARK   34  A    between atoms: N_93  and  C_91 
REMARK   35  A    between atoms: C_91  and  C_94 
REMARK       I    between atoms: N_93  and  C_92 
REMARK       I    between atoms: C_94  and  N_95 
ROOT
HETATM    1  N   UNK N   1      26.743  15.495   6.412  0.00  0.00    -0.346 N 
HETATM    2  C   UNK N   1      27.947  15.908   5.937  0.00  0.00     0.241 C 
HETATM    3  O   UNK N   1      28.667  15.150   5.304  0.00  0.00    -0.271 OA
HETATM    4  H   UNK N   1      26.231  16.117   6.979  0.00  0.00     0.163 HD
ENDROOT
BRANCH   2   5
HETATM    5  C   UNK N   1      28.409  17.297   6.173  0.00  0.00     0.180 C 
BRANCH   5   6
HETATM    6  C   UNK N   1      27.244  18.229   6.500  0.00  0.00     0.073 C 
BRANCH   6   7
HETATM    7  C   UNK N   1      26.670  18.907   5.296  0.00  0.00    -0.056 A 
HETATM    8  C   UNK N   1      25.402  18.547   4.868  0.00  0.00     0.010 A 
HETATM    9  C   UNK N   1      24.857  19.136   3.728  0.00  0.00     0.037 A 
HETATM   10  C   UNK N   1      25.569  20.093   3.015  0.00  0.00     0.065 A 
HETATM   11  C   UNK N   1      26.847  20.458   3.434  0.00  0.00     0.037 A 
HETATM   12  C   UNK N   1      27.402  19.860   4.566  0.00  0.00     0.010 A 
BRANCH  10  13
HETATM   13  O   UNK N   1      25.021  20.660   1.929  0.00  0.00    -0.361 OA
HETATM   14  H   UNK N   1      25.344  21.118   1.179  0.00  0.00     0.217 HD
ENDBRANCH  10  13
ENDBRANCH   6   7
ENDBRANCH   5   6
BRANCH   5  15
HETATM   15  N   UNK N   1      29.417  17.406   7.195  0.00  0.00    -0.346 N 
HETATM   16  C   UNK N   1      30.741  17.294   6.928  0.00  0.00     0.243 C 
HETATM   17  O   UNK N   1      31.534  17.510   7.828  0.00  0.00    -0.271 OA
HETATM   18  H   UNK N   1      29.133  17.572   8.123  0.00  0.00     0.163 HD
BRANCH  16  19
HETATM   19  C   UNK N   1      31.257  16.817   5.575  0.00  0.00     0.200 C 
BRANCH  19  20
HETATM   20  N   UNK N   1      32.362  15.913   5.539  0.00  0.00    -0.344 N 
HETATM   21  C   UNK N   1      32.327  14.626   5.945  0.00  0.00     0.241 C 
HETATM   22  O   UNK N   1      31.424  14.198   6.648  0.00  0.00    -0.271 OA
HETATM   23  H   UNK N   1      33.217  16.255   5.192  0.00  0.00     0.163 HD
BRANCH  21  24
HETATM   24  C   UNK N   1      33.289  13.689   5.311  0.00  0.00     0.181 C 
BRANCH  24  25
HETATM   25  C   UNK N   1      33.725  14.343   3.979  0.00  0.00     0.075 C 
BRANCH  25  26
HETATM   26  C   UNK N   1      33.229  13.478   2.831  0.00  0.00    -0.028 A 
HETATM   27  C   UNK N   1      33.995  12.540   2.149  0.00  0.00     0.096 A 
HETATM   28  N   UNK N   1      33.202  11.820   1.312  0.00  0.00    -0.365 N 
HETATM   29  C   UNK N   1      31.953  12.287   1.477  0.00  0.00     0.042 A 
HETATM   30  H   UNK N   1      33.487  11.098   0.706  0.00  0.00     0.165 HD
HETATM   31  C   UNK N   1      30.792  11.798   0.878  0.00  0.00     0.030 A 
HETATM   32  C   UNK N   1      31.928  13.310   2.382  0.00  0.00    -0.002 A 
HETATM   33  C   UNK N   1      29.568  12.396   1.228  0.00  0.00     0.002 A 
HETATM   34  C   UNK N   1      29.537  13.463   2.150  0.00  0.00     0.001 A 
HETATM   35  C   UNK N   1      30.731  13.928   2.736  0.00  0.00     0.014 A 
ENDBRANCH  25  26
ENDBRANCH  24  25
BRANCH  24  36
HETATM   36  N   UNK N   1      34.359  13.549   6.274  0.00  0.00    -0.346 N 
HETATM   37  C   UNK N   1      34.922  12.346   6.533  0.00  0.00     0.241 C 
HETATM   38  O   UNK N   1      34.765  11.413   5.761  0.00  0.00    -0.271 OA
HETATM   39  H   UNK N   1      34.685  14.346   6.751  0.00  0.00     0.163 HD
BRANCH  37  40
HETATM   40  C   UNK N   1      35.492  12.073   7.897  0.00  0.00     0.182 C 
BRANCH  40  41
HETATM   41  C   UNK N   1      34.385  12.166   8.969  0.00  0.00     0.093 C 
BRANCH  41  42
HETATM   42  C   UNK N   1      34.362  11.142  10.069  0.00  0.00     0.028 A 
HETATM   43  N   UNK N   1      35.357  11.031  10.962  0.00  0.00    -0.354 N 
HETATM   44  C   UNK N   1      34.928  10.118  11.854  0.00  0.00     0.180 A 
ATOM     45  HN  UNK N   1      36.247  11.529  10.964  1.00  0.00     0.166 HD
HETATM   46  N   UNK N   1      33.698   9.656  11.548  0.00  0.00    -0.360 N 
HETATM   47  C   UNK N   1      33.330  10.305  10.428  0.00  0.00     0.114 A 
HETATM   48  H   UNK N   1      33.179   8.982  12.042  0.00  0.00     0.166 HD
ENDBRANCH  41  42
ENDBRANCH  40  41
BRANCH  40  49
HETATM   49  N   UNK N   1      36.765  12.736   8.180  0.00  0.00    -0.346 N 
HETATM   50  C   UNK N   1      36.957  13.778   9.047  0.00  0.00     0.241 C 
HETATM   51  O   UNK N   1      38.092  14.167   9.267  0.00  0.00    -0.271 OA
HETATM   52  H   UNK N   1      37.558  12.400   7.703  0.00  0.00     0.163 HD
BRANCH  50  53
HETATM   53  C   UNK N   1      35.798  14.506   9.680  0.00  0.00     0.177 C 
HETATM   54  C   UNK N   1      35.988  15.055  11.099  0.00  0.00     0.044 C 
HETATM   55  C   UNK N   1      35.240  16.405  11.119  0.00  0.00     0.105 C 
HETATM   56  C   UNK N   1      35.028  16.649   9.674  0.00  0.00     0.218 C 
HETATM   57  N   UNK N   1      35.364  15.624   8.899  0.00  0.00    -0.348 N 
HETATM   58  O   UNK N   1      34.562  17.681   9.221  0.00  0.00    -0.274 OA
HETATM   59  H   UNK N   1      35.321  15.633   7.915  0.00  0.00     0.163 HD
ENDBRANCH  50  53
ENDBRANCH  40  49
ENDBRANCH  37  40
ENDBRANCH  24  36
ENDBRANCH  21  24
ENDBRANCH  19  20
BRANCH  19  60
HETATM   60  C   UNK N   1      31.278  17.667   4.310  0.00  0.00     0.199 C 
BRANCH  60  61
HETATM   61  O   UNK N   1      30.295  17.239   3.420  0.00  0.00    -0.398 OA
HETATM   62  H   UNK N   1      30.438  17.103   2.470  0.00  0.00     0.209 HD
ENDBRANCH  60  61
ENDBRANCH  19  60
ENDBRANCH  16  19
ENDBRANCH   5  15
ENDBRANCH   2   5
BRANCH   1  63
HETATM   63  C   UNK N   1      26.168  14.194   6.134  0.00  0.00     0.181 C 
BRANCH  63  64
HETATM   64  C   UNK N   1      24.869  14.072   6.867  0.00  0.00     0.241 C 
HETATM   65  N   UNK N   1      24.441  12.862   7.298  0.00  0.00    -0.346 N 
HETATM   66  H   UNK N   1      24.989  12.064   7.117  0.00  0.00     0.163 HD
HETATM   67  O   UNK N   1      24.181  15.066   7.056  0.00  0.00    -0.271 OA
BRANCH  65  68
HETATM   68  C   UNK N   1      23.193  12.716   8.020  0.00  0.00     0.177 C 
BRANCH  68  69
HETATM   69  C   UNK N   1      22.154  12.146   7.057  0.00  0.00     0.241 C 
HETATM   70  O   UNK N   1      22.228  10.953   6.806  0.00  0.00    -0.271 OA
HETATM   71  N   UNK N   1      21.146  12.859   6.477  0.00  0.00    -0.346 N 
HETATM   72  H   UNK N   1      20.510  12.353   5.921  0.00  0.00     0.163 HD
BRANCH  71  73
HETATM   73  C   UNK N   1      20.914  14.281   6.595  0.00  0.00     0.176 C 
BRANCH  73  74
HETATM   74  C   UNK N   1      20.299  14.892   5.372  0.00  0.00     0.243 C 
HETATM   75  N   UNK N   1      20.990  15.094   4.206  0.00  0.00    -0.337 N 
HETATM   76  C   UNK N   1      22.339  14.637   3.997  0.00  0.00     0.127 A 
HETATM   77  C   UNK N   1      20.415  15.777   3.082  0.00  0.00     0.179 A 
HETATM   78  C   UNK N   1      22.681  15.004   2.567  0.00  0.00     0.022 A 
HETATM   79  C   UNK N   1      21.442  15.660   1.968  0.00  0.00     0.037 A 
HETATM   80  O   UNK N   1      19.130  15.256   5.449  0.00  0.00    -0.271 OA
BRANCH  77  81
HETATM   81  C   UNK N   1      20.158  17.240   3.389  0.00  0.00     0.241 C 
HETATM   82  O   UNK N   1      19.010  17.654   3.400  0.00  0.00    -0.271 OA
HETATM   83  N   UNK N   1      21.192  18.079   3.661  0.00  0.00    -0.351 N 
HETATM   84  H   UNK N   1      22.110  17.722   3.653  0.00  0.00     0.163 HD
BRANCH  83  85
HETATM   85  C   UNK N   1      20.987  19.474   3.962  0.00  0.00     0.225 C 
BRANCH  85  86
HETATM   86  C   UNK N   1      21.211  20.304   2.741  0.00  0.00     0.233 C 
HETATM   87  N   UNK N   1      20.443  20.111   1.653  0.00  0.00    -0.369 N 
HETATM   88  H   UNK N   1      19.988  20.778   1.089  0.00  0.00     0.159 HD
HETATM   89  H   UNK N   1      20.318  19.173   1.382  0.00  0.00     0.159 HD
HETATM   90  O   UNK N   1      22.100  21.139   2.719  0.00  0.00    -0.272 OA
ENDBRANCH  85  86
ENDBRANCH  83  85
ENDBRANCH  77  81
ENDBRANCH  73  74
BRANCH  73  91
HETATM   91  C   UNK N   1      20.327  14.775   7.925  0.00  0.00     0.036 C 
BRANCH  91  92
HETATM   92  C   UNK N   1      20.598  16.229   8.308  0.00  0.00     0.023 C 
BRANCH  92  93
HETATM   93  C   UNK N   1      19.385  17.144   8.356  0.00  0.00     0.138 C 
BRANCH  93  94
HETATM   94  N   UNK N   1      19.625  18.236   9.275  0.00  0.00    -0.227 N 
HETATM   95  C   UNK N   1      18.626  18.768  10.137  0.00  0.00     0.665 C 
HETATM   96  N   UNK N   1      17.319  18.229  10.150  0.00  0.00    -0.235 N 
HETATM   97  N   UNK N   1      18.895  19.787  10.865  0.00  0.00    -0.235 N 
HETATM   98  H   UNK N   1      16.730  17.654  10.690  0.00  0.00     0.174 HD
HETATM   99  H   UNK N   1      16.834  18.529   9.347  0.00  0.00     0.174 HD
HETATM  100  H   UNK N   1      19.568  20.349  11.312  0.00  0.00     0.174 HD
ATOM    101  HN  UNK N   1      17.994  20.213  11.084  1.00  0.00     0.174 HD
HETATM  102  H   UNK N   1      20.525  18.631   9.306  0.00  0.00     0.177 HD
ENDBRANCH  93  94
ENDBRANCH  92  93
ENDBRANCH  91  92
ENDBRANCH  73  91
ENDBRANCH  71  73
ENDBRANCH  68  69
BRANCH  68 103
HETATM  103  C   UNK N   1      23.412  11.954   9.341  0.00  0.00     0.038 C 
BRANCH 103 104
HETATM  104  C   UNK N   1      22.876  12.646  10.593  0.00  0.00    -0.020 C 
HETATM  105  C   UNK N   1      23.331  11.971  11.874  0.00  0.00     0.009 C 
HETATM  106  C   UNK N   1      21.364  12.589  10.555  0.00  0.00     0.009 C 
ENDBRANCH 103 104
ENDBRANCH  68 103
ENDBRANCH  65  68
ENDBRANCH  63  64
BRANCH  63 107
HETATM  107  C   UNK N   1      25.909  13.955   4.644  0.00  0.00     0.075 C 
BRANCH 107 108
HETATM  108  C   UNK N   1      26.353  12.667   4.011  0.00  0.00    -0.028 A 
HETATM  109  C   UNK N   1      25.980  12.044   2.833  0.00  0.00    -0.002 A 
HETATM  110  C   UNK N   1      25.084  12.396   1.823  0.00  0.00     0.014 A 
HETATM  111  C   UNK N   1      26.686  10.873   2.775  0.00  0.00     0.042 A 
HETATM  112  C   UNK N   1      24.917  11.510   0.745  0.00  0.00     0.001 A 
HETATM  113  C   UNK N   1      25.647  10.303   0.694  0.00  0.00     0.002 A 
HETATM  114  C   UNK N   1      26.548   9.975   1.721  0.00  0.00     0.030 A 
HETATM  115  N   UNK N   1      27.482  10.731   3.847  0.00  0.00    -0.365 N 
HETATM  116  C   UNK N   1      27.283  11.828   4.614  0.00  0.00     0.096 A 
HETATM  117  H   UNK N   1      28.090   9.980   4.036  0.00  0.00     0.165 HD
ENDBRANCH 107 108
ENDBRANCH  63 107
ENDBRANCH   1  63
TORSDOF 35
ENDMDL
MODEL 7
REMARK VINA RESULT:      -8.2      2.857     12.259
REMARK WARNING: 32 MAX_TORS EXCEEDED!!!
REMARK  35 active torsions:
REMARK  status: ('A' for Active; 'I' for Inactive)
REMARK    1  A    between atoms: C_7  and  C_10 
REMARK    2  A    between atoms: C_17  and  C_10 
REMARK    3  A    between atoms: C_12  and  C_11 
REMARK       I    between atoms: C_11  and  N_73 
REMARK    4  A    between atoms: N_14  and  C_12 
REMARK    5  A    between atoms: C_12  and  C_69 
REMARK       I    between atoms: C_16  and  N_14 
REMARK    6  A    between atoms: C_16  and  C_17 
REMARK    7  A    between atoms: C_17  and  N_18 
REMARK       I    between atoms: N_18  and  C_19 
REMARK    8  A    between atoms: C_19  and  C_20 
REMARK    9  A    between atoms: C_20  and  C_22 
REMARK   10  A    between atoms: C_20  and  N_23 
REMARK   11  A    between atoms: C_22  and  C_24 
REMARK       I    between atoms: N_23  and  C_31 
REMARK   12  A    between atoms: C_29  and  O_30 
REMARK   13  A    between atoms: C_31  and  C_32 
REMARK   14  A    between atoms: C_32  and  N_33 
REMARK   15  A    between atoms: C_32  and  C_34 
REMARK       I    between atoms: N_33  and  C_36 
REMARK   16  A    between atoms: C_34  and  O_97 
REMARK   17  A    between atoms: C_36  and  C_37 
REMARK   18  A    between atoms: C_37  and  C_38 
REMARK   19  A    between atoms: C_37  and  N_49 
REMARK   20  A    between atoms: C_38  and  C_39 
REMARK       I    between atoms: N_49  and  C_50 
REMARK   21  A    between atoms: C_50  and  C_51 
REMARK   22  A    between atoms: C_51  and  C_53 
REMARK   23  A    between atoms: N_60  and  C_51 
REMARK   24  A    between atoms: C_53  and  C_54 
REMARK       I    between atoms: N_60  and  C_61 
REMARK   25  A    between atoms: C_63  and  C_61 
REMARK   26  A    between atoms: C_69  and  C_70 
REMARK   27  A    between atoms: N_73  and  C_74 
REMARK   28  A    between atoms: C_74  and  C_75 
REMARK   29  A    between atoms: C_74  and  C_78 
REMARK       I    between atoms: C_75  and  N_76 
REMARK   30  A    between atoms: C_78  and  C_79 
REMARK   31  A    between atoms: C_79  and  C_80 
REMARK   32  A    between atoms: C_80  and  N_81 
REMARK       I    between atoms: N_81  and  C_82 
REMARK       I    between atoms: C_82  and  N_83 
REMARK   33  A    between atoms: C_88  and  C_92 
REMARK   34  A    between atoms: N_93  and  C_91 
REMARK   35  A    between atoms: C_91  and  C_94 
REMARK       I    between atoms: N_93  and  C_92 
REMARK       I    between atoms: C_94  and  N_95 
ROOT
HETATM    1  N   UNK N   1      27.573  12.649   3.631  0.00  0.00    -0.346 N 
HETATM    2  C   UNK N   1      28.855  13.069   3.798  0.00  0.00     0.241 C 
HETATM    3  O   UNK N   1      29.382  13.058   4.901  0.00  0.00    -0.271 OA
HETATM    4  H   UNK N   1      27.167  12.746   2.739  0.00  0.00     0.163 HD
ENDROOT
BRANCH   2   5
HETATM    5  C   UNK N   1      29.645  13.545   2.638  0.00  0.00     0.180 C 
BRANCH   5   6
HETATM    6  C   UNK N   1      29.168  12.907   1.334  0.00  0.00     0.073 C 
BRANCH   6   7
HETATM    7  C   UNK N   1      30.218  12.080   0.659  0.00  0.00    -0.056 A 
HETATM    8  C   UNK N   1      31.263  11.579   1.419  0.00  0.00     0.010 A 
HETATM    9  C   UNK N   1      32.275  10.837   0.812  0.00  0.00     0.037 A 
HETATM   10  C   UNK N   1      32.244  10.582  -0.554  0.00  0.00     0.065 A 
HETATM   11  C   UNK N   1      31.200  11.086  -1.329  0.00  0.00     0.037 A 
HETATM   12  C   UNK N   1      30.193  11.842  -0.725  0.00  0.00     0.010 A 
BRANCH  10  13
HETATM   13  O   UNK N   1      33.218   9.852  -1.119  0.00  0.00    -0.361 OA
HETATM   14  H   UNK N   1      33.262   9.041  -1.585  0.00  0.00     0.217 HD
ENDBRANCH  10  13
ENDBRANCH   6   7
ENDBRANCH   5   6
BRANCH   5  15
HETATM   15  N   UNK N   1      29.661  14.977   2.496  0.00  0.00    -0.346 N 
HETATM   16  C   UNK N   1      30.676  15.744   2.963  0.00  0.00     0.243 C 
HETATM   17  O   UNK N   1      30.668  16.936   2.705  0.00  0.00    -0.271 OA
HETATM   18  H   UNK N   1      28.906  15.416   2.040  0.00  0.00     0.163 HD
BRANCH  16  19
HETATM   19  C   UNK N   1      31.764  15.183   3.872  0.00  0.00     0.200 C 
BRANCH  19  20
HETATM   20  N   UNK N   1      31.641  15.360   5.283  0.00  0.00    -0.344 N 
HETATM   21  C   UNK N   1      31.839  16.522   5.941  0.00  0.00     0.241 C 
HETATM   22  O   UNK N   1      32.423  17.462   5.425  0.00  0.00    -0.271 OA
HETATM   23  H   UNK N   1      31.392  14.573   5.819  0.00  0.00     0.163 HD
BRANCH  21  24
HETATM   24  C   UNK N   1      31.113  16.708   7.224  0.00  0.00     0.181 C 
BRANCH  24  25
HETATM   25  C   UNK N   1      29.646  16.293   6.961  0.00  0.00     0.075 C 
BRANCH  25  26
HETATM   26  C   UNK N   1      28.743  17.467   7.301  0.00  0.00    -0.028 A 
HETATM   27  C   UNK N   1      28.345  17.823   8.584  0.00  0.00     0.096 A 
HETATM   28  N   UNK N   1      27.698  19.018   8.549  0.00  0.00    -0.365 N 
HETATM   29  C   UNK N   1      27.702  19.415   7.265  0.00  0.00     0.042 A 
HETATM   30  H   UNK N   1      27.304  19.498   9.314  0.00  0.00     0.165 HD
HETATM   31  C   UNK N   1      27.214  20.621   6.762  0.00  0.00     0.030 A 
HETATM   32  C   UNK N   1      28.315  18.491   6.469  0.00  0.00    -0.002 A 
HETATM   33  C   UNK N   1      27.365  20.870   5.386  0.00  0.00     0.002 A 
HETATM   34  C   UNK N   1      27.984  19.913   4.555  0.00  0.00     0.001 A 
HETATM   35  C   UNK N   1      28.465  18.706   5.101  0.00  0.00     0.014 A 
ENDBRANCH  25  26
ENDBRANCH  24  25
BRANCH  24  36
HETATM   36  N   UNK N   1      31.804  15.856   8.166  0.00  0.00    -0.346 N 
HETATM   37  C   UNK N   1      32.922  16.272   8.805  0.00  0.00     0.241 C 
HETATM   38  O   UNK N   1      33.204  17.460   8.843  0.00  0.00    -0.271 OA
HETATM   39  H   UNK N   1      31.453  14.954   8.348  0.00  0.00     0.163 HD
BRANCH  37  40
HETATM   40  C   UNK N   1      33.960  15.266   9.215  0.00  0.00     0.182 C 
BRANCH  40  41
HETATM   41  C   UNK N   1      35.063  15.944  10.056  0.00  0.00     0.093 C 
BRANCH  41  42
HETATM   42  C   UNK N   1      35.923  15.086  10.940  0.00  0.00     0.028 A 
HETATM   43  N   UNK N   1      35.592  14.815  12.212  0.00  0.00    -0.354 N 
HETATM   44  C   UNK N   1      36.511  13.926  12.632  0.00  0.00     0.180 A 
ATOM     45  HN  UNK N   1      34.813  15.200  12.745  1.00  0.00     0.166 HD
HETATM   46  N   UNK N   1      37.405  13.633  11.665  0.00  0.00    -0.360 N 
HETATM   47  C   UNK N   1      37.035  14.354  10.591  0.00  0.00     0.114 A 
HETATM   48  H   UNK N   1      38.171  13.019  11.732  0.00  0.00     0.166 HD
ENDBRANCH  41  42
ENDBRANCH  40  41
BRANCH  40  49
HETATM   49  N   UNK N   1      34.385  14.349   8.157  0.00  0.00    -0.346 N 
HETATM   50  C   UNK N   1      34.099  13.011   8.085  0.00  0.00     0.241 C 
HETATM   51  O   UNK N   1      34.429  12.386   7.091  0.00  0.00    -0.271 OA
HETATM   52  H   UNK N   1      34.927  14.729   7.429  0.00  0.00     0.163 HD
BRANCH  50  53
HETATM   53  C   UNK N   1      33.454  12.276   9.232  0.00  0.00     0.177 C 
HETATM   54  C   UNK N   1      32.851  10.895   8.947  0.00  0.00     0.044 C 
HETATM   55  C   UNK N   1      33.159  10.048  10.201  0.00  0.00     0.105 C 
HETATM   56  C   UNK N   1      34.177  10.880  10.879  0.00  0.00     0.218 C 
HETATM   57  N   UNK N   1      34.353  12.075  10.327  0.00  0.00    -0.348 N 
HETATM   58  O   UNK N   1      34.789  10.528  11.874  0.00  0.00    -0.274 OA
HETATM   59  H   UNK N   1      35.017  12.737  10.631  0.00  0.00     0.163 HD
ENDBRANCH  50  53
ENDBRANCH  40  49
ENDBRANCH  37  40
ENDBRANCH  24  36
ENDBRANCH  21  24
ENDBRANCH  19  20
BRANCH  19  60
HETATM   60  C   UNK N   1      33.244  15.123   3.512  0.00  0.00     0.199 C 
BRANCH  60  61
HETATM   61  O   UNK N   1      33.507  15.922   2.402  0.00  0.00    -0.398 OA
HETATM   62  H   UNK N   1      33.262  15.693   1.491  0.00  0.00     0.209 HD
ENDBRANCH  60  61
ENDBRANCH  19  60
ENDBRANCH  16  19
ENDBRANCH   5  15
ENDBRANCH   2   5
BRANCH   1  63
HETATM   63  C   UNK N   1      26.770  12.067   4.687  0.00  0.00     0.181 C 
BRANCH  63  64
HETATM   64  C   UNK N   1      25.377  12.604   4.587  0.00  0.00     0.241 C 
HETATM   65  N   UNK N   1      25.137  13.758   3.919  0.00  0.00    -0.346 N 
HETATM   66  H   UNK N   1      25.889  14.242   3.507  0.00  0.00     0.163 HD
HETATM   67  O   UNK N   1      24.455  12.011   5.132  0.00  0.00    -0.271 OA
BRANCH  65  68
HETATM   68  C   UNK N   1      23.796  14.295   3.798  0.00  0.00     0.177 C 
BRANCH  68  69
HETATM   69  C   UNK N   1      23.660  15.451   4.786  0.00  0.00     0.241 C 
HETATM   70  O   UNK N   1      24.694  15.945   5.207  0.00  0.00    -0.271 OA
HETATM   71  N   UNK N   1      22.478  15.982   5.214  0.00  0.00    -0.346 N 
HETATM   72  H   UNK N   1      22.535  16.765   5.808  0.00  0.00     0.163 HD
BRANCH  71  73
HETATM   73  C   UNK N   1      21.150  15.515   4.885  0.00  0.00     0.176 C 
BRANCH  73  74
HETATM   74  C   UNK N   1      20.278  15.291   6.083  0.00  0.00     0.243 C 
HETATM   75  N   UNK N   1      20.120  16.218   7.080  0.00  0.00    -0.337 N 
HETATM   76  C   UNK N   1      20.680  17.543   7.023  0.00  0.00     0.127 A 
HETATM   77  C   UNK N   1      19.366  15.943   8.270  0.00  0.00     0.179 A 
HETATM   78  C   UNK N   1      20.206  18.245   8.281  0.00  0.00     0.022 A 
HETATM   79  C   UNK N   1      19.319  17.258   9.032  0.00  0.00     0.037 A 
HETATM   80  O   UNK N   1      19.716  14.205   6.177  0.00  0.00    -0.271 OA
BRANCH  77  81
HETATM   81  C   UNK N   1      20.035  14.882   9.123  0.00  0.00     0.241 C 
HETATM   82  O   UNK N   1      19.354  14.211   9.881  0.00  0.00    -0.271 OA
HETATM   83  N   UNK N   1      21.375  14.672   9.035  0.00  0.00    -0.351 N 
HETATM   84  H   UNK N   1      21.904  15.221   8.412  0.00  0.00     0.163 HD
BRANCH  83  85
HETATM   85  C   UNK N   1      22.046  13.669   9.825  0.00  0.00     0.225 C 
BRANCH  85  86
HETATM   86  C   UNK N   1      23.423  13.433   9.300  0.00  0.00     0.233 C 
HETATM   87  N   UNK N   1      24.416  13.111  10.150  0.00  0.00    -0.369 N 
HETATM   88  H   UNK N   1      25.092  12.399  10.072  0.00  0.00     0.159 HD
HETATM   89  H   UNK N   1      24.475  13.664  10.962  0.00  0.00     0.159 HD
HETATM   90  O   UNK N   1      23.657  13.552   8.108  0.00  0.00    -0.272 OA
ENDBRANCH  85  86
ENDBRANCH  83  85
ENDBRANCH  77  81
ENDBRANCH  73  74
BRANCH  73  91
HETATM   91  C   UNK N   1      20.453  16.201   3.701  0.00  0.00     0.036 C 
BRANCH  91  92
HETATM   92  C   UNK N   1      20.968  17.581   3.295  0.00  0.00     0.023 C 
BRANCH  92  93
HETATM   93  C   UNK N   1      19.912  18.657   3.099  0.00  0.00     0.138 C 
BRANCH  93  94
HETATM   94  N   UNK N   1      20.021  19.221   1.770  0.00  0.00    -0.227 N 
HETATM   95  C   UNK N   1      20.591  20.497   1.505  0.00  0.00     0.665 C 
HETATM   96  N   UNK N   1      21.107  21.291   2.555  0.00  0.00    -0.235 N 
HETATM   97  N   UNK N   1      20.579  20.960   0.311  0.00  0.00    -0.235 N 
HETATM   98  H   UNK N   1      21.962  21.579   2.951  0.00  0.00     0.174 HD
HETATM   99  H   UNK N   1      20.362  21.691   3.059  0.00  0.00     0.174 HD
HETATM  100  H   UNK N   1      20.526  20.792  -0.658  0.00  0.00     0.174 HD
ATOM    101  HN  UNK N   1      20.665  21.972   0.408  1.00  0.00     0.174 HD
HETATM  102  H   UNK N   1      19.684  18.694   1.010  0.00  0.00     0.177 HD
ENDBRANCH  93  94
ENDBRANCH  92  93
ENDBRANCH  91  92
ENDBRANCH  73  91
ENDBRANCH  71  73
ENDBRANCH  68  69
BRANCH  68 103
HETATM  103  C   UNK N   1      23.459  14.594   2.324  0.00  0.00     0.038 C 
BRANCH 103 104
HETATM  104  C   UNK N   1      22.597  13.544   1.624  0.00  0.00    -0.020 C 
HETATM  105  C   UNK N   1      21.484  14.160   0.796  0.00  0.00     0.009 C 
HETATM  106  C   UNK N   1      21.955  12.676   2.684  0.00  0.00     0.009 C 
ENDBRANCH 103 104
ENDBRANCH  68 103
ENDBRANCH  65  68
ENDBRANCH  63  64
BRANCH  63 107
HETATM  107  C   UNK N   1      26.707  10.538   4.625  0.00  0.00     0.075 C 
BRANCH 107 108
HETATM  108  C   UNK N   1      27.818   9.775   3.961  0.00  0.00    -0.028 A 
HETATM  109  C   UNK N   1      28.041   9.438   2.639  0.00  0.00    -0.002 A 
HETATM  110  C   UNK N   1      27.329   9.697   1.467  0.00  0.00     0.014 A 
HETATM  111  C   UNK N   1      29.199   8.708   2.615  0.00  0.00     0.042 A 
HETATM  112  C   UNK N   1      27.828   9.181   0.258  0.00  0.00     0.001 A 
HETATM  113  C   UNK N   1      29.022   8.428   0.244  0.00  0.00     0.002 A 
HETATM  114  C   UNK N   1      29.722   8.186   1.438  0.00  0.00     0.030 A 
HETATM  115  N   UNK N   1      29.715   8.575   3.848  0.00  0.00    -0.365 N 
HETATM  116  C   UNK N   1      28.871   9.226   4.683  0.00  0.00     0.096 A 
HETATM  117  H   UNK N   1      30.541   8.100   4.095  0.00  0.00     0.165 HD
ENDBRANCH 107 108
ENDBRANCH  63 107
ENDBRANCH   1  63
TORSDOF 35
ENDMDL
MODEL 8
REMARK VINA RESULT:      -8.1      3.888      8.368
REMARK WARNING: 32 MAX_TORS EXCEEDED!!!
REMARK  35 active torsions:
REMARK  status: ('A' for Active; 'I' for Inactive)
REMARK    1  A    between atoms: C_7  and  C_10 
REMARK    2  A    between atoms: C_17  and  C_10 
REMARK    3  A    between atoms: C_12  and  C_11 
REMARK       I    between atoms: C_11  and  N_73 
REMARK    4  A    between atoms: N_14  and  C_12 
REMARK    5  A    between atoms: C_12  and  C_69 
REMARK       I    between atoms: C_16  and  N_14 
REMARK    6  A    between atoms: C_16  and  C_17 
REMARK    7  A    between atoms: C_17  and  N_18 
REMARK       I    between atoms: N_18  and  C_19 
REMARK    8  A    between atoms: C_19  and  C_20 
REMARK    9  A    between atoms: C_20  and  C_22 
REMARK   10  A    between atoms: C_20  and  N_23 
REMARK   11  A    between atoms: C_22  and  C_24 
REMARK       I    between atoms: N_23  and  C_31 
REMARK   12  A    between atoms: C_29  and  O_30 
REMARK   13  A    between atoms: C_31  and  C_32 
REMARK   14  A    between atoms: C_32  and  N_33 
REMARK   15  A    between atoms: C_32  and  C_34 
REMARK       I    between atoms: N_33  and  C_36 
REMARK   16  A    between atoms: C_34  and  O_97 
REMARK   17  A    between atoms: C_36  and  C_37 
REMARK   18  A    between atoms: C_37  and  C_38 
REMARK   19  A    between atoms: C_37  and  N_49 
REMARK   20  A    between atoms: C_38  and  C_39 
REMARK       I    between atoms: N_49  and  C_50 
REMARK   21  A    between atoms: C_50  and  C_51 
REMARK   22  A    between atoms: C_51  and  C_53 
REMARK   23  A    between atoms: N_60  and  C_51 
REMARK   24  A    between atoms: C_53  and  C_54 
REMARK       I    between atoms: N_60  and  C_61 
REMARK   25  A    between atoms: C_63  and  C_61 
REMARK   26  A    between atoms: C_69  and  C_70 
REMARK   27  A    between atoms: N_73  and  C_74 
REMARK   28  A    between atoms: C_74  and  C_75 
REMARK   29  A    between atoms: C_74  and  C_78 
REMARK       I    between atoms: C_75  and  N_76 
REMARK   30  A    between atoms: C_78  and  C_79 
REMARK   31  A    between atoms: C_79  and  C_80 
REMARK   32  A    between atoms: C_80  and  N_81 
REMARK       I    between atoms: N_81  and  C_82 
REMARK       I    between atoms: C_82  and  N_83 
REMARK   33  A    between atoms: C_88  and  C_92 
REMARK   34  A    between atoms: N_93  and  C_91 
REMARK   35  A    between atoms: C_91  and  C_94 
REMARK       I    between atoms: N_93  and  C_92 
REMARK       I    between atoms: C_94  and  N_95 
ROOT
HETATM    1  N   UNK N   1      29.463  14.966   3.940  0.00  0.00    -0.346 N 
HETATM    2  C   UNK N   1      29.770  16.262   3.673  0.00  0.00     0.241 C 
HETATM    3  O   UNK N   1      29.757  16.689   2.528  0.00  0.00    -0.271 OA
HETATM    4  H   UNK N   1      29.560  14.649   4.867  0.00  0.00     0.163 HD
ENDROOT
BRANCH   2   5
HETATM    5  C   UNK N   1      30.121  17.191   4.773  0.00  0.00     0.180 C 
BRANCH   5   6
HETATM    6  C   UNK N   1      31.599  17.577   4.733  0.00  0.00     0.073 C 
BRANCH   6   7
HETATM    7  C   UNK N   1      32.286  17.434   6.056  0.00  0.00    -0.056 A 
HETATM    8  C   UNK N   1      31.517  17.199   7.184  0.00  0.00     0.010 A 
HETATM    9  C   UNK N   1      32.125  17.098   8.435  0.00  0.00     0.037 A 
HETATM   10  C   UNK N   1      33.503  17.221   8.564  0.00  0.00     0.065 A 
HETATM   11  C   UNK N   1      34.285  17.464   7.436  0.00  0.00     0.037 A 
HETATM   12  C   UNK N   1      33.677  17.580   6.184  0.00  0.00     0.010 A 
BRANCH  10  13
HETATM   13  O   UNK N   1      34.073  17.106   9.774  0.00  0.00    -0.361 OA
HETATM   14  H   UNK N   1      34.030  16.490  10.477  0.00  0.00     0.217 HD
ENDBRANCH  10  13
ENDBRANCH   6   7
ENDBRANCH   5   6
BRANCH   5  15
HETATM   15  N   UNK N   1      29.313  18.382   4.806  0.00  0.00    -0.346 N 
HETATM   16  C   UNK N   1      28.401  18.617   5.781  0.00  0.00     0.243 C 
HETATM   17  O   UNK N   1      27.838  19.698   5.799  0.00  0.00    -0.271 OA
HETATM   18  H   UNK N   1      29.428  19.052   4.094  0.00  0.00     0.163 HD
BRANCH  16  19
HETATM   19  C   UNK N   1      27.996  17.545   6.788  0.00  0.00     0.200 C 
BRANCH  19  20
HETATM   20  N   UNK N   1      26.692  16.972   6.694  0.00  0.00    -0.344 N 
HETATM   21  C   UNK N   1      26.217  16.289   5.631  0.00  0.00     0.241 C 
HETATM   22  O   UNK N   1      26.757  16.346   4.537  0.00  0.00    -0.271 OA
HETATM   23  H   UNK N   1      26.091  17.083   7.466  0.00  0.00     0.163 HD
BRANCH  21  24
HETATM   24  C   UNK N   1      25.162  15.276   5.892  0.00  0.00     0.181 C 
BRANCH  24  25
HETATM   25  C   UNK N   1      25.618  14.479   7.137  0.00  0.00     0.075 C 
BRANCH  25  26
HETATM   26  C   UNK N   1      24.641  13.337   7.365  0.00  0.00    -0.028 A 
HETATM   27  C   UNK N   1      23.588  13.356   8.272  0.00  0.00     0.096 A 
HETATM   28  N   UNK N   1      22.808  12.258   8.093  0.00  0.00    -0.365 N 
HETATM   29  C   UNK N   1      23.352  11.567   7.076  0.00  0.00     0.042 A 
HETATM   30  H   UNK N   1      22.002  12.016   8.605  0.00  0.00     0.165 HD
HETATM   31  C   UNK N   1      22.848  10.405   6.492  0.00  0.00     0.030 A 
HETATM   32  C   UNK N   1      24.480  12.182   6.615  0.00  0.00    -0.002 A 
HETATM   33  C   UNK N   1      23.544   9.864   5.396  0.00  0.00     0.002 A 
HETATM   34  C   UNK N   1      24.719  10.486   4.923  0.00  0.00     0.001 A 
HETATM   35  C   UNK N   1      25.196  11.660   5.540  0.00  0.00     0.014 A 
ENDBRANCH  25  26
ENDBRANCH  24  25
BRANCH  24  36
HETATM   36  N   UNK N   1      23.954  16.045   6.097  0.00  0.00    -0.346 N 
HETATM   37  C   UNK N   1      22.914  15.966   5.235  0.00  0.00     0.241 C 
HETATM   38  O   UNK N   1      22.836  15.037   4.446  0.00  0.00    -0.271 OA
HETATM   39  H   UNK N   1      23.887  16.637   6.880  0.00  0.00     0.163 HD
BRANCH  37  40
HETATM   40  C   UNK N   1      22.016  17.157   5.047  0.00  0.00     0.182 C 
BRANCH  40  41
HETATM   41  C   UNK N   1      22.554  18.061   3.917  0.00  0.00     0.093 C 
BRANCH  41  42
HETATM   42  C   UNK N   1      21.585  18.937   3.175  0.00  0.00     0.028 A 
HETATM   43  N   UNK N   1      21.926  20.150   2.714  0.00  0.00    -0.354 N 
HETATM   44  C   UNK N   1      20.864  20.567   2.001  0.00  0.00     0.180 A 
ATOM     45  HN  UNK N   1      22.802  20.649   2.872  1.00  0.00     0.166 HD
HETATM   46  N   UNK N   1      19.870  19.655   2.000  0.00  0.00    -0.360 N 
HETATM   47  C   UNK N   1      20.321  18.619   2.730  0.00  0.00     0.114 A 
HETATM   48  H   UNK N   1      18.995  19.733   1.557  0.00  0.00     0.166 HD
ENDBRANCH  41  42
ENDBRANCH  40  41
BRANCH  40  49
HETATM   49  N   UNK N   1      21.581  17.807   6.283  0.00  0.00    -0.346 N 
HETATM   50  C   UNK N   1      20.600  17.361   7.128  0.00  0.00     0.241 C 
HETATM   51  O   UNK N   1      20.411  17.947   8.181  0.00  0.00    -0.271 OA
HETATM   52  H   UNK N   1      22.038  18.643   6.531  0.00  0.00     0.163 HD
BRANCH  50  53
HETATM   53  C   UNK N   1      19.698  16.212   6.758  0.00  0.00     0.177 C 
HETATM   54  C   UNK N   1      19.258  16.091   5.294  0.00  0.00     0.044 C 
HETATM   55  C   UNK N   1      19.247  14.577   4.994  0.00  0.00     0.105 C 
HETATM   56  C   UNK N   1      20.003  14.039   6.147  0.00  0.00     0.218 C 
HETATM   57  N   UNK N   1      20.270  14.941   7.084  0.00  0.00    -0.348 N 
HETATM   58  O   UNK N   1      20.333  12.870   6.257  0.00  0.00    -0.274 OA
HETATM   59  H   UNK N   1      20.795  14.759   7.898  0.00  0.00     0.163 HD
ENDBRANCH  50  53
ENDBRANCH  40  49
ENDBRANCH  37  40
ENDBRANCH  24  36
ENDBRANCH  21  24
ENDBRANCH  19  20
BRANCH  19  60
HETATM   60  C   UNK N   1      28.443  17.516   8.245  0.00  0.00     0.199 C 
BRANCH  60  61
HETATM   61  O   UNK N   1      27.510  18.163   9.052  0.00  0.00    -0.398 OA
HETATM   62  H   UNK N   1      27.064  18.992   8.817  0.00  0.00     0.209 HD
ENDBRANCH  60  61
ENDBRANCH  19  60
ENDBRANCH  16  19
ENDBRANCH   5  15
ENDBRANCH   2   5
BRANCH   1  63
HETATM   63  C   UNK N   1      29.003  14.023   2.941  0.00  0.00     0.181 C 
BRANCH  63  64
HETATM   64  C   UNK N   1      30.176  13.243   2.435  0.00  0.00     0.241 C 
HETATM   65  N   UNK N   1      31.337  13.229   3.131  0.00  0.00    -0.346 N 
HETATM   66  H   UNK N   1      31.404  13.744   3.969  0.00  0.00     0.163 HD
HETATM   67  O   UNK N   1      30.092  12.635   1.376  0.00  0.00    -0.271 OA
BRANCH  65  68
HETATM   68  C   UNK N   1      32.485  12.474   2.671  0.00  0.00     0.177 C 
BRANCH  68  69
HETATM   69  C   UNK N   1      33.376  13.414   1.863  0.00  0.00     0.241 C 
HETATM   70  O   UNK N   1      33.587  14.519   2.337  0.00  0.00    -0.271 OA
HETATM   71  N   UNK N   1      33.968  13.106   0.673  0.00  0.00    -0.346 N 
HETATM   72  H   UNK N   1      34.567  13.787   0.288  0.00  0.00     0.163 HD
BRANCH  71  73
HETATM   73  C   UNK N   1      33.807  11.883  -0.082  0.00  0.00     0.176 C 
BRANCH  73  74
HETATM   74  C   UNK N   1      32.587  11.871  -0.952  0.00  0.00     0.243 C 
HETATM   75  N   UNK N   1      31.633  10.889  -0.891  0.00  0.00    -0.337 N 
HETATM   76  C   UNK N   1      31.644   9.835   0.088  0.00  0.00     0.127 A 
HETATM   77  C   UNK N   1      30.526  10.838  -1.805  0.00  0.00     0.179 A 
HETATM   78  C   UNK N   1      30.386   9.027  -0.162  0.00  0.00     0.022 A 
HETATM   79  C   UNK N   1      29.645   9.703  -1.311  0.00  0.00     0.037 A 
HETATM   80  O   UNK N   1      32.472  12.772  -1.777  0.00  0.00    -0.271 OA
BRANCH  77  81
HETATM   81  C   UNK N   1      30.985  10.550  -3.222  0.00  0.00     0.241 C 
HETATM   82  O   UNK N   1      30.512  11.195  -4.144  0.00  0.00    -0.271 OA
HETATM   83  N   UNK N   1      31.920   9.594  -3.462  0.00  0.00    -0.351 N 
HETATM   84  H   UNK N   1      32.293   9.090  -2.703  0.00  0.00     0.163 HD
BRANCH  83  85
HETATM   85  C   UNK N   1      32.384   9.295  -4.794  0.00  0.00     0.225 C 
BRANCH  85  86
HETATM   86  C   UNK N   1      33.527  10.186  -5.155  0.00  0.00     0.233 C 
HETATM   87  N   UNK N   1      33.716  11.335  -4.481  0.00  0.00    -0.369 N 
HETATM   88  H   UNK N   1      34.548  11.702  -4.102  0.00  0.00     0.159 HD
HETATM   89  H   UNK N   1      32.912  11.887  -4.348  0.00  0.00     0.159 HD
HETATM   90  O   UNK N   1      34.275   9.887  -6.072  0.00  0.00    -0.272 OA
ENDBRANCH  85  86
ENDBRANCH  83  85
ENDBRANCH  77  81
ENDBRANCH  73  74
BRANCH  73  91
HETATM   91  C   UNK N   1      35.071  11.308  -0.737  0.00  0.00     0.036 C 
BRANCH  91  92
HETATM   92  C   UNK N   1      36.223  12.278  -0.997  0.00  0.00     0.023 C 
BRANCH  92  93
HETATM   93  C   UNK N   1      36.378  12.761  -2.430  0.00  0.00     0.138 C 
BRANCH  93  94
HETATM   94  N   UNK N   1      35.362  13.748  -2.733  0.00  0.00    -0.227 N 
HETATM   95  C   UNK N   1      35.626  15.143  -2.820  0.00  0.00     0.665 C 
HETATM   96  N   UNK N   1      36.933  15.646  -2.626  0.00  0.00    -0.235 N 
HETATM   97  N   UNK N   1      34.658  15.959  -3.014  0.00  0.00    -0.235 N 
HETATM   98  H   UNK N   1      37.700  16.006  -3.129  0.00  0.00     0.174 HD
HETATM   99  H   UNK N   1      37.150  15.630  -1.666  0.00  0.00     0.174 HD
HETATM  100  H   UNK N   1      33.743  16.120  -3.342  0.00  0.00     0.174 HD
ATOM    101  HN  UNK N   1      34.987  16.861  -2.668  1.00  0.00     0.174 HD
HETATM  102  H   UNK N   1      34.441  13.437  -2.886  0.00  0.00     0.177 HD
ENDBRANCH  93  94
ENDBRANCH  92  93
ENDBRANCH  91  92
ENDBRANCH  73  91
ENDBRANCH  71  73
ENDBRANCH  68  69
BRANCH  68 103
HETATM  103  C   UNK N   1      33.147  11.718   3.840  0.00  0.00     0.038 C 
BRANCH 103 104
HETATM  104  C   UNK N   1      34.671  11.635   3.786  0.00  0.00    -0.020 C 
HETATM  105  C   UNK N   1      35.167  10.266   3.357  0.00  0.00     0.009 C 
HETATM  106  C   UNK N   1      35.208  11.903   5.176  0.00  0.00     0.009 C 
ENDBRANCH 103 104
ENDBRANCH  68 103
ENDBRANCH  65  68
ENDBRANCH  63  64
BRANCH  63 107
HETATM  107  C   UNK N   1      27.959  13.038   3.475  0.00  0.00     0.075 C 
BRANCH 107 108
HETATM  108  C   UNK N   1      26.952  12.441   2.533  0.00  0.00    -0.028 A 
HETATM  109  C   UNK N   1      25.849  12.984   1.899  0.00  0.00    -0.002 A 
HETATM  110  C   UNK N   1      25.299  14.266   1.899  0.00  0.00     0.014 A 
HETATM  111  C   UNK N   1      25.276  11.969   1.182  0.00  0.00     0.042 A 
HETATM  112  C   UNK N   1      24.132  14.488   1.148  0.00  0.00     0.001 A 
HETATM  113  C   UNK N   1      23.546  13.435   0.412  0.00  0.00     0.002 A 
HETATM  114  C   UNK N   1      24.124  12.154   0.425  0.00  0.00     0.030 A 
HETATM  115  N   UNK N   1      25.962  10.823   1.328  0.00  0.00    -0.365 N 
HETATM  116  C   UNK N   1      26.993  11.103   2.159  0.00  0.00     0.096 A 
HETATM  117  H   UNK N   1      25.756   9.955   0.913  0.00  0.00     0.165 HD
ENDBRANCH 107 108
ENDBRANCH  63 107
ENDBRANCH   1  63
TORSDOF 35
ENDMDL
MODEL 9
REMARK VINA RESULT:      -8.1      2.873      7.159
REMARK WARNING: 32 MAX_TORS EXCEEDED!!!
REMARK  35 active torsions:
REMARK  status: ('A' for Active; 'I' for Inactive)
REMARK    1  A    between atoms: C_7  and  C_10 
REMARK    2  A    between atoms: C_17  and  C_10 
REMARK    3  A    between atoms: C_12  and  C_11 
REMARK       I    between atoms: C_11  and  N_73 
REMARK    4  A    between atoms: N_14  and  C_12 
REMARK    5  A    between atoms: C_12  and  C_69 
REMARK       I    between atoms: C_16  and  N_14 
REMARK    6  A    between atoms: C_16  and  C_17 
REMARK    7  A    between atoms: C_17  and  N_18 
REMARK       I    between atoms: N_18  and  C_19 
REMARK    8  A    between atoms: C_19  and  C_20 
REMARK    9  A    between atoms: C_20  and  C_22 
REMARK   10  A    between atoms: C_20  and  N_23 
REMARK   11  A    between atoms: C_22  and  C_24 
REMARK       I    between atoms: N_23  and  C_31 
REMARK   12  A    between atoms: C_29  and  O_30 
REMARK   13  A    between atoms: C_31  and  C_32 
REMARK   14  A    between atoms: C_32  and  N_33 
REMARK   15  A    between atoms: C_32  and  C_34 
REMARK       I    between atoms: N_33  and  C_36 
REMARK   16  A    between atoms: C_34  and  O_97 
REMARK   17  A    between atoms: C_36  and  C_37 
REMARK   18  A    between atoms: C_37  and  C_38 
REMARK   19  A    between atoms: C_37  and  N_49 
REMARK   20  A    between atoms: C_38  and  C_39 
REMARK       I    between atoms: N_49  and  C_50 
REMARK   21  A    between atoms: C_50  and  C_51 
REMARK   22  A    between atoms: C_51  and  C_53 
REMARK   23  A    between atoms: N_60  and  C_51 
REMARK   24  A    between atoms: C_53  and  C_54 
REMARK       I    between atoms: N_60  and  C_61 
REMARK   25  A    between atoms: C_63  and  C_61 
REMARK   26  A    between atoms: C_69  and  C_70 
REMARK   27  A    between atoms: N_73  and  C_74 
REMARK   28  A    between atoms: C_74  and  C_75 
REMARK   29  A    between atoms: C_74  and  C_78 
REMARK       I    between atoms: C_75  and  N_76 
REMARK   30  A    between atoms: C_78  and  C_79 
REMARK   31  A    between atoms: C_79  and  C_80 
REMARK   32  A    between atoms: C_80  and  N_81 
REMARK       I    between atoms: N_81  and  C_82 
REMARK       I    between atoms: C_82  and  N_83 
REMARK   33  A    between atoms: C_88  and  C_92 
REMARK   34  A    between atoms: N_93  and  C_91 
REMARK   35  A    between atoms: C_91  and  C_94 
REMARK       I    between atoms: N_93  and  C_92 
REMARK       I    between atoms: C_94  and  N_95 
ROOT
HETATM    1  N   UNK N   1      28.721  15.476   2.699  0.00  0.00    -0.346 N 
HETATM    2  C   UNK N   1      29.116  15.597   3.994  0.00  0.00     0.241 C 
HETATM    3  O   UNK N   1      29.114  14.632   4.745  0.00  0.00    -0.271 OA
HETATM    4  H   UNK N   1      28.669  16.294   2.153  0.00  0.00     0.163 HD
ENDROOT
BRANCH   2   5
HETATM    5  C   UNK N   1      29.566  16.907   4.522  0.00  0.00     0.180 C 
BRANCH   5   6
HETATM    6  C   UNK N   1      31.074  17.090   4.359  0.00  0.00     0.073 C 
BRANCH   6   7
HETATM    7  C   UNK N   1      31.791  17.294   5.657  0.00  0.00    -0.056 A 
HETATM    8  C   UNK N   1      33.174  17.377   5.649  0.00  0.00     0.010 A 
HETATM    9  C   UNK N   1      33.871  17.531   6.846  0.00  0.00     0.037 A 
HETATM   10  C   UNK N   1      33.192  17.612   8.056  0.00  0.00     0.065 A 
HETATM   11  C   UNK N   1      31.800  17.523   8.076  0.00  0.00     0.037 A 
HETATM   12  C   UNK N   1      31.101  17.355   6.879  0.00  0.00     0.010 A 
BRANCH  10  13
HETATM   13  O   UNK N   1      33.879  17.775   9.197  0.00  0.00    -0.361 OA
HETATM   14  H   UNK N   1      33.835  18.361   9.926  0.00  0.00     0.217 HD
ENDBRANCH  10  13
ENDBRANCH   6   7
ENDBRANCH   5   6
BRANCH   5  15
HETATM   15  N   UNK N   1      28.878  18.031   3.943  0.00  0.00    -0.346 N 
HETATM   16  C   UNK N   1      28.019  18.804   4.652  0.00  0.00     0.243 C 
HETATM   17  O   UNK N   1      27.564  19.802   4.121  0.00  0.00    -0.271 OA
HETATM   18  H   UNK N   1      29.039  18.248   2.996  0.00  0.00     0.163 HD
BRANCH  16  19
HETATM   19  C   UNK N   1      27.538  18.412   6.045  0.00  0.00     0.200 C 
BRANCH  19  20
HETATM   20  N   UNK N   1      26.406  17.551   6.165  0.00  0.00    -0.344 N 
HETATM   21  C   UNK N   1      25.876  16.819   5.162  0.00  0.00     0.241 C 
HETATM   22  O   UNK N   1      26.139  17.047   3.991  0.00  0.00    -0.271 OA
HETATM   23  H   UNK N   1      25.978  17.485   7.049  0.00  0.00     0.163 HD
BRANCH  21  24
HETATM   24  C   UNK N   1      25.155  15.576   5.538  0.00  0.00     0.181 C 
BRANCH  24  25
HETATM   25  C   UNK N   1      26.166  14.702   6.318  0.00  0.00     0.075 C 
BRANCH  25  26
HETATM   26  C   UNK N   1      25.411  13.556   6.972  0.00  0.00    -0.028 A 
HETATM   27  C   UNK N   1      25.010  13.519   8.301  0.00  0.00     0.096 A 
HETATM   28  N   UNK N   1      24.205  12.443   8.509  0.00  0.00    -0.365 N 
HETATM   29  C   UNK N   1      24.087  11.822   7.323  0.00  0.00     0.042 A 
HETATM   30  H   UNK N   1      23.789  12.173   9.360  0.00  0.00     0.165 HD
HETATM   31  C   UNK N   1      23.296  10.710   7.037  0.00  0.00     0.030 A 
HETATM   32  C   UNK N   1      24.820  12.459   6.362  0.00  0.00    -0.002 A 
HETATM   33  C   UNK N   1      23.271  10.243   5.711  0.00  0.00     0.002 A 
HETATM   34  C   UNK N   1      24.037  10.887   4.716  0.00  0.00     0.001 A 
HETATM   35  C   UNK N   1      24.824  12.009   5.044  0.00  0.00     0.014 A 
ENDBRANCH  25  26
ENDBRANCH  24  25
BRANCH  24  36
HETATM   36  N   UNK N   1      24.032  16.025   6.331  0.00  0.00    -0.346 N 
HETATM   37  C   UNK N   1      22.766  15.646   6.039  0.00  0.00     0.241 C 
HETATM   38  O   UNK N   1      22.563  14.691   5.306  0.00  0.00    -0.271 OA
HETATM   39  H   UNK N   1      24.192  16.617   7.101  0.00  0.00     0.163 HD
BRANCH  37  40
HETATM   40  C   UNK N   1      21.623  16.562   6.374  0.00  0.00     0.182 C 
BRANCH  40  41
HETATM   41  C   UNK N   1      21.185  16.358   7.840  0.00  0.00     0.093 C 
BRANCH  41  42
HETATM   42  C   UNK N   1      19.889  16.969   8.295  0.00  0.00     0.028 A 
HETATM   43  N   UNK N   1      18.712  16.345   8.140  0.00  0.00    -0.354 N 
HETATM   44  C   UNK N   1      17.816  17.122   8.777  0.00  0.00     0.180 A 
ATOM     45  HN  UNK N   1      18.534  15.471   7.645  1.00  0.00     0.166 HD
HETATM   46  N   UNK N   1      18.394  18.210   9.325  0.00  0.00    -0.360 N 
HETATM   47  C   UNK N   1      19.704  18.116   9.034  0.00  0.00     0.114 A 
HETATM   48  H   UNK N   1      17.948  18.926   9.832  0.00  0.00     0.166 HD
ENDBRANCH  41  42
ENDBRANCH  40  41
BRANCH  40  49
HETATM   49  N   UNK N   1      20.572  16.637   5.359  0.00  0.00    -0.346 N 
HETATM   50  C   UNK N   1      20.461  17.589   4.381  0.00  0.00     0.241 C 
HETATM   51  O   UNK N   1      19.592  17.472   3.533  0.00  0.00    -0.271 OA
HETATM   52  H   UNK N   1      19.880  15.937   5.382  0.00  0.00     0.163 HD
BRANCH  50  53
HETATM   53  C   UNK N   1      21.337  18.816   4.366  0.00  0.00     0.177 C 
HETATM   54  C   UNK N   1      22.805  18.641   3.959  0.00  0.00     0.044 C 
HETATM   55  C   UNK N   1      23.153  19.901   3.136  0.00  0.00     0.105 C 
HETATM   56  C   UNK N   1      21.809  20.457   2.860  0.00  0.00     0.218 C 
HETATM   57  N   UNK N   1      20.827  19.841   3.507  0.00  0.00    -0.348 N 
HETATM   58  O   UNK N   1      21.607  21.412   2.129  0.00  0.00    -0.274 OA
HETATM   59  H   UNK N   1      19.872  20.060   3.408  0.00  0.00     0.163 HD
ENDBRANCH  50  53
ENDBRANCH  40  49
ENDBRANCH  37  40
ENDBRANCH  24  36
ENDBRANCH  21  24
ENDBRANCH  19  20
BRANCH  19  60
HETATM   60  C   UNK N   1      27.594  19.324   7.265  0.00  0.00     0.199 C 
BRANCH  60  61
HETATM   61  O   UNK N   1      27.113  20.592   6.947  0.00  0.00    -0.398 OA
HETATM   62  H   UNK N   1      27.014  21.316   7.585  0.00  0.00     0.209 HD
ENDBRANCH  60  61
ENDBRANCH  19  60
ENDBRANCH  16  19
ENDBRANCH   5  15
ENDBRANCH   2   5
BRANCH   1  63
HETATM   63  C   UNK N   1      28.374  14.216   2.075  0.00  0.00     0.181 C 
BRANCH  63  64
HETATM   64  C   UNK N   1      29.531  13.276   2.206  0.00  0.00     0.241 C 
HETATM   65  N   UNK N   1      29.361  12.060   2.778  0.00  0.00    -0.346 N 
HETATM   66  H   UNK N   1      28.471  11.805   3.113  0.00  0.00     0.163 HD
HETATM   67  O   UNK N   1      30.640  13.617   1.815  0.00  0.00    -0.271 OA
BRANCH  65  68
HETATM   68  C   UNK N   1      30.462  11.126   2.907  0.00  0.00     0.177 C 
BRANCH  68  69
HETATM   69  C   UNK N   1      30.471  10.603   4.341  0.00  0.00     0.241 C 
HETATM   70  O   UNK N   1      29.619   9.780   4.636  0.00  0.00    -0.271 OA
HETATM   71  N   UNK N   1      31.367  10.967   5.303  0.00  0.00    -0.346 N 
HETATM   72  H   UNK N   1      31.295  10.507   6.171  0.00  0.00     0.163 HD
BRANCH  71  73
HETATM   73  C   UNK N   1      32.414  11.957   5.181  0.00  0.00     0.176 C 
BRANCH  73  74
HETATM   74  C   UNK N   1      33.343  11.708   4.032  0.00  0.00     0.243 C 
HETATM   75  N   UNK N   1      33.857  12.711   3.252  0.00  0.00    -0.337 N 
HETATM   76  C   UNK N   1      33.651  14.109   3.525  0.00  0.00     0.127 A 
HETATM   77  C   UNK N   1      34.660  12.445   2.091  0.00  0.00     0.179 A 
HETATM   78  C   UNK N   1      34.443  14.856   2.469  0.00  0.00     0.022 A 
HETATM   79  C   UNK N   1      35.136  13.805   1.608  0.00  0.00     0.037 A 
HETATM   80  O   UNK N   1      33.617  10.541   3.769  0.00  0.00    -0.271 OA
BRANCH  77  81
HETATM   81  C   UNK N   1      33.855  11.768   0.999  0.00  0.00     0.241 C 
HETATM   82  O   UNK N   1      33.998  10.571   0.808  0.00  0.00    -0.271 OA
HETATM   83  N   UNK N   1      32.974  12.482   0.248  0.00  0.00    -0.351 N 
HETATM   84  H   UNK N   1      32.870  13.445   0.423  0.00  0.00     0.163 HD
BRANCH  83  85
HETATM   85  C   UNK N   1      32.188  11.873  -0.796  0.00  0.00     0.225 C 
BRANCH  85  86
HETATM   86  C   UNK N   1      32.639  12.361  -2.133  0.00  0.00     0.233 C 
HETATM   87  N   UNK N   1      32.142  11.799  -3.251  0.00  0.00    -0.369 N 
HETATM   88  H   UNK N   1      31.793  12.236  -4.062  0.00  0.00     0.159 HD
HETATM   89  H   UNK N   1      32.125  10.815  -3.260  0.00  0.00     0.159 HD
HETATM   90  O   UNK N   1      33.470  13.250  -2.217  0.00  0.00    -0.272 OA
ENDBRANCH  85  86
ENDBRANCH  83  85
ENDBRANCH  77  81
ENDBRANCH  73  74
BRANCH  73  91
HETATM   91  C   UNK N   1      31.999  13.423   5.368  0.00  0.00     0.036 C 
BRANCH  91  92
HETATM   92  C   UNK N   1      32.078  13.993   6.784  0.00  0.00     0.023 C 
BRANCH  92  93
HETATM   93  C   UNK N   1      33.430  13.890   7.470  0.00  0.00     0.138 C 
BRANCH  93  94
HETATM   94  N   UNK N   1      33.258  13.904   8.908  0.00  0.00    -0.227 N 
HETATM   95  C   UNK N   1      34.222  14.437   9.808  0.00  0.00     0.665 C 
HETATM   96  N   UNK N   1      35.421  15.010   9.327  0.00  0.00    -0.235 N 
HETATM   97  N   UNK N   1      34.031  14.340  11.071  0.00  0.00    -0.235 N 
HETATM   98  H   UNK N   1      35.850  15.885   9.181  0.00  0.00     0.174 HD
HETATM   99  H   UNK N   1      36.034  14.295   9.041  0.00  0.00     0.174 HD
HETATM  100  H   UNK N   1      33.405  14.225  11.822  0.00  0.00     0.174 HD
ATOM    101  HN  UNK N   1      34.956  14.419  11.495  1.00  0.00     0.174 HD
HETATM  102  H   UNK N   1      32.431  13.525   9.282  0.00  0.00     0.177 HD
ENDBRANCH  93  94
ENDBRANCH  92  93
ENDBRANCH  91  92
ENDBRANCH  73  91
ENDBRANCH  71  73
ENDBRANCH  68  69
BRANCH  68 103
HETATM  103  C   UNK N   1      30.420  10.074   1.781  0.00  0.00     0.038 C 
BRANCH 103 104
HETATM  104  C   UNK N   1      29.039   9.808   1.184  0.00  0.00    -0.020 C 
HETATM  105  C   UNK N   1      28.518   8.421   1.513  0.00  0.00     0.009 C 
HETATM  106  C   UNK N   1      29.147   9.913  -0.322  0.00  0.00     0.009 C 
ENDBRANCH 103 104
ENDBRANCH  68 103
ENDBRANCH  65  68
ENDBRANCH  63  64
BRANCH  63 107
HETATM  107  C   UNK N   1      27.140  13.555   2.696  0.00  0.00     0.075 C 
BRANCH 107 108
HETATM  108  C   UNK N   1      25.867  13.465   1.901  0.00  0.00    -0.028 A 
HETATM  109  C   UNK N   1      25.253  12.402   1.265  0.00  0.00    -0.002 A 
HETATM  110  C   UNK N   1      25.587  11.052   1.149  0.00  0.00     0.014 A 
HETATM  111  C   UNK N   1      24.129  12.906   0.668  0.00  0.00     0.042 A 
HETATM  112  C   UNK N   1      24.740  10.221   0.394  0.00  0.00     0.001 A 
HETATM  113  C   UNK N   1      23.584  10.750  -0.219  0.00  0.00     0.002 A 
HETATM  114  C   UNK N   1      23.268  12.112  -0.082  0.00  0.00     0.030 A 
HETATM  115  N   UNK N   1      24.003  14.223   0.901  0.00  0.00    -0.365 N 
HETATM  116  C   UNK N   1      25.069  14.576   1.657  0.00  0.00     0.096 A 
HETATM  117  H   UNK N   1      23.280  14.812   0.586  0.00  0.00     0.165 HD
ENDBRANCH 107 108
ENDBRANCH  63 107
ENDBRANCH   1  63
TORSDOF 35
ENDMDL
