REMARK  22 active torsions:
REMARK  status: ('A' for Active; 'I' for Inactive)
REMARK    1  A    between atoms: C_1  and  S_13 
REMARK    2  A    between atoms: C_4  and  N_17 
REMARK    3  A    between atoms: C_19  and  N_12 
REMARK    4  A    between atoms: S_13  and  C_14 
REMARK    5  A    between atoms: C_14  and  C_15 
REMARK    6  A    between atoms: C_15  and  C_16 
REMARK    7  A    between atoms: C_18  and  N_17 
REMARK    8  A    between atoms: C_18  and  C_29 
REMARK    9  A    between atoms: C_21  and  C_28 
REMARK   10  A    between atoms: C_22  and  O_25 
REMARK   11  A    between atoms: C_23  and  O_24 
REMARK   12  A    between atoms: P_26  and  O_27 
REMARK   13  A    between atoms: P_26  and  O_35 
REMARK   14  A    between atoms: P_26  and  O_40 
REMARK   15  A    between atoms: O_27  and  C_28 
REMARK   16  A    between atoms: C_29  and  S_30 
REMARK   17  A    between atoms: O_35  and  P_36 
REMARK   18  A    between atoms: P_36  and  C_37 
REMARK   19  A    between atoms: P_36  and  O_42 
REMARK   20  A    between atoms: C_37  and  P_38 
REMARK   21  A    between atoms: P_38  and  O_39 
REMARK   22  A    between atoms: P_38  and  O_46 
ROOT
HETATM    1  C   UNK N   1       0.627   0.873  -0.552  0.00  0.00     0.262 C 
HETATM    2  O   UNK N   1       0.987   1.507   0.664  0.00  0.00    -0.353 OA
HETATM    3  C   UNK N   1       0.318   2.748   0.684  0.00  0.00     0.180 C 
HETATM    4  C   UNK N   1      -0.939   2.555  -0.143  0.00  0.00     0.182 C 
HETATM    5  C   UNK N   1      -0.386   1.761  -1.276  0.00  0.00     0.198 C 
ENDROOT
BRANCH   1   6
HETATM    6  N   UNK N   1       0.134  -0.479  -0.309  0.00  0.00    -0.297 N 
HETATM    7  C   UNK N   1       0.715  -1.623  -0.748  0.00  0.00     0.188 A 
HETATM    8  N   UNK N   1      -0.032  -2.715  -0.416  0.00  0.00    -0.346 N 
HETATM    9  C   UNK N   1      -1.092  -2.206   0.238  0.00  0.00     0.122 A 
ATOM     10  HN  UNK N   1       0.168  -3.695  -0.617  1.00  0.00     0.167 HD
HETATM   11  C   UNK N   1      -2.209  -2.842   0.758  0.00  0.00     0.134 A 
HETATM   12  C   UNK N   1      -0.983  -0.867   0.313  0.00  0.00     0.143 A 
HETATM   13  N   UNK N   1      -3.159  -2.059   1.359  0.00  0.00    -0.321 N 
HETATM   14  C   UNK N   1      -3.022  -0.692   1.426  0.00  0.00     0.147 A 
ATOM     15  HN  UNK N   1      -3.985  -2.499   1.764  1.00  0.00     0.169 HD
HETATM   16  N   UNK N   1      -1.921  -0.086   0.892  0.00  0.00    -0.321 N 
ATOM     17  HN  UNK N   1      -1.811   0.927   0.928  1.00  0.00     0.169 HD
BRANCH  11  18
HETATM   18  N   UNK N   1      -2.362  -4.251   0.624  0.00  0.00    -0.373 N 
HETATM   19  H   UNK N   1      -1.595  -4.744   0.253  0.00  0.00     0.161 HD
BRANCH  18  20
HETATM   20  C   UNK N   1      -3.532  -5.039   0.979  0.00  0.00     0.131 C 
BRANCH  20  21
HETATM   21  C   UNK N   1      -4.809  -4.230   1.171  0.00  0.00     0.093 C 
BRANCH  21  22
HETATM   22  S   UNK N   1      -6.063  -4.709  -0.050  0.00  0.00    -0.172 SA
HETATM   23  C   UNK N   1      -5.543  -3.419  -1.215  0.00  0.00     0.089 C 
ENDBRANCH  21  22
ENDBRANCH  20  21
ENDBRANCH  18  20
ENDBRANCH  11  18
BRANCH  14  24
HETATM   24  S   UNK N   1      -4.284   0.324   2.198  0.00  0.00    -0.093 SA
BRANCH  24  25
HETATM   25  C   UNK N   1      -5.709  -0.644   1.611  0.00  0.00     0.091 C 
BRANCH  25  26
HETATM   26  C   UNK N   1      -5.998  -0.368   0.144  0.00  0.00     0.128 C 
BRANCH  26  27
HETATM   27  C   UNK N   1      -7.477  -0.568  -0.166  0.00  0.00     0.388 C 
HETATM   28  F   UNK N   1      -7.663  -0.527  -1.534  0.00  0.00    -0.171 F 
HETATM   29  F   UNK N   1      -8.215   0.443   0.421  0.00  0.00    -0.171 F 
HETATM   30  F   UNK N   1      -7.914  -1.792   0.310  0.00  0.00    -0.171 F 
ENDBRANCH  26  27
ENDBRANCH  25  26
ENDBRANCH  24  25
ENDBRANCH  14  24
ENDBRANCH   1   6
BRANCH   5  31
HETATM   31  O   UNK N   1      -1.375   1.051  -1.960  0.00  0.00    -0.388 OA
HETATM   32  H   UNK N   1      -2.146   1.398  -2.435  0.00  0.00     0.210 HD
ENDBRANCH   5  31
BRANCH   3  33
HETATM   33  C   UNK N   1       1.268   3.880   0.214  0.00  0.00     0.215 C 
BRANCH  33  34
HETATM   34  O   UNK N   1       1.237   4.089  -1.174  0.00  0.00    -0.294 OA
BRANCH  34  35
HETATM   35  P   UNK N   1       2.657   3.347  -1.868  0.00  0.00     0.400 P 
HETATM   36  O   UNK N   1       2.181   2.816  -3.246  0.00  0.00    -0.631 OA
BRANCH  35  37
HETATM   37  O   UNK N   1       3.199   1.918  -1.028  0.00  0.00    -0.215 OA
BRANCH  37  38
HETATM   38  P   UNK N   1       4.415   2.361   0.142  0.00  0.00     0.299 P 
HETATM   39  O   UNK N   1       3.872   1.772   1.471  0.00  0.00    -0.651 OA
BRANCH  38  40
HETATM   40  C   UNK N   1       6.066   1.606  -0.236  0.00  0.00     0.305 C 
HETATM   41 Cl   UNK N   1       5.886  -0.161  -0.355  0.00  0.00    -0.076 Cl
HETATM   42 Cl   UNK N   1       6.658   2.242  -1.788  0.00  0.00    -0.076 Cl
BRANCH  40  43
HETATM   43  P   UNK N   1       7.271   2.022   1.114  0.00  0.00     0.288 P 
HETATM   44  O   UNK N   1       8.662   1.404   0.811  0.00  0.00    -0.651 OA
BRANCH  43  45
HETATM   45  O   UNK N   1       6.861   1.401   2.682  0.00  0.00    -0.327 OA
HETATM   46  H   UNK N   1       6.445   1.426   3.558  0.00  0.00     0.220 HD
ENDBRANCH  43  45
BRANCH  43  47
HETATM   47  O   UNK N   1       7.592   3.717   1.307  0.00  0.00    -0.327 OA
HETATM   48  H   UNK N   1       8.502   4.035   1.414  0.00  0.00     0.220 HD
ENDBRANCH  43  47
ENDBRANCH  40  43
ENDBRANCH  38  40
BRANCH  38  49
HETATM   49  O   UNK N   1       4.412   4.076   0.429  0.00  0.00    -0.326 OA
HETATM   50  H   UNK N   1       5.240   4.556   0.589  0.00  0.00     0.220 HD
ENDBRANCH  38  49
ENDBRANCH  37  38
ENDBRANCH  35  37
BRANCH  35  51
HETATM   51  O   UNK N   1       3.919   4.478  -2.248  0.00  0.00    -0.307 OA
HETATM   52  H   UNK N   1       4.818   4.184  -2.460  0.00  0.00     0.222 HD
ENDBRANCH  35  51
ENDBRANCH  34  35
ENDBRANCH  33  34
ENDBRANCH   3  33
BRANCH   4  53
HETATM   53  O   UNK N   1      -1.516   3.756  -0.560  0.00  0.00    -0.390 OA
HETATM   54  H   UNK N   1      -0.993   4.520  -0.850  0.00  0.00     0.210 HD
ENDBRANCH   4  53
TORSDOF 22
