MODEL 1
REMARK VINA RESULT:      -7.8      0.000      0.000
REMARK  13 active torsions:
REMARK  status: ('A' for Active; 'I' for Inactive)
REMARK    1  A    between atoms: C_3  and  C_24 
REMARK    2  A    between atoms: C_4  and  S_14 
REMARK    3  A    between atoms: C_7  and  N_9 
REMARK       I    between atoms: N_9  and  C_10 
REMARK    4  A    between atoms: C_10  and  C_13 
REMARK    5  A    between atoms: C_13  and  C_15 
REMARK    6  A    between atoms: S_14  and  C_35 
REMARK    7  A    between atoms: C_19  and  N_27 
REMARK    8  A    between atoms: N_22  and  O_28 
REMARK    9  A    between atoms: N_27  and  P_31 
REMARK   10  A    between atoms: O_28  and  C_29 
REMARK   11  A    between atoms: P_31  and  O_32 
REMARK   12  A    between atoms: P_31  and  O_33 
REMARK   13  A    between atoms: C_38  and  C_41 
ROOT
HETATM    1  C   UNK N   1      33.529  14.442   7.401  0.00  0.00     0.187 C 
HETATM    2  N   UNK N   1      34.086  15.449   8.237  0.00  0.00    -0.292 N 
HETATM    3  C   UNK N   1      35.234  15.389   9.067  0.00  0.00     0.129 C 
HETATM    4  C   UNK N   1      36.260  14.622   8.615  0.00  0.00     0.028 C 
HETATM    5  C   UNK N   1      36.239  14.233   7.141  0.00  0.00     0.124 C 
HETATM    6  S   UNK N   1      34.730  13.567   6.362  0.00  0.00    -0.135 SA
HETATM    7  C   UNK N   1      32.623  15.618   6.744  0.00  0.00     0.211 C 
HETATM    8  C   UNK N   1      33.277  16.380   7.849  0.00  0.00     0.251 C 
HETATM    9  O   UNK N   1      33.297  17.564   8.142  0.00  0.00    -0.271 OA
ENDROOT
BRANCH   7  10
HETATM   10  N   UNK N   1      33.262  16.169   5.570  0.00  0.00    -0.339 N 
HETATM   11  C   UNK N   1      32.614  16.351   4.403  0.00  0.00     0.274 C 
HETATM   12  O   UNK N   1      33.105  17.084   3.557  0.00  0.00    -0.266 OA
HETATM   13  H   UNK N   1      34.211  16.421   5.626  0.00  0.00     0.163 HD
BRANCH  11  14
HETATM   14  C   UNK N   1      31.311  15.716   4.143  0.00  0.00     0.166 C 
HETATM   15  N   UNK N   1      31.214  14.452   3.852  0.00  0.00    -0.258 N 
ATOM     16  HN  UNK N   1      30.280  14.054   3.758  1.00  0.00     0.194 HD
BRANCH  14  17
HETATM   17  C   UNK N   1      30.083  16.470   4.420  0.00  0.00     0.148 A 
HETATM   18  N   UNK N   1      29.313  16.988   3.411  0.00  0.00    -0.307 N 
HETATM   19  S   UNK N   1      27.980  17.539   4.184  0.00  0.00     0.024 SA
ATOM     20  HN  UNK N   1      29.522  17.021   2.412  1.00  0.00     0.176 HD
HETATM   21  C   UNK N   1      28.348  17.133   5.719  0.00  0.00     0.171 A 
HETATM   22  N   UNK N   1      29.562  16.538   5.712  0.00  0.00    -0.319 N 
ATOM     23  HN  UNK N   1      30.035  16.185   6.543  1.00  0.00     0.169 HD
BRANCH  21  24
HETATM   24  N   UNK N   1      27.497  17.182   6.848  0.00  0.00    -0.278 N 
HETATM   25  H   UNK N   1      26.571  16.857   6.770  0.00  0.00     0.173 HD
BRANCH  24  26
HETATM   26  P   UNK N   1      28.071  17.821   8.412  0.00  0.00     0.349 P 
HETATM   27  O   UNK N   1      27.544  16.867   9.516  0.00  0.00    -0.637 OA
BRANCH  26  28
HETATM   28  O   UNK N   1      29.805  17.820   8.466  0.00  0.00    -0.313 OA
HETATM   29  H   UNK N   1      30.450  17.831   7.743  0.00  0.00     0.221 HD
ENDBRANCH  26  28
BRANCH  26  30
HETATM   30  O   UNK N   1      27.404  19.399   8.700  0.00  0.00    -0.313 OA
HETATM   31  H   UNK N   1      27.325  20.350   8.873  0.00  0.00     0.221 HD
ENDBRANCH  26  30
ENDBRANCH  24  26
ENDBRANCH  21  24
ENDBRANCH  14  17
BRANCH  15  32
HETATM   32  O   UNK N   1      32.252  13.646   3.668  0.00  0.00    -0.280 OA
BRANCH  32  33
HETATM   33  C   UNK N   1      32.696  13.247   2.426  0.00  0.00     0.196 C 
HETATM   34  C   UNK N   1      34.096  13.774   2.196  0.00  0.00     0.036 C 
ENDBRANCH  32  33
ENDBRANCH  15  32
ENDBRANCH  11  14
ENDBRANCH   7  10
BRANCH   3  35
HETATM   35  C   UNK N   1      35.280  16.192  10.326  0.00  0.00     0.228 C 
HETATM   36  O   UNK N   1      35.718  17.465  10.334  0.00  0.00    -0.643 OA
HETATM   37  O   UNK N   1      34.839  15.719  11.361  0.00  0.00    -0.643 OA
ENDBRANCH   3  35
BRANCH   4  38
HETATM   38  S   UNK N   1      37.779  14.308   9.591  0.00  0.00    -0.066 SA
BRANCH  38  39
HETATM   39  C   UNK N   1      37.084  13.285  10.902  0.00  0.00     0.117 A 
HETATM   40  S   UNK N   1      36.419  11.787  10.731  0.00  0.00    -0.074 SA
HETATM   41  C   UNK N   1      35.954  11.552  12.315  0.00  0.00     0.082 A 
HETATM   42  C   UNK N   1      36.343  12.738  12.976  0.00  0.00     0.050 A 
HETATM   43  N   UNK N   1      36.978  13.666  12.190  0.00  0.00    -0.344 N 
ATOM     44  HN  UNK N   1      37.335  14.554  12.544  1.00  0.00     0.167 HD
BRANCH  42  45
HETATM   45  C   UNK N   1      36.113  13.022  14.400  0.00  0.00    -0.006 A 
HETATM   46  C   UNK N   1      36.823  14.017  15.077  0.00  0.00     0.031 A 
HETATM   47  C   UNK N   1      36.501  14.297  16.409  0.00  0.00     0.090 A 
HETATM   48  N   UNK N   1      35.523  13.593  17.045  0.00  0.00    -0.371 N 
HETATM   49  C   UNK N   1      34.847  12.598  16.413  0.00  0.00     0.090 A 
HETATM   50  C   UNK N   1      35.177  13.922  18.413  0.00  0.00     0.154 C 
HETATM   51  C   UNK N   1      35.124  12.303  15.082  0.00  0.00     0.031 A 
ENDBRANCH  42  45
ENDBRANCH  38  39
ENDBRANCH   4  38
TORSDOF 13
ENDMDL
MODEL 2
REMARK VINA RESULT:      -7.8      1.620      1.876
REMARK  13 active torsions:
REMARK  status: ('A' for Active; 'I' for Inactive)
REMARK    1  A    between atoms: C_3  and  C_24 
REMARK    2  A    between atoms: C_4  and  S_14 
REMARK    3  A    between atoms: C_7  and  N_9 
REMARK       I    between atoms: N_9  and  C_10 
REMARK    4  A    between atoms: C_10  and  C_13 
REMARK    5  A    between atoms: C_13  and  C_15 
REMARK    6  A    between atoms: S_14  and  C_35 
REMARK    7  A    between atoms: C_19  and  N_27 
REMARK    8  A    between atoms: N_22  and  O_28 
REMARK    9  A    between atoms: N_27  and  P_31 
REMARK   10  A    between atoms: O_28  and  C_29 
REMARK   11  A    between atoms: P_31  and  O_32 
REMARK   12  A    between atoms: P_31  and  O_33 
REMARK   13  A    between atoms: C_38  and  C_41 
ROOT
HETATM    1  C   UNK N   1      33.069  14.184   8.232  0.00  0.00     0.187 C 
HETATM    2  N   UNK N   1      33.740  15.291   8.821  0.00  0.00    -0.292 N 
HETATM    3  C   UNK N   1      35.026  15.346   9.416  0.00  0.00     0.129 C 
HETATM    4  C   UNK N   1      35.973  14.542   8.868  0.00  0.00     0.028 C 
HETATM    5  C   UNK N   1      35.686  13.976   7.483  0.00  0.00     0.124 C 
HETATM    6  S   UNK N   1      34.080  13.202   7.093  0.00  0.00    -0.135 SA
HETATM    7  C   UNK N   1      32.015  15.261   7.629  0.00  0.00     0.211 C 
HETATM    8  C   UNK N   1      32.841  16.159   8.490  0.00  0.00     0.251 C 
HETATM    9  O   UNK N   1      32.875  17.371   8.632  0.00  0.00    -0.271 OA
ENDROOT
BRANCH   7  10
HETATM   10  N   UNK N   1      32.401  15.672   6.297  0.00  0.00    -0.339 N 
HETATM   11  C   UNK N   1      31.557  15.632   5.248  0.00  0.00     0.274 C 
HETATM   12  O   UNK N   1      31.834  16.262   4.237  0.00  0.00    -0.266 OA
HETATM   13  H   UNK N   1      33.319  15.993   6.152  0.00  0.00     0.163 HD
BRANCH  11  14
HETATM   14  C   UNK N   1      30.294  14.879   5.309  0.00  0.00     0.166 C 
HETATM   15  N   UNK N   1      30.275  13.579   5.332  0.00  0.00    -0.258 N 
ATOM     16  HN  UNK N   1      29.375  13.116   5.451  1.00  0.00     0.194 HD
BRANCH  14  17
HETATM   17  C   UNK N   1      29.042  15.604   5.556  0.00  0.00     0.148 A 
HETATM   18  N   UNK N   1      27.848  14.949   5.708  0.00  0.00    -0.307 N 
HETATM   19  S   UNK N   1      26.812  16.132   6.163  0.00  0.00     0.024 SA
ATOM     20  HN  UNK N   1      27.651  13.957   5.569  1.00  0.00     0.176 HD
HETATM   21  C   UNK N   1      27.823  17.410   6.182  0.00  0.00     0.171 A 
HETATM   22  N   UNK N   1      29.050  16.974   5.818  0.00  0.00    -0.319 N 
ATOM     23  HN  UNK N   1      29.874  17.569   5.746  1.00  0.00     0.169 HD
BRANCH  21  24
HETATM   24  N   UNK N   1      27.560  18.707   6.682  0.00  0.00    -0.278 N 
HETATM   25  H   UNK N   1      27.510  18.848   7.655  0.00  0.00     0.173 HD
BRANCH  24  26
HETATM   26  P   UNK N   1      27.315  20.091   5.583  0.00  0.00     0.349 P 
HETATM   27  O   UNK N   1      25.808  20.123   5.218  0.00  0.00    -0.637 OA
BRANCH  26  28
HETATM   28  O   UNK N   1      27.720  21.576   6.382  0.00  0.00    -0.313 OA
HETATM   29  H   UNK N   1      28.279  22.310   6.087  0.00  0.00     0.221 HD
ENDBRANCH  26  28
BRANCH  26  30
HETATM   30  O   UNK N   1      28.219  19.864   4.116  0.00  0.00    -0.313 OA
HETATM   31  H   UNK N   1      28.467  19.602   3.216  0.00  0.00     0.221 HD
ENDBRANCH  26  30
ENDBRANCH  24  26
ENDBRANCH  21  24
ENDBRANCH  14  17
BRANCH  15  32
HETATM   32  O   UNK N   1      31.353  12.814   5.210  0.00  0.00    -0.280 OA
BRANCH  32  33
HETATM   33  C   UNK N   1      31.675  12.129   4.058  0.00  0.00     0.196 C 
HETATM   34  C   UNK N   1      32.952  12.695   3.475  0.00  0.00     0.036 C 
ENDBRANCH  32  33
ENDBRANCH  15  32
ENDBRANCH  11  14
ENDBRANCH   7  10
BRANCH   3  35
HETATM   35  C   UNK N   1      35.282  16.298  10.540  0.00  0.00     0.228 C 
HETATM   36  O   UNK N   1      35.644  17.574  10.312  0.00  0.00    -0.643 OA
HETATM   37  O   UNK N   1      35.086  15.941  11.690  0.00  0.00    -0.643 OA
ENDBRANCH   3  35
BRANCH   4  38
HETATM   38  S   UNK N   1      37.659  14.366   9.564  0.00  0.00    -0.066 SA
BRANCH  38  39
HETATM   39  C   UNK N   1      37.305  13.235  10.923  0.00  0.00     0.117 A 
HETATM   40  S   UNK N   1      37.154  11.598  10.824  0.00  0.00    -0.074 SA
HETATM   41  C   UNK N   1      36.762  11.299  12.417  0.00  0.00     0.082 A 
HETATM   42  C   UNK N   1      36.742  12.576  13.019  0.00  0.00     0.050 A 
HETATM   43  N   UNK N   1      37.062  13.621  12.190  0.00  0.00    -0.344 N 
ATOM     44  HN  UNK N   1      37.111  14.592  12.501  1.00  0.00     0.167 HD
BRANCH  42  45
HETATM   45  C   UNK N   1      36.409  12.837  14.428  0.00  0.00    -0.006 A 
HETATM   46  C   UNK N   1      36.753  14.037  15.056  0.00  0.00     0.031 A 
HETATM   47  C   UNK N   1      36.336  14.260  16.372  0.00  0.00     0.090 A 
HETATM   48  N   UNK N   1      35.625  13.310  17.041  0.00  0.00    -0.371 N 
HETATM   49  C   UNK N   1      35.314  12.123  16.458  0.00  0.00     0.090 A 
HETATM   50  C   UNK N   1      35.169  13.574  18.392  0.00  0.00     0.154 C 
HETATM   51  C   UNK N   1      35.692  11.871  15.143  0.00  0.00     0.031 A 
ENDBRANCH  42  45
ENDBRANCH  38  39
ENDBRANCH   4  38
TORSDOF 13
ENDMDL
MODEL 3
REMARK VINA RESULT:      -7.7      2.079      2.466
REMARK  13 active torsions:
REMARK  status: ('A' for Active; 'I' for Inactive)
REMARK    1  A    between atoms: C_3  and  C_24 
REMARK    2  A    between atoms: C_4  and  S_14 
REMARK    3  A    between atoms: C_7  and  N_9 
REMARK       I    between atoms: N_9  and  C_10 
REMARK    4  A    between atoms: C_10  and  C_13 
REMARK    5  A    between atoms: C_13  and  C_15 
REMARK    6  A    between atoms: S_14  and  C_35 
REMARK    7  A    between atoms: C_19  and  N_27 
REMARK    8  A    between atoms: N_22  and  O_28 
REMARK    9  A    between atoms: N_27  and  P_31 
REMARK   10  A    between atoms: O_28  and  C_29 
REMARK   11  A    between atoms: P_31  and  O_32 
REMARK   12  A    between atoms: P_31  and  O_33 
REMARK   13  A    between atoms: C_38  and  C_41 
ROOT
HETATM    1  C   UNK N   1      33.493  13.958   8.402  0.00  0.00     0.187 C 
HETATM    2  N   UNK N   1      34.130  15.060   9.038  0.00  0.00    -0.292 N 
HETATM    3  C   UNK N   1      35.425  15.137   9.612  0.00  0.00     0.129 C 
HETATM    4  C   UNK N   1      36.392  14.404   9.004  0.00  0.00     0.028 C 
HETATM    5  C   UNK N   1      36.101  13.901   7.595  0.00  0.00     0.124 C 
HETATM    6  S   UNK N   1      34.521  13.082   7.193  0.00  0.00    -0.135 SA
HETATM    7  C   UNK N   1      32.384  15.020   7.877  0.00  0.00     0.211 C 
HETATM    8  C   UNK N   1      33.189  15.905   8.771  0.00  0.00     0.251 C 
HETATM    9  O   UNK N   1      33.176  17.108   8.978  0.00  0.00    -0.271 OA
ENDROOT
BRANCH   7  10
HETATM   10  N   UNK N   1      32.724  15.517   6.564  0.00  0.00    -0.339 N 
HETATM   11  C   UNK N   1      31.811  16.033   5.718  0.00  0.00     0.274 C 
HETATM   12  O   UNK N   1      32.190  16.701   4.767  0.00  0.00    -0.266 OA
HETATM   13  H   UNK N   1      33.664  15.476   6.274  0.00  0.00     0.163 HD
BRANCH  11  14
HETATM   14  C   UNK N   1      30.368  15.839   5.938  0.00  0.00     0.166 C 
HETATM   15  N   UNK N   1      29.772  14.730   5.615  0.00  0.00    -0.258 N 
ATOM     16  HN  UNK N   1      28.788  14.628   5.861  1.00  0.00     0.194 HD
BRANCH  14  17
HETATM   17  C   UNK N   1      29.628  16.832   6.725  0.00  0.00     0.148 A 
HETATM   18  N   UNK N   1      30.148  17.378   7.870  0.00  0.00    -0.307 N 
HETATM   19  S   UNK N   1      29.079  18.554   8.260  0.00  0.00     0.024 SA
ATOM     20  HN  UNK N   1      31.002  17.113   8.362  1.00  0.00     0.176 HD
HETATM   21  C   UNK N   1      28.014  18.393   7.037  0.00  0.00     0.171 A 
HETATM   22  N   UNK N   1      28.442  17.386   6.243  0.00  0.00    -0.319 N 
ATOM     23  HN  UNK N   1      27.960  17.071   5.402  1.00  0.00     0.169 HD
BRANCH  21  24
HETATM   24  N   UNK N   1      26.945  19.259   6.709  0.00  0.00    -0.278 N 
HETATM   25  H   UNK N   1      26.122  19.237   7.250  0.00  0.00     0.173 HD
BRANCH  24  26
HETATM   26  P   UNK N   1      27.058  20.389   5.333  0.00  0.00     0.349 P 
HETATM   27  O   UNK N   1      27.330  21.798   5.922  0.00  0.00    -0.637 OA
BRANCH  26  28
HETATM   28  O   UNK N   1      28.386  19.957   4.305  0.00  0.00    -0.313 OA
HETATM   29  H   UNK N   1      28.639  19.095   3.943  0.00  0.00     0.221 HD
ENDBRANCH  26  28
BRANCH  26  30
HETATM   30  O   UNK N   1      25.550  20.446   4.473  0.00  0.00    -0.313 OA
HETATM   31  H   UNK N   1      24.688  20.198   4.105  0.00  0.00     0.221 HD
ENDBRANCH  26  30
ENDBRANCH  24  26
ENDBRANCH  21  24
ENDBRANCH  14  17
BRANCH  15  32
HETATM   32  O   UNK N   1      30.360  13.722   4.983  0.00  0.00    -0.280 OA
BRANCH  32  33
HETATM   33  C   UNK N   1      30.217  13.482   3.633  0.00  0.00     0.196 C 
HETATM   34  C   UNK N   1      28.760  13.627   3.246  0.00  0.00     0.036 C 
ENDBRANCH  32  33
ENDBRANCH  15  32
ENDBRANCH  11  14
ENDBRANCH   7  10
BRANCH   3  35
HETATM   35  C   UNK N   1      35.664  16.037  10.780  0.00  0.00     0.228 C 
HETATM   36  O   UNK N   1      35.651  15.570  12.043  0.00  0.00    -0.643 OA
HETATM   37  O   UNK N   1      35.956  17.207  10.592  0.00  0.00    -0.643 OA
ENDBRANCH   3  35
BRANCH   4  38
HETATM   38  S   UNK N   1      38.099  14.262   9.658  0.00  0.00    -0.066 SA
BRANCH  38  39
HETATM   39  C   UNK N   1      37.843  12.961  10.879  0.00  0.00     0.117 A 
HETATM   40  S   UNK N   1      37.964  11.338  10.625  0.00  0.00    -0.074 SA
HETATM   41  C   UNK N   1      37.523  10.826  12.149  0.00  0.00     0.082 A 
HETATM   42  C   UNK N   1      37.257  12.018  12.858  0.00  0.00     0.050 A 
HETATM   43  N   UNK N   1      37.458  13.177  12.152  0.00  0.00    -0.344 N 
ATOM     44  HN  UNK N   1      37.330  14.108  12.550  1.00  0.00     0.167 HD
BRANCH  42  45
HETATM   45  C   UNK N   1      36.796  12.083  14.252  0.00  0.00    -0.006 A 
HETATM   46  C   UNK N   1      36.282  13.260  14.804  0.00  0.00     0.031 A 
HETATM   47  C   UNK N   1      35.783  13.238  16.111  0.00  0.00     0.090 A 
HETATM   48  N   UNK N   1      35.818  12.089  16.843  0.00  0.00    -0.371 N 
HETATM   49  C   UNK N   1      36.346  10.945  16.335  0.00  0.00     0.090 A 
HETATM   50  C   UNK N   1      35.261  12.075  18.181  0.00  0.00     0.154 C 
HETATM   51  C   UNK N   1      36.835  10.921  15.033  0.00  0.00     0.031 A 
ENDBRANCH  42  45
ENDBRANCH  38  39
ENDBRANCH   4  38
TORSDOF 13
ENDMDL
MODEL 4
REMARK VINA RESULT:      -7.4      2.207      2.602
REMARK  13 active torsions:
REMARK  status: ('A' for Active; 'I' for Inactive)
REMARK    1  A    between atoms: C_3  and  C_24 
REMARK    2  A    between atoms: C_4  and  S_14 
REMARK    3  A    between atoms: C_7  and  N_9 
REMARK       I    between atoms: N_9  and  C_10 
REMARK    4  A    between atoms: C_10  and  C_13 
REMARK    5  A    between atoms: C_13  and  C_15 
REMARK    6  A    between atoms: S_14  and  C_35 
REMARK    7  A    between atoms: C_19  and  N_27 
REMARK    8  A    between atoms: N_22  and  O_28 
REMARK    9  A    between atoms: N_27  and  P_31 
REMARK   10  A    between atoms: O_28  and  C_29 
REMARK   11  A    between atoms: P_31  and  O_32 
REMARK   12  A    between atoms: P_31  and  O_33 
REMARK   13  A    between atoms: C_38  and  C_41 
ROOT
HETATM    1  C   UNK N   1      32.842  15.064   7.558  0.00  0.00     0.187 C 
HETATM    2  N   UNK N   1      33.635  15.978   8.305  0.00  0.00    -0.292 N 
HETATM    3  C   UNK N   1      34.837  15.744   9.019  0.00  0.00     0.129 C 
HETATM    4  C   UNK N   1      35.677  14.818   8.489  0.00  0.00     0.028 C 
HETATM    5  C   UNK N   1      35.443  14.419   7.037  0.00  0.00     0.124 C 
HETATM    6  S   UNK N   1      33.776  13.994   6.431  0.00  0.00    -0.135 SA
HETATM    7  C   UNK N   1      32.071  16.361   6.961  0.00  0.00     0.211 C 
HETATM    8  C   UNK N   1      32.948  17.022   7.974  0.00  0.00     0.251 C 
HETATM    9  O   UNK N   1      33.185  18.191   8.229  0.00  0.00    -0.271 OA
ENDROOT
BRANCH   7  10
HETATM   10  N   UNK N   1      32.666  16.788   5.714  0.00  0.00    -0.339 N 
HETATM   11  C   UNK N   1      31.947  16.982   4.591  0.00  0.00     0.274 C 
HETATM   12  O   UNK N   1      32.440  17.621   3.672  0.00  0.00    -0.266 OA
HETATM   13  H   UNK N   1      33.637  16.943   5.685  0.00  0.00     0.163 HD
BRANCH  11  14
HETATM   14  C   UNK N   1      30.571  16.475   4.465  0.00  0.00     0.166 C 
HETATM   15  N   UNK N   1      30.326  15.216   4.254  0.00  0.00    -0.258 N 
ATOM     16  HN  UNK N   1      29.352  14.913   4.251  1.00  0.00     0.194 HD
BRANCH  14  17
HETATM   17  C   UNK N   1      29.451  17.366   4.788  0.00  0.00     0.148 A 
HETATM   18  N   UNK N   1      29.107  17.650   6.084  0.00  0.00    -0.307 N 
HETATM   19  S   UNK N   1      27.970  18.818   5.937  0.00  0.00     0.024 SA
ATOM     20  HN  UNK N   1      29.474  17.231   6.940  1.00  0.00     0.176 HD
HETATM   21  C   UNK N   1      27.921  18.971   4.316  0.00  0.00     0.171 A 
HETATM   22  N   UNK N   1      28.804  18.093   3.789  0.00  0.00    -0.319 N 
ATOM     23  HN  UNK N   1      28.976  17.977   2.791  1.00  0.00     0.169 HD
BRANCH  21  24
HETATM   24  N   UNK N   1      27.253  19.967   3.566  0.00  0.00    -0.278 N 
HETATM   25  H   UNK N   1      27.779  20.673   3.125  0.00  0.00     0.173 HD
BRANCH  24  26
HETATM   26  P   UNK N   1      25.476  19.967   3.404  0.00  0.00     0.349 P 
HETATM   27  O   UNK N   1      24.907  20.737   4.624  0.00  0.00    -0.637 OA
BRANCH  26  28
HETATM   28  O   UNK N   1      25.002  20.801   1.958  0.00  0.00    -0.313 OA
HETATM   29  H   UNK N   1      25.518  21.373   1.371  0.00  0.00     0.221 HD
ENDBRANCH  26  28
BRANCH  26  30
HETATM   30  O   UNK N   1      24.865  18.342   3.458  0.00  0.00    -0.313 OA
HETATM   31  H   UNK N   1      24.483  17.491   3.195  0.00  0.00     0.221 HD
ENDBRANCH  26  30
ENDBRANCH  24  26
ENDBRANCH  21  24
ENDBRANCH  14  17
BRANCH  15  32
HETATM   32  O   UNK N   1      31.260  14.298   4.039  0.00  0.00    -0.280 OA
BRANCH  32  33
HETATM   33  C   UNK N   1      30.981  13.001   3.664  0.00  0.00     0.196 C 
HETATM   34  C   UNK N   1      29.860  12.457   4.524  0.00  0.00     0.036 C 
ENDBRANCH  32  33
ENDBRANCH  15  32
ENDBRANCH  11  14
ENDBRANCH   7  10
BRANCH   3  35
HETATM   35  C   UNK N   1      35.139  16.546  10.244  0.00  0.00     0.228 C 
HETATM   36  O   UNK N   1      34.916  16.056  11.478  0.00  0.00    -0.643 OA
HETATM   37  O   UNK N   1      35.671  17.638  10.136  0.00  0.00    -0.643 OA
ENDBRANCH   3  35
BRANCH   4  38
HETATM   38  S   UNK N   1      37.219  14.276   9.318  0.00  0.00    -0.066 SA
BRANCH  38  39
HETATM   39  C   UNK N   1      36.510  13.277  10.641  0.00  0.00     0.117 A 
HETATM   40  S   UNK N   1      35.663  11.875  10.468  0.00  0.00    -0.074 SA
HETATM   41  C   UNK N   1      35.296  11.619  12.074  0.00  0.00     0.082 A 
HETATM   42  C   UNK N   1      35.870  12.720  12.746  0.00  0.00     0.050 A 
HETATM   43  N   UNK N   1      36.548  13.606  11.947  0.00  0.00    -0.344 N 
ATOM     44  HN  UNK N   1      37.032  14.430  12.305  1.00  0.00     0.167 HD
BRANCH  42  45
HETATM   45  C   UNK N   1      35.783  12.961  14.194  0.00  0.00    -0.006 A 
HETATM   46  C   UNK N   1      36.605  13.891  14.836  0.00  0.00     0.031 A 
HETATM   47  C   UNK N   1      36.419  14.135  16.201  0.00  0.00     0.090 A 
HETATM   48  N   UNK N   1      35.464  13.459  16.899  0.00  0.00    -0.371 N 
HETATM   49  C   UNK N   1      34.681  12.526  16.298  0.00  0.00     0.090 A 
HETATM   50  C   UNK N   1      35.260  13.753  18.304  0.00  0.00     0.154 C 
HETATM   51  C   UNK N   1      34.821  12.268  14.938  0.00  0.00     0.031 A 
ENDBRANCH  42  45
ENDBRANCH  38  39
ENDBRANCH   4  38
TORSDOF 13
ENDMDL
MODEL 5
REMARK VINA RESULT:      -7.3      2.240      4.255
REMARK  13 active torsions:
REMARK  status: ('A' for Active; 'I' for Inactive)
REMARK    1  A    between atoms: C_3  and  C_24 
REMARK    2  A    between atoms: C_4  and  S_14 
REMARK    3  A    between atoms: C_7  and  N_9 
REMARK       I    between atoms: N_9  and  C_10 
REMARK    4  A    between atoms: C_10  and  C_13 
REMARK    5  A    between atoms: C_13  and  C_15 
REMARK    6  A    between atoms: S_14  and  C_35 
REMARK    7  A    between atoms: C_19  and  N_27 
REMARK    8  A    between atoms: N_22  and  O_28 
REMARK    9  A    between atoms: N_27  and  P_31 
REMARK   10  A    between atoms: O_28  and  C_29 
REMARK   11  A    between atoms: P_31  and  O_32 
REMARK   12  A    between atoms: P_31  and  O_33 
REMARK   13  A    between atoms: C_38  and  C_41 
ROOT
HETATM    1  C   UNK N   1      32.288  15.400   7.917  0.00  0.00     0.187 C 
HETATM    2  N   UNK N   1      33.262  16.218   8.552  0.00  0.00    -0.292 N 
HETATM    3  C   UNK N   1      34.516  15.853   9.105  0.00  0.00     0.129 C 
HETATM    4  C   UNK N   1      35.177  14.848   8.475  0.00  0.00     0.028 C 
HETATM    5  C   UNK N   1      34.718  14.490   7.067  0.00  0.00     0.124 C 
HETATM    6  S   UNK N   1      32.950  14.249   6.683  0.00  0.00    -0.135 SA
HETATM    7  C   UNK N   1      31.588  16.777   7.419  0.00  0.00     0.211 C 
HETATM    8  C   UNK N   1      32.653  17.332   8.307  0.00  0.00     0.251 C 
HETATM    9  O   UNK N   1      33.043  18.467   8.525  0.00  0.00    -0.271 OA
ENDROOT
BRANCH   7  10
HETATM   10  N   UNK N   1      32.058  17.150   6.104  0.00  0.00    -0.339 N 
HETATM   11  C   UNK N   1      31.262  17.156   5.017  0.00  0.00     0.274 C 
HETATM   12  O   UNK N   1      31.624  17.757   4.017  0.00  0.00    -0.266 OA
HETATM   13  H   UNK N   1      33.001  17.411   5.998  0.00  0.00     0.163 HD
BRANCH  11  14
HETATM   14  C   UNK N   1      29.951  16.486   5.025  0.00  0.00     0.166 C 
HETATM   15  N   UNK N   1      28.873  17.101   5.412  0.00  0.00    -0.258 N 
ATOM     16  HN  UNK N   1      27.985  16.609   5.323  1.00  0.00     0.194 HD
BRANCH  14  17
HETATM   17  C   UNK N   1      29.820  15.169   4.391  0.00  0.00     0.148 A 
HETATM   18  N   UNK N   1      28.624  14.500   4.361  0.00  0.00    -0.307 N 
HETATM   19  S   UNK N   1      28.922  13.217   3.389  0.00  0.00     0.024 SA
ATOM     20  HN  UNK N   1      27.753  14.745   4.833  1.00  0.00     0.176 HD
HETATM   21  C   UNK N   1      30.482  13.496   3.012  0.00  0.00     0.171 A 
HETATM   22  N   UNK N   1      30.866  14.628   3.643  0.00  0.00    -0.319 N 
ATOM     23  HN  UNK N   1      31.799  15.034   3.582  1.00  0.00     0.169 HD
BRANCH  21  24
HETATM   24  N   UNK N   1      31.265  12.827   2.042  0.00  0.00    -0.278 N 
HETATM   25  H   UNK N   1      30.827  12.219   1.403  0.00  0.00     0.173 HD
BRANCH  24  26
HETATM   26  P   UNK N   1      33.031  13.062   1.956  0.00  0.00     0.349 P 
HETATM   27  O   UNK N   1      33.462  12.752   0.498  0.00  0.00    -0.637 OA
BRANCH  26  28
HETATM   28  O   UNK N   1      33.439  14.711   2.311  0.00  0.00    -0.313 OA
HETATM   29  H   UNK N   1      32.948  15.526   2.132  0.00  0.00     0.221 HD
ENDBRANCH  26  28
BRANCH  26  30
HETATM   30  O   UNK N   1      33.842  11.942   3.008  0.00  0.00    -0.313 OA
HETATM   31  H   UNK N   1      34.526  11.390   3.416  0.00  0.00     0.221 HD
ENDBRANCH  26  30
ENDBRANCH  24  26
ENDBRANCH  21  24
ENDBRANCH  14  17
BRANCH  15  32
HETATM   32  O   UNK N   1      28.854  18.328   5.918  0.00  0.00    -0.280 OA
BRANCH  32  33
HETATM   33  C   UNK N   1      27.943  19.292   5.543  0.00  0.00     0.196 C 
HETATM   34  C   UNK N   1      27.370  18.944   4.185  0.00  0.00     0.036 C 
ENDBRANCH  32  33
ENDBRANCH  15  32
ENDBRANCH  11  14
ENDBRANCH   7  10
BRANCH   3  35
HETATM   35  C   UNK N   1      35.055  16.606  10.277  0.00  0.00     0.228 C 
HETATM   36  O   UNK N   1      34.936  16.135  11.532  0.00  0.00    -0.643 OA
HETATM   37  O   UNK N   1      35.688  17.634  10.096  0.00  0.00    -0.643 OA
ENDBRANCH   3  35
BRANCH   4  38
HETATM   38  S   UNK N   1      36.747  14.139   9.100  0.00  0.00    -0.066 SA
BRANCH  38  39
HETATM   39  C   UNK N   1      36.108  13.169  10.479  0.00  0.00     0.117 A 
HETATM   40  S   UNK N   1      35.241  11.772  10.378  0.00  0.00    -0.074 SA
HETATM   41  C   UNK N   1      34.964  11.547  12.007  0.00  0.00     0.082 A 
HETATM   42  C   UNK N   1      35.585  12.654  12.626  0.00  0.00     0.050 A 
HETATM   43  N   UNK N   1      36.224  13.520  11.774  0.00  0.00    -0.344 N 
ATOM     44  HN  UNK N   1      36.734  14.345  12.090  1.00  0.00     0.167 HD
BRANCH  42  45
HETATM   45  C   UNK N   1      35.584  12.919  14.072  0.00  0.00    -0.006 A 
HETATM   46  C   UNK N   1      36.490  13.808  14.658  0.00  0.00     0.031 A 
HETATM   47  C   UNK N   1      36.386  14.082  16.026  0.00  0.00     0.090 A 
HETATM   48  N   UNK N   1      35.428  13.473  16.781  0.00  0.00    -0.371 N 
HETATM   49  C   UNK N   1      34.563  12.580  16.234  0.00  0.00     0.090 A 
HETATM   50  C   UNK N   1      35.311  13.798  18.188  0.00  0.00     0.154 C 
HETATM   51  C   UNK N   1      34.621  12.295  14.874  0.00  0.00     0.031 A 
ENDBRANCH  42  45
ENDBRANCH  38  39
ENDBRANCH   4  38
TORSDOF 13
ENDMDL
MODEL 6
REMARK VINA RESULT:      -7.3      3.691      9.628
REMARK  13 active torsions:
REMARK  status: ('A' for Active; 'I' for Inactive)
REMARK    1  A    between atoms: C_3  and  C_24 
REMARK    2  A    between atoms: C_4  and  S_14 
REMARK    3  A    between atoms: C_7  and  N_9 
REMARK       I    between atoms: N_9  and  C_10 
REMARK    4  A    between atoms: C_10  and  C_13 
REMARK    5  A    between atoms: C_13  and  C_15 
REMARK    6  A    between atoms: S_14  and  C_35 
REMARK    7  A    between atoms: C_19  and  N_27 
REMARK    8  A    between atoms: N_22  and  O_28 
REMARK    9  A    between atoms: N_27  and  P_31 
REMARK   10  A    between atoms: O_28  and  C_29 
REMARK   11  A    between atoms: P_31  and  O_32 
REMARK   12  A    between atoms: P_31  and  O_33 
REMARK   13  A    between atoms: C_38  and  C_41 
ROOT
HETATM    1  C   UNK N   1      34.909  13.598   7.222  0.00  0.00     0.187 C 
HETATM    2  N   UNK N   1      34.124  14.770   7.404  0.00  0.00    -0.292 N 
HETATM    3  C   UNK N   1      33.751  15.754   6.455  0.00  0.00     0.129 C 
HETATM    4  C   UNK N   1      33.534  15.313   5.189  0.00  0.00     0.028 C 
HETATM    5  C   UNK N   1      33.336  13.813   5.002  0.00  0.00     0.124 C 
HETATM    6  S   UNK N   1      34.469  12.607   5.769  0.00  0.00    -0.135 SA
HETATM    7  C   UNK N   1      34.386  13.130   8.686  0.00  0.00     0.211 C 
HETATM    8  C   UNK N   1      33.809  14.507   8.631  0.00  0.00     0.251 C 
HETATM    9  O   UNK N   1      33.039  15.114   9.357  0.00  0.00    -0.271 OA
ENDROOT
BRANCH   7  10
HETATM   10  N   UNK N   1      33.209  12.299   8.574  0.00  0.00    -0.339 N 
HETATM   11  C   UNK N   1      33.058  11.151   9.263  0.00  0.00     0.274 C 
HETATM   12  O   UNK N   1      31.943  10.658   9.361  0.00  0.00    -0.266 OA
HETATM   13  H   UNK N   1      32.489  12.583   7.968  0.00  0.00     0.163 HD
BRANCH  11  14
HETATM   14  C   UNK N   1      34.198  10.502   9.931  0.00  0.00     0.166 C 
HETATM   15  N   UNK N   1      35.184   9.991   9.254  0.00  0.00    -0.258 N 
ATOM     16  HN  UNK N   1      35.980   9.623   9.773  1.00  0.00     0.194 HD
BRANCH  14  17
HETATM   17  C   UNK N   1      34.330  10.615  11.388  0.00  0.00     0.148 A 
HETATM   18  N   UNK N   1      34.639   9.532  12.169  0.00  0.00    -0.307 N 
HETATM   19  S   UNK N   1      34.880  10.181  13.653  0.00  0.00     0.024 SA
ATOM     20  HN  UNK N   1      34.704   8.552  11.891  1.00  0.00     0.176 HD
HETATM   21  C   UNK N   1      34.619  11.755  13.326  0.00  0.00     0.171 A 
HETATM   22  N   UNK N   1      34.317  11.862  12.012  0.00  0.00    -0.319 N 
ATOM     23  HN  UNK N   1      34.106  12.740  11.539  1.00  0.00     0.169 HD
BRANCH  21  24
HETATM   24  N   UNK N   1      34.860  12.861  14.174  0.00  0.00    -0.278 N 
HETATM   25  H   UNK N   1      34.124  13.219  14.722  0.00  0.00     0.173 HD
BRANCH  24  26
HETATM   26  P   UNK N   1      36.471  13.621  14.269  0.00  0.00     0.349 P 
HETATM   27  O   UNK N   1      36.656  14.116  15.727  0.00  0.00    -0.637 OA
BRANCH  26  28
HETATM   28  O   UNK N   1      37.710  12.457  13.922  0.00  0.00    -0.313 OA
HETATM   29  H   UNK N   1      38.664  12.496  14.085  0.00  0.00     0.221 HD
ENDBRANCH  26  28
BRANCH  26  30
HETATM   30  O   UNK N   1      36.551  15.001  13.217  0.00  0.00    -0.313 OA
HETATM   31  H   UNK N   1      36.859  15.806  12.772  0.00  0.00     0.221 HD
ENDBRANCH  26  30
ENDBRANCH  24  26
ENDBRANCH  21  24
ENDBRANCH  14  17
BRANCH  15  32
HETATM   32  O   UNK N   1      35.220   9.915   7.929  0.00  0.00    -0.280 OA
BRANCH  32  33
HETATM   33  C   UNK N   1      35.036   8.743   7.228  0.00  0.00     0.196 C 
HETATM   34  C   UNK N   1      33.733   8.813   6.460  0.00  0.00     0.036 C 
ENDBRANCH  32  33
ENDBRANCH  15  32
ENDBRANCH  11  14
ENDBRANCH   7  10
BRANCH   3  35
HETATM   35  C   UNK N   1      33.563  17.171   6.892  0.00  0.00     0.228 C 
HETATM   36  O   UNK N   1      32.365  17.629   7.299  0.00  0.00    -0.643 OA
HETATM   37  O   UNK N   1      34.528  17.915   6.960  0.00  0.00    -0.643 OA
ENDBRANCH   3  35
BRANCH   4  38
HETATM   38  S   UNK N   1      33.170  16.435   3.787  0.00  0.00    -0.066 SA
BRANCH  38  39
HETATM   39  C   UNK N   1      31.380  16.563   3.965  0.00  0.00     0.117 A 
HETATM   40  S   UNK N   1      30.253  15.571   3.288  0.00  0.00    -0.074 SA
HETATM   41  C   UNK N   1      28.887  16.358   3.831  0.00  0.00     0.082 A 
HETATM   42  C   UNK N   1      29.383  17.460   4.561  0.00  0.00     0.050 A 
HETATM   43  N   UNK N   1      30.750  17.543   4.641  0.00  0.00    -0.344 N 
ATOM     44  HN  UNK N   1      31.240  18.273   5.159  1.00  0.00     0.167 HD
BRANCH  42  45
HETATM   45  C   UNK N   1      28.550  18.481   5.214  0.00  0.00    -0.006 A 
HETATM   46  C   UNK N   1      28.449  18.570   6.605  0.00  0.00     0.031 A 
HETATM   47  C   UNK N   1      27.707  19.614   7.168  0.00  0.00     0.090 A 
HETATM   48  N   UNK N   1      27.073  20.519   6.369  0.00  0.00    -0.371 N 
HETATM   49  C   UNK N   1      27.132  20.426   5.015  0.00  0.00     0.090 A 
HETATM   50  C   UNK N   1      26.341  21.616   6.970  0.00  0.00     0.154 C 
HETATM   51  C   UNK N   1      27.876  19.414   4.417  0.00  0.00     0.031 A 
ENDBRANCH  42  45
ENDBRANCH  38  39
ENDBRANCH   4  38
TORSDOF 13
ENDMDL
MODEL 7
REMARK VINA RESULT:      -7.2      2.831      3.783
REMARK  13 active torsions:
REMARK  status: ('A' for Active; 'I' for Inactive)
REMARK    1  A    between atoms: C_3  and  C_24 
REMARK    2  A    between atoms: C_4  and  S_14 
REMARK    3  A    between atoms: C_7  and  N_9 
REMARK       I    between atoms: N_9  and  C_10 
REMARK    4  A    between atoms: C_10  and  C_13 
REMARK    5  A    between atoms: C_13  and  C_15 
REMARK    6  A    between atoms: S_14  and  C_35 
REMARK    7  A    between atoms: C_19  and  N_27 
REMARK    8  A    between atoms: N_22  and  O_28 
REMARK    9  A    between atoms: N_27  and  P_31 
REMARK   10  A    between atoms: O_28  and  C_29 
REMARK   11  A    between atoms: P_31  and  O_32 
REMARK   12  A    between atoms: P_31  and  O_33 
REMARK   13  A    between atoms: C_38  and  C_41 
ROOT
HETATM    1  C   UNK N   1      35.207  15.346   9.261  0.00  0.00     0.187 C 
HETATM    2  N   UNK N   1      36.046  14.320   8.744  0.00  0.00    -0.292 N 
HETATM    3  C   UNK N   1      36.838  13.374   9.442  0.00  0.00     0.129 C 
HETATM    4  C   UNK N   1      36.336  12.931  10.624  0.00  0.00     0.028 C 
HETATM    5  C   UNK N   1      34.856  13.181  10.887  0.00  0.00     0.124 C 
HETATM    6  S   UNK N   1      34.112  14.823  10.608  0.00  0.00    -0.135 SA
HETATM    7  C   UNK N   1      34.605  15.484   7.760  0.00  0.00     0.211 C 
HETATM    8  C   UNK N   1      35.705  14.505   7.510  0.00  0.00     0.251 C 
HETATM    9  O   UNK N   1      36.023  13.845   6.535  0.00  0.00    -0.271 OA
ENDROOT
BRANCH   7  10
HETATM   10  N   UNK N   1      33.424  14.667   7.599  0.00  0.00    -0.339 N 
HETATM   11  C   UNK N   1      32.282  15.132   7.055  0.00  0.00     0.274 C 
HETATM   12  O   UNK N   1      31.437  14.336   6.672  0.00  0.00    -0.266 OA
HETATM   13  H   UNK N   1      33.454  13.731   7.900  0.00  0.00     0.163 HD
BRANCH  11  14
HETATM   14  C   UNK N   1      32.051  16.575   6.877  0.00  0.00     0.166 C 
HETATM   15  N   UNK N   1      32.584  17.235   5.891  0.00  0.00    -0.258 N 
ATOM     16  HN  UNK N   1      32.326  18.215   5.778  1.00  0.00     0.194 HD
BRANCH  14  17
HETATM   17  C   UNK N   1      31.037  17.241   7.703  0.00  0.00     0.148 A 
HETATM   18  N   UNK N   1      31.349  17.801   8.914  0.00  0.00    -0.307 N 
HETATM   19  S   UNK N   1      29.978  18.587   9.342  0.00  0.00     0.024 SA
ATOM     20  HN  UNK N   1      32.229  17.742   9.428  1.00  0.00     0.176 HD
HETATM   21  C   UNK N   1      29.038  18.249   8.055  0.00  0.00     0.171 A 
HETATM   22  N   UNK N   1      29.756  17.482   7.205  0.00  0.00    -0.319 N 
ATOM     23  HN  UNK N   1      29.408  17.125   6.316  1.00  0.00     0.169 HD
BRANCH  21  24
HETATM   24  N   UNK N   1      27.776  18.807   7.743  0.00  0.00    -0.278 N 
HETATM   25  H   UNK N   1      27.051  18.765   8.408  0.00  0.00     0.173 HD
BRANCH  24  26
HETATM   26  P   UNK N   1      27.472  19.584   6.166  0.00  0.00     0.349 P 
HETATM   27  O   UNK N   1      28.444  18.939   5.145  0.00  0.00    -0.637 OA
BRANCH  26  28
HETATM   28  O   UNK N   1      25.846  19.280   5.646  0.00  0.00    -0.313 OA
HETATM   29  H   UNK N   1      25.365  19.616   4.874  0.00  0.00     0.221 HD
ENDBRANCH  26  28
BRANCH  26  30
HETATM   30  O   UNK N   1      27.829  21.282   6.251  0.00  0.00    -0.313 OA
HETATM   31  H   UNK N   1      28.305  22.121   6.356  0.00  0.00     0.221 HD
ENDBRANCH  26  30
ENDBRANCH  24  26
ENDBRANCH  21  24
ENDBRANCH  14  17
BRANCH  15  32
HETATM   32  O   UNK N   1      33.444  16.717   5.024  0.00  0.00    -0.280 OA
BRANCH  32  33
HETATM   33  C   UNK N   1      33.073  16.194   3.804  0.00  0.00     0.196 C 
HETATM   34  C   UNK N   1      32.122  17.149   3.114  0.00  0.00     0.036 C 
ENDBRANCH  32  33
ENDBRANCH  15  32
ENDBRANCH  11  14
ENDBRANCH   7  10
BRANCH   3  35
HETATM   35  C   UNK N   1      38.112  12.882   8.835  0.00  0.00     0.228 C 
HETATM   36  O   UNK N   1      38.172  11.710   8.176  0.00  0.00    -0.643 OA
HETATM   37  O   UNK N   1      39.107  13.589   8.864  0.00  0.00    -0.643 OA
ENDBRANCH   3  35
BRANCH   4  38
HETATM   38  S   UNK N   1      37.256  11.806  11.741  0.00  0.00    -0.066 SA
BRANCH  38  39
HETATM   39  C   UNK N   1      36.692  12.440  13.332  0.00  0.00     0.117 A 
HETATM   40  S   UNK N   1      36.454  14.020  13.731  0.00  0.00    -0.074 SA
HETATM   41  C   UNK N   1      36.031  13.800  15.329  0.00  0.00     0.082 A 
HETATM   42  C   UNK N   1      36.108  12.404  15.524  0.00  0.00     0.050 A 
HETATM   43  N   UNK N   1      36.452  11.674  14.414  0.00  0.00    -0.344 N 
ATOM     44  HN  UNK N   1      36.518  10.656  14.408  1.00  0.00     0.167 HD
BRANCH  42  45
HETATM   45  C   UNK N   1      35.853  11.717  16.799  0.00  0.00    -0.006 A 
HETATM   46  C   UNK N   1      36.161  10.366  16.982  0.00  0.00     0.031 A 
HETATM   47  C   UNK N   1      35.972   9.790  18.243  0.00  0.00     0.090 A 
HETATM   48  N   UNK N   1      35.473  10.531  19.272  0.00  0.00    -0.371 N 
HETATM   49  C   UNK N   1      35.134  11.835  19.102  0.00  0.00     0.090 A 
HETATM   50  C   UNK N   1      35.319   9.927  20.581  0.00  0.00     0.154 C 
HETATM   51  C   UNK N   1      35.326  12.450  17.869  0.00  0.00     0.031 A 
ENDBRANCH  42  45
ENDBRANCH  38  39
ENDBRANCH   4  38
TORSDOF 13
ENDMDL
MODEL 8
REMARK VINA RESULT:      -7.2      3.989      9.878
REMARK  13 active torsions:
REMARK  status: ('A' for Active; 'I' for Inactive)
REMARK    1  A    between atoms: C_3  and  C_24 
REMARK    2  A    between atoms: C_4  and  S_14 
REMARK    3  A    between atoms: C_7  and  N_9 
REMARK       I    between atoms: N_9  and  C_10 
REMARK    4  A    between atoms: C_10  and  C_13 
REMARK    5  A    between atoms: C_13  and  C_15 
REMARK    6  A    between atoms: S_14  and  C_35 
REMARK    7  A    between atoms: C_19  and  N_27 
REMARK    8  A    between atoms: N_22  and  O_28 
REMARK    9  A    between atoms: N_27  and  P_31 
REMARK   10  A    between atoms: O_28  and  C_29 
REMARK   11  A    between atoms: P_31  and  O_32 
REMARK   12  A    between atoms: P_31  and  O_33 
REMARK   13  A    between atoms: C_38  and  C_41 
ROOT
HETATM    1  C   UNK N   1      30.087  15.610   6.230  0.00  0.00     0.187 C 
HETATM    2  N   UNK N   1      30.541  14.608   5.328  0.00  0.00    -0.292 N 
HETATM    3  C   UNK N   1      29.927  14.121   4.147  0.00  0.00     0.129 C 
HETATM    4  C   UNK N   1      29.218  15.027   3.424  0.00  0.00     0.028 C 
HETATM    5  C   UNK N   1      29.464  16.500   3.725  0.00  0.00     0.124 C 
HETATM    6  S   UNK N   1      29.481  17.124   5.440  0.00  0.00    -0.135 SA
HETATM    7  C   UNK N   1      31.582  15.591   6.862  0.00  0.00     0.211 C 
HETATM    8  C   UNK N   1      31.691  14.453   5.900  0.00  0.00     0.251 C 
HETATM    9  O   UNK N   1      32.629  13.766   5.530  0.00  0.00    -0.271 OA
ENDROOT
BRANCH   7  10
HETATM   10  N   UNK N   1      32.417  16.596   6.245  0.00  0.00    -0.339 N 
HETATM   11  C   UNK N   1      33.292  17.347   6.942  0.00  0.00     0.274 C 
HETATM   12  O   UNK N   1      34.168  17.952   6.341  0.00  0.00    -0.266 OA
HETATM   13  H   UNK N   1      32.343  16.738   5.274  0.00  0.00     0.163 HD
BRANCH  11  14
HETATM   14  C   UNK N   1      33.235  17.423   8.410  0.00  0.00     0.166 C 
HETATM   15  N   UNK N   1      32.211  17.934   9.028  0.00  0.00    -0.258 N 
ATOM     16  HN  UNK N   1      32.197  17.889  10.047  1.00  0.00     0.194 HD
BRANCH  14  17
HETATM   17  C   UNK N   1      34.256  16.725   9.200  0.00  0.00     0.148 A 
HETATM   18  N   UNK N   1      34.894  17.331  10.251  0.00  0.00    -0.307 N 
HETATM   19  S   UNK N   1      35.760  16.120  10.930  0.00  0.00     0.024 SA
ATOM     20  HN  UNK N   1      34.840  18.308  10.541  1.00  0.00     0.176 HD
HETATM   21  C   UNK N   1      35.343  14.884   9.954  0.00  0.00     0.171 A 
HETATM   22  N   UNK N   1      34.490  15.362   9.020  0.00  0.00    -0.319 N 
ATOM     23  HN  UNK N   1      34.073  14.799   8.280  1.00  0.00     0.169 HD
BRANCH  21  24
HETATM   24  N   UNK N   1      35.625  13.510  10.138  0.00  0.00    -0.278 N 
HETATM   25  H   UNK N   1      35.707  12.924   9.351  0.00  0.00     0.173 HD
BRANCH  24  26
HETATM   26  P   UNK N   1      35.836  12.818  11.769  0.00  0.00     0.349 P 
HETATM   27  O   UNK N   1      35.899  11.277  11.606  0.00  0.00    -0.637 OA
BRANCH  26  28
HETATM   28  O   UNK N   1      37.329  13.359  12.466  0.00  0.00    -0.313 OA
HETATM   29  H   UNK N   1      37.603  13.404  13.395  0.00  0.00     0.221 HD
ENDBRANCH  26  28
BRANCH  26  30
HETATM   30  O   UNK N   1      34.466  13.200  12.768  0.00  0.00    -0.313 OA
HETATM   31  H   UNK N   1      33.614  13.548  13.071  0.00  0.00     0.221 HD
ENDBRANCH  26  30
ENDBRANCH  24  26
ENDBRANCH  21  24
ENDBRANCH  14  17
BRANCH  15  32
HETATM   32  O   UNK N   1      31.183  18.511   8.419  0.00  0.00    -0.280 OA
BRANCH  32  33
HETATM   33  C   UNK N   1      29.909  18.545   8.943  0.00  0.00     0.196 C 
HETATM   34  C   UNK N   1      29.643  17.266   9.708  0.00  0.00     0.036 C 
ENDBRANCH  32  33
ENDBRANCH  15  32
ENDBRANCH  11  14
ENDBRANCH   7  10
BRANCH   3  35
HETATM   35  C   UNK N   1      30.133  12.698   3.738  0.00  0.00     0.228 C 
HETATM   36  O   UNK N   1      29.288  11.725   4.126  0.00  0.00    -0.643 OA
HETATM   37  O   UNK N   1      31.039  12.415   2.971  0.00  0.00    -0.643 OA
ENDBRANCH   3  35
BRANCH   4  38
HETATM   38  S   UNK N   1      28.244  14.578   1.939  0.00  0.00    -0.066 SA
BRANCH  38  39
HETATM   39  C   UNK N   1      26.783  13.887   2.737  0.00  0.00     0.117 A 
HETATM   40  S   UNK N   1      25.368  13.468   2.005  0.00  0.00    -0.074 SA
HETATM   41  C   UNK N   1      24.524  13.006   3.366  0.00  0.00     0.082 A 
HETATM   42  C   UNK N   1      25.426  13.223   4.430  0.00  0.00     0.050 A 
HETATM   43  N   UNK N   1      26.665  13.686   4.064  0.00  0.00    -0.344 N 
ATOM     44  HN  UNK N   1      27.419  13.859   4.729  1.00  0.00     0.167 HD
BRANCH  42  45
HETATM   45  C   UNK N   1      25.124  12.990   5.850  0.00  0.00    -0.006 A 
HETATM   46  C   UNK N   1      25.528  13.884   6.845  0.00  0.00     0.031 A 
HETATM   47  C   UNK N   1      25.139  13.651   8.169  0.00  0.00     0.090 A 
HETATM   48  N   UNK N   1      24.395  12.554   8.486  0.00  0.00    -0.371 N 
HETATM   49  C   UNK N   1      24.024  11.656   7.537  0.00  0.00     0.090 A 
HETATM   50  C   UNK N   1      23.969  12.350   9.857  0.00  0.00     0.154 C 
HETATM   51  C   UNK N   1      24.374  11.863   6.206  0.00  0.00     0.031 A 
ENDBRANCH  42  45
ENDBRANCH  38  39
ENDBRANCH   4  38
TORSDOF 13
ENDMDL
MODEL 9
REMARK VINA RESULT:      -7.2      4.235     11.314
REMARK  13 active torsions:
REMARK  status: ('A' for Active; 'I' for Inactive)
REMARK    1  A    between atoms: C_3  and  C_24 
REMARK    2  A    between atoms: C_4  and  S_14 
REMARK    3  A    between atoms: C_7  and  N_9 
REMARK       I    between atoms: N_9  and  C_10 
REMARK    4  A    between atoms: C_10  and  C_13 
REMARK    5  A    between atoms: C_13  and  C_15 
REMARK    6  A    between atoms: S_14  and  C_35 
REMARK    7  A    between atoms: C_19  and  N_27 
REMARK    8  A    between atoms: N_22  and  O_28 
REMARK    9  A    between atoms: N_27  and  P_31 
REMARK   10  A    between atoms: O_28  and  C_29 
REMARK   11  A    between atoms: P_31  and  O_32 
REMARK   12  A    between atoms: P_31  and  O_33 
REMARK   13  A    between atoms: C_38  and  C_41 
ROOT
HETATM    1  C   UNK N   1      29.839  15.745   6.098  0.00  0.00     0.187 C 
HETATM    2  N   UNK N   1      30.381  14.693   5.308  0.00  0.00    -0.292 N 
HETATM    3  C   UNK N   1      29.892  14.137   4.099  0.00  0.00     0.129 C 
HETATM    4  C   UNK N   1      29.268  14.997   3.255  0.00  0.00     0.028 C 
HETATM    5  C   UNK N   1      29.487  16.486   3.494  0.00  0.00     0.124 C 
HETATM    6  S   UNK N   1      29.326  17.209   5.161  0.00  0.00    -0.135 SA
HETATM    7  C   UNK N   1      31.259  15.765   6.883  0.00  0.00     0.211 C 
HETATM    8  C   UNK N   1      31.463  14.573   6.006  0.00  0.00     0.251 C 
HETATM    9  O   UNK N   1      32.432  13.868   5.778  0.00  0.00    -0.271 OA
ENDROOT
BRANCH   7  10
HETATM   10  N   UNK N   1      32.159  16.734   6.300  0.00  0.00    -0.339 N 
HETATM   11  C   UNK N   1      33.107  17.372   7.014  0.00  0.00     0.274 C 
HETATM   12  O   UNK N   1      34.016  17.939   6.424  0.00  0.00    -0.266 OA
HETATM   13  H   UNK N   1      32.075  16.936   5.341  0.00  0.00     0.163 HD
BRANCH  11  14
HETATM   14  C   UNK N   1      33.090  17.369   8.486  0.00  0.00     0.166 C 
HETATM   15  N   UNK N   1      32.061  17.795   9.157  0.00  0.00    -0.258 N 
ATOM     16  HN  UNK N   1      32.079  17.697  10.172  1.00  0.00     0.194 HD
BRANCH  14  17
HETATM   17  C   UNK N   1      34.166  16.681   9.209  0.00  0.00     0.148 A 
HETATM   18  N   UNK N   1      34.888  17.308  10.191  0.00  0.00    -0.307 N 
HETATM   19  S   UNK N   1      35.798  16.106  10.830  0.00  0.00     0.024 SA
ATOM     20  HN  UNK N   1      34.863  18.292  10.461  1.00  0.00     0.176 HD
HETATM   21  C   UNK N   1      35.297  14.850   9.920  0.00  0.00     0.171 A 
HETATM   22  N   UNK N   1      34.377  15.312   9.045  0.00  0.00    -0.319 N 
ATOM     23  HN  UNK N   1      33.899  14.735   8.354  1.00  0.00     0.169 HD
BRANCH  21  24
HETATM   24  N   UNK N   1      35.585  13.479  10.115  0.00  0.00    -0.278 N 
HETATM   25  H   UNK N   1      35.644  12.883   9.334  0.00  0.00     0.173 HD
BRANCH  24  26
HETATM   26  P   UNK N   1      35.843  12.810  11.749  0.00  0.00     0.349 P 
HETATM   27  O   UNK N   1      35.875  11.266  11.609  0.00  0.00    -0.637 OA
BRANCH  26  28
HETATM   28  O   UNK N   1      37.369  13.337  12.383  0.00  0.00    -0.313 OA
HETATM   29  H   UNK N   1      38.098  13.802  11.946  0.00  0.00     0.221 HD
ENDBRANCH  26  28
BRANCH  26  30
HETATM   30  O   UNK N   1      34.517  13.231  12.789  0.00  0.00    -0.313 OA
HETATM   31  H   UNK N   1      33.697  13.624  13.125  0.00  0.00     0.221 HD
ENDBRANCH  26  30
ENDBRANCH  24  26
ENDBRANCH  21  24
ENDBRANCH  14  17
BRANCH  15  32
HETATM   32  O   UNK N   1      30.989  18.351   8.607  0.00  0.00    -0.280 OA
BRANCH  32  33
HETATM   33  C   UNK N   1      29.903  18.793   9.333  0.00  0.00     0.196 C 
HETATM   34  C   UNK N   1      28.632  18.519   8.557  0.00  0.00     0.036 C 
ENDBRANCH  32  33
ENDBRANCH  15  32
ENDBRANCH  11  14
ENDBRANCH   7  10
BRANCH   3  35
HETATM   35  C   UNK N   1      30.134  12.693   3.798  0.00  0.00     0.228 C 
HETATM   36  O   UNK N   1      31.125  12.302   2.975  0.00  0.00    -0.643 OA
HETATM   37  O   UNK N   1      29.473  11.838   4.366  0.00  0.00    -0.643 OA
ENDBRANCH   3  35
BRANCH   4  38
HETATM   38  S   UNK N   1      28.453  14.461   1.703  0.00  0.00    -0.066 SA
BRANCH  38  39
HETATM   39  C   UNK N   1      26.806  14.099   2.341  0.00  0.00     0.117 A 
HETATM   40  S   UNK N   1      26.248  12.633   2.845  0.00  0.00    -0.074 SA
HETATM   41  C   UNK N   1      24.682  13.083   3.194  0.00  0.00     0.082 A 
HETATM   42  C   UNK N   1      24.629  14.456   2.869  0.00  0.00     0.050 A 
HETATM   43  N   UNK N   1      25.807  14.999   2.423  0.00  0.00    -0.344 N 
ATOM     44  HN  UNK N   1      25.916  15.984   2.179  1.00  0.00     0.167 HD
BRANCH  42  45
HETATM   45  C   UNK N   1      23.430  15.301   2.976  0.00  0.00    -0.006 A 
HETATM   46  C   UNK N   1      23.418  16.469   3.743  0.00  0.00     0.031 A 
HETATM   47  C   UNK N   1      22.275  17.274   3.739  0.00  0.00     0.090 A 
HETATM   48  N   UNK N   1      21.178  16.912   3.015  0.00  0.00    -0.371 N 
HETATM   49  C   UNK N   1      21.159  15.762   2.293  0.00  0.00     0.090 A 
HETATM   50  C   UNK N   1      20.016  17.778   2.993  0.00  0.00     0.154 C 
HETATM   51  C   UNK N   1      22.284  14.944   2.255  0.00  0.00     0.031 A 
ENDBRANCH  42  45
ENDBRANCH  38  39
ENDBRANCH   4  38
TORSDOF 13
ENDMDL
