REMARK  11 active torsions:
REMARK  status: ('A' for Active; 'I' for Inactive)
REMARK    1  A    between atoms: C_2  and  C_3 
REMARK    2  A    between atoms: C_3  and  C_4 
REMARK    3  A    between atoms: C_4  and  N_5 
REMARK    4  A    between atoms: N_5  and  C_6 
REMARK    5  A    between atoms: N_5  and  C_10 
REMARK    6  A    between atoms: C_6  and  C_7 
REMARK    7  A    between atoms: C_7  and  C_8 
REMARK    8  A    between atoms: C_10  and  C_11 
REMARK    9  A    between atoms: C_11  and  C_12 
REMARK   10  A    between atoms: C_11  and  O_35 
REMARK   11  A    between atoms: C_22  and  C_23 
ROOT
HETATM    1  C   UNK N   1       6.365  -0.095   0.289  0.00  0.00    -0.014 A 
HETATM    2  C   UNK N   1       7.640   0.489   0.125  0.00  0.00    -0.005 A 
HETATM    3  C   UNK N   1       8.998  -0.077   0.160  0.00  0.00    -0.013 A 
HETATM    4  C   UNK N   1       9.916   0.947  -0.037  0.00  0.00    -0.012 A 
HETATM    5  C   UNK N   1      11.289   0.705  -0.038  0.00  0.00     0.037 A 
HETATM    6  C   UNK N   1      11.730  -0.615   0.151  0.00  0.00     0.035 A 
HETATM    7  C   UNK N   1      10.800  -1.658   0.343  0.00  0.00     0.024 A 
HETATM    8  C   UNK N   1       9.421  -1.392   0.349  0.00  0.00     0.015 A 
HETATM    9 Cl   UNK N   1      13.445  -0.968   0.162  0.00  0.00    -0.084 Cl
HETATM   10  C   UNK N   1       9.187   2.209  -0.168  0.00  0.00    -0.013 A 
HETATM   11  C   UNK N   1       9.720   3.443  -0.268  0.00  0.00     0.024 C 
HETATM   12  C   UNK N   1       7.758   1.851  -0.096  0.00  0.00    -0.012 A 
HETATM   13  C   UNK N   1       6.636   2.668  -0.225  0.00  0.00     0.037 A 
HETATM   14  C   UNK N   1       5.368   2.102  -0.099  0.00  0.00     0.035 A 
HETATM   15  C   UNK N   1       5.234   0.732   0.175  0.00  0.00     0.034 A 
HETATM   16 Cl   UNK N   1       3.949   3.110  -0.269  0.00  0.00    -0.084 Cl
ENDROOT
BRANCH   1  17
HETATM   17  C   UNK N   1       6.137  -1.532   0.615  0.00  0.00     0.180 C 
BRANCH  17  18
HETATM   18  C   UNK N   1       6.482  -2.478  -0.521  0.00  0.00     0.308 C 
BRANCH  18  19
HETATM   19  N   UNK N   1       5.845  -3.768  -0.283  0.00  0.00     0.091 N 
BRANCH  19  20
HETATM   20  C   UNK N   1       4.453  -3.651  -0.694  0.00  0.00     0.272 C 
BRANCH  20  21
HETATM   21  C   UNK N   1       3.541  -4.097   0.438  0.00  0.00     0.030 C 
BRANCH  21  22
HETATM   22  C   UNK N   1       2.849  -5.403   0.085  0.00  0.00    -0.003 C 
HETATM   23  C   UNK N   1       3.813  -6.568   0.201  0.00  0.00     0.005 C 
ENDBRANCH  21  22
ENDBRANCH  20  21
ENDBRANCH  19  20
BRANCH  19  24
HETATM   24  C   UNK N   1       6.467  -4.743  -1.164  0.00  0.00     0.272 C 
BRANCH  24  25
HETATM   25  C   UNK N   1       7.570  -5.494  -0.435  0.00  0.00     0.030 C 
BRANCH  25  26
HETATM   26  C   UNK N   1       8.819  -4.642  -0.342  0.00  0.00    -0.003 C 
HETATM   27  C   UNK N   1       9.927  -5.433   0.320  0.00  0.00     0.005 C 
ENDBRANCH  25  26
ENDBRANCH  24  25
ENDBRANCH  19  24
ENDBRANCH  18  19
ENDBRANCH  17  18
BRANCH  17  28
HETATM   28  O   UNK N   1       6.794  -1.892   1.793  0.00  0.00    -0.389 OA
HETATM   29  H   UNK N   1       6.806  -2.412   2.612  0.00  0.00     0.210 HD
ENDBRANCH  17  28
ENDBRANCH   1  17
BRANCH  11  30
HETATM   30  C   UNK N   1       8.864   4.635  -0.152  0.00  0.00    -0.035 A 
HETATM   31  C   UNK N   1       8.168   4.856   1.047  0.00  0.00     0.013 A 
HETATM   32  C   UNK N   1       7.252   5.900   1.150  0.00  0.00     0.024 A 
HETATM   33  C   UNK N   1       7.020   6.730   0.053  0.00  0.00     0.034 A 
HETATM   34  C   UNK N   1       7.729   6.531  -1.139  0.00  0.00     0.024 A 
HETATM   35 Cl   UNK N   1       5.826   8.003   0.171  0.00  0.00    -0.084 Cl
HETATM   36  C   UNK N   1       8.653   5.483  -1.243  0.00  0.00     0.013 A 
ENDBRANCH  11  30
TORSDOF 11
