MODEL 1
REMARK VINA RESULT:      -5.2      0.000      0.000
REMARK  6 active torsions:
REMARK  status: ('A' for Active; 'I' for Inactive)
REMARK    1  A    between atoms: C_2  and  C_3 
REMARK    2  A    between atoms: C_2  and  N_13 
REMARK    3  A    between atoms: C_3  and  C_4 
REMARK    4  A    between atoms: C_3  and  O_12 
REMARK    5  A    between atoms: C_6  and  O_11 
REMARK    6  A    between atoms: C_7  and  O_10 
ROOT
HETATM    1  C   UNK N   1      35.358  12.687  17.070  0.00  0.00    -0.025 A 
HETATM    2  C   UNK N   1      35.032  13.420  18.224  0.00  0.00     0.049 A 
HETATM    3  C   UNK N   1      35.076  12.818  19.486  0.00  0.00     0.099 A 
HETATM    4  C   UNK N   1      35.438  11.470  19.603  0.00  0.00     0.098 A 
HETATM    5  C   UNK N   1      35.761  10.734  18.462  0.00  0.00     0.040 A 
HETATM    6  C   UNK N   1      35.734  11.342  17.204  0.00  0.00     0.013 A 
ENDROOT
BRANCH   1   7
HETATM    7  C   UNK N   1      35.369  13.354  15.709  0.00  0.00     0.173 C 
BRANCH   7   8
HETATM    8  C   UNK N   1      36.758  13.421  15.056  0.00  0.00     0.103 C 
HETATM    9  C   UNK N   1      36.783  12.591  13.784  0.00  0.00     0.034 C 
BRANCH   8  10
HETATM   10  N   UNK N   1      37.085  14.792  14.700  0.00  0.00    -0.424 N 
HETATM   11  H   UNK N   1      36.469  15.352  14.111  0.00  0.00     0.150 HD
HETATM   12  H   UNK N   1      37.950  15.204  15.049  0.00  0.00     0.150 HD
ENDBRANCH   8  10
ENDBRANCH   7   8
BRANCH   7  13
HETATM   13  O   UNK N   1      34.474  12.711  14.845  0.00  0.00    -0.389 OA
HETATM   14  H   UNK N   1      34.460  12.927  13.900  0.00  0.00     0.210 HD
ENDBRANCH   7  13
ENDBRANCH   1   7
BRANCH   3  15
HETATM   15  O   UNK N   1      34.779  13.540  20.580  0.00  0.00    -0.358 OA
HETATM   16  H   UNK N   1      34.138  13.238  21.193  0.00  0.00     0.217 HD
ENDBRANCH   3  15
BRANCH   4  17
HETATM   17  O   UNK N   1      35.481  10.882  20.811  0.00  0.00    -0.358 OA
HETATM   18  H   UNK N   1      35.763   9.991  20.893  0.00  0.00     0.217 HD
ENDBRANCH   4  17
TORSDOF 6
ENDMDL
MODEL 2
REMARK VINA RESULT:      -5.2      6.700      9.997
REMARK  6 active torsions:
REMARK  status: ('A' for Active; 'I' for Inactive)
REMARK    1  A    between atoms: C_2  and  C_3 
REMARK    2  A    between atoms: C_2  and  N_13 
REMARK    3  A    between atoms: C_3  and  C_4 
REMARK    4  A    between atoms: C_3  and  O_12 
REMARK    5  A    between atoms: C_6  and  O_11 
REMARK    6  A    between atoms: C_7  and  O_10 
ROOT
HETATM    1  C   UNK N   1      34.552  15.685   9.380  0.00  0.00    -0.025 A 
HETATM    2  C   UNK N   1      34.807  17.066   9.423  0.00  0.00     0.049 A 
HETATM    3  C   UNK N   1      34.652  17.857   8.279  0.00  0.00     0.099 A 
HETATM    4  C   UNK N   1      34.248  17.267   7.074  0.00  0.00     0.098 A 
HETATM    5  C   UNK N   1      33.994  15.896   7.021  0.00  0.00     0.040 A 
HETATM    6  C   UNK N   1      34.133  15.111   8.170  0.00  0.00     0.013 A 
ENDROOT
BRANCH   1   7
HETATM    7  C   UNK N   1      34.661  14.839  10.632  0.00  0.00     0.173 C 
BRANCH   7   8
HETATM    8  C   UNK N   1      35.851  15.204  11.532  0.00  0.00     0.103 C 
HETATM    9  C   UNK N   1      35.826  14.373  12.804  0.00  0.00     0.034 C 
BRANCH   8  10
HETATM   10  N   UNK N   1      37.106  14.935  10.848  0.00  0.00    -0.424 N 
HETATM   11  H   UNK N   1      37.659  15.685  10.432  0.00  0.00     0.150 HD
HETATM   12  H   UNK N   1      37.441  13.975  10.782  0.00  0.00     0.150 HD
ENDBRANCH   8  10
ENDBRANCH   7   8
BRANCH   7  13
HETATM   13  O   UNK N   1      33.474  14.909  11.371  0.00  0.00    -0.389 OA
HETATM   14  H   UNK N   1      33.468  14.691  12.316  0.00  0.00     0.210 HD
ENDBRANCH   7  13
ENDBRANCH   1   7
BRANCH   3  15
HETATM   15  O   UNK N   1      34.883  19.178   8.345  0.00  0.00    -0.358 OA
HETATM   16  H   UNK N   1      34.190  19.777   8.541  0.00  0.00     0.217 HD
ENDBRANCH   3  15
BRANCH   4  17
HETATM   17  O   UNK N   1      34.098  18.017   5.968  0.00  0.00    -0.358 OA
HETATM   18  H   UNK N   1      33.672  18.850   6.017  0.00  0.00     0.217 HD
ENDBRANCH   4  17
TORSDOF 6
ENDMDL
MODEL 3
REMARK VINA RESULT:      -5.1      1.810      2.058
REMARK  6 active torsions:
REMARK  status: ('A' for Active; 'I' for Inactive)
REMARK    1  A    between atoms: C_2  and  C_3 
REMARK    2  A    between atoms: C_2  and  N_13 
REMARK    3  A    between atoms: C_3  and  C_4 
REMARK    4  A    between atoms: C_3  and  O_12 
REMARK    5  A    between atoms: C_6  and  O_11 
REMARK    6  A    between atoms: C_7  and  O_10 
ROOT
HETATM    1  C   UNK N   1      35.773  12.546  16.315  0.00  0.00    -0.025 A 
HETATM    2  C   UNK N   1      35.610  13.833  16.855  0.00  0.00     0.049 A 
HETATM    3  C   UNK N   1      35.320  14.005  18.213  0.00  0.00     0.099 A 
HETATM    4  C   UNK N   1      35.181  12.885  19.044  0.00  0.00     0.098 A 
HETATM    5  C   UNK N   1      35.340  11.603  18.515  0.00  0.00     0.040 A 
HETATM    6  C   UNK N   1      35.646  11.434  17.162  0.00  0.00     0.013 A 
ENDROOT
BRANCH   1   7
HETATM    7  C   UNK N   1      36.146  12.361  14.858  0.00  0.00     0.173 C 
BRANCH   7   8
HETATM    8  C   UNK N   1      35.289  13.183  13.884  0.00  0.00     0.103 C 
HETATM    9  C   UNK N   1      36.163  14.139  13.090  0.00  0.00     0.034 C 
BRANCH   8  10
HETATM   10  N   UNK N   1      34.614  12.306  12.940  0.00  0.00    -0.424 N 
HETATM   11  H   UNK N   1      34.753  12.397  11.934  0.00  0.00     0.150 HD
HETATM   12  H   UNK N   1      33.988  11.583  13.292  0.00  0.00     0.150 HD
ENDBRANCH   8  10
ENDBRANCH   7   8
BRANCH   7  13
HETATM   13  O   UNK N   1      37.500  12.660  14.662  0.00  0.00    -0.389 OA
HETATM   14  H   UNK N   1      38.163  11.953  14.645  0.00  0.00     0.210 HD
ENDBRANCH   7  13
ENDBRANCH   1   7
BRANCH   3  15
HETATM   15  O   UNK N   1      35.186  15.243  18.716  0.00  0.00    -0.358 OA
HETATM   16  H   UNK N   1      35.312  15.407  19.630  0.00  0.00     0.217 HD
ENDBRANCH   3  15
BRANCH   4  17
HETATM   17  O   UNK N   1      34.900  13.038  20.349  0.00  0.00    -0.358 OA
HETATM   18  H   UNK N   1      35.368  12.544  20.994  0.00  0.00     0.217 HD
ENDBRANCH   4  17
TORSDOF 6
ENDMDL
MODEL 4
REMARK VINA RESULT:      -5.0      9.681     11.586
REMARK  6 active torsions:
REMARK  status: ('A' for Active; 'I' for Inactive)
REMARK    1  A    between atoms: C_2  and  C_3 
REMARK    2  A    between atoms: C_2  and  N_13 
REMARK    3  A    between atoms: C_3  and  C_4 
REMARK    4  A    between atoms: C_3  and  O_12 
REMARK    5  A    between atoms: C_6  and  O_11 
REMARK    6  A    between atoms: C_7  and  O_10 
ROOT
HETATM    1  C   UNK N   1      32.918  16.791   7.196  0.00  0.00    -0.025 A 
HETATM    2  C   UNK N   1      33.685  17.963   7.306  0.00  0.00     0.049 A 
HETATM    3  C   UNK N   1      34.574  18.135   8.372  0.00  0.00     0.099 A 
HETATM    4  C   UNK N   1      34.697  17.136   9.347  0.00  0.00     0.098 A 
HETATM    5  C   UNK N   1      33.937  15.969   9.246  0.00  0.00     0.040 A 
HETATM    6  C   UNK N   1      33.062  15.792   8.171  0.00  0.00     0.013 A 
ENDROOT
BRANCH   1   7
HETATM    7  C   UNK N   1      31.999  16.577   6.010  0.00  0.00     0.173 C 
BRANCH   7   8
HETATM    8  C   UNK N   1      32.375  17.403   4.770  0.00  0.00     0.103 C 
HETATM    9  C   UNK N   1      33.149  16.547   3.782  0.00  0.00     0.034 C 
BRANCH   8  10
HETATM   10  N   UNK N   1      31.179  17.886   4.101  0.00  0.00    -0.424 N 
HETATM   11  H   UNK N   1      30.807  17.423   3.271  0.00  0.00     0.150 HD
HETATM   12  H   UNK N   1      30.698  18.706   4.470  0.00  0.00     0.150 HD
ENDBRANCH   8  10
ENDBRANCH   7   8
BRANCH   7  13
HETATM   13  O   UNK N   1      31.948  15.219   5.673  0.00  0.00    -0.389 OA
HETATM   14  H   UNK N   1      31.908  14.541   6.366  0.00  0.00     0.210 HD
ENDBRANCH   7  13
ENDBRANCH   1   7
BRANCH   3  15
HETATM   15  O   UNK N   1      35.313  19.255   8.451  0.00  0.00    -0.358 OA
HETATM   16  H   UNK N   1      36.042  19.389   7.879  0.00  0.00     0.217 HD
ENDBRANCH   3  15
BRANCH   4  17
HETATM   17  O   UNK N   1      35.547  17.292  10.376  0.00  0.00    -0.358 OA
HETATM   18  H   UNK N   1      36.144  16.606  10.605  0.00  0.00     0.217 HD
ENDBRANCH   4  17
TORSDOF 6
ENDMDL
MODEL 5
REMARK VINA RESULT:      -5.0     21.234     22.507
REMARK  6 active torsions:
REMARK  status: ('A' for Active; 'I' for Inactive)
REMARK    1  A    between atoms: C_2  and  C_3 
REMARK    2  A    between atoms: C_2  and  N_13 
REMARK    3  A    between atoms: C_3  and  C_4 
REMARK    4  A    between atoms: C_3  and  O_12 
REMARK    5  A    between atoms: C_6  and  O_11 
REMARK    6  A    between atoms: C_7  and  O_10 
ROOT
HETATM    1  C   UNK N   1      20.454  17.734   2.468  0.00  0.00    -0.025 A 
HETATM    2  C   UNK N   1      20.384  18.487   1.284  0.00  0.00     0.049 A 
HETATM    3  C   UNK N   1      20.723  19.845   1.281  0.00  0.00     0.099 A 
HETATM    4  C   UNK N   1      21.128  20.464   2.471  0.00  0.00     0.098 A 
HETATM    5  C   UNK N   1      21.199  19.724   3.652  0.00  0.00     0.040 A 
HETATM    6  C   UNK N   1      20.876  18.364   3.649  0.00  0.00     0.013 A 
ENDROOT
BRANCH   1   7
HETATM    7  C   UNK N   1      20.145  16.250   2.460  0.00  0.00     0.173 C 
BRANCH   7   8
HETATM    8  C   UNK N   1      20.156  15.617   1.060  0.00  0.00     0.103 C 
HETATM    9  C   UNK N   1      21.264  14.583   0.957  0.00  0.00     0.034 C 
BRANCH   8  10
HETATM   10  N   UNK N   1      18.893  14.945   0.799  0.00  0.00    -0.424 N 
HETATM   11  H   UNK N   1      18.804  13.931   0.862  0.00  0.00     0.150 HD
HETATM   12  H   UNK N   1      18.076  15.501   0.547  0.00  0.00     0.150 HD
ENDBRANCH   8  10
ENDBRANCH   7   8
BRANCH   7  13
HETATM   13  O   UNK N   1      21.036  15.563   3.294  0.00  0.00    -0.389 OA
HETATM   14  H   UNK N   1      21.826  16.006   3.641  0.00  0.00     0.210 HD
ENDBRANCH   7  13
ENDBRANCH   1   7
BRANCH   3  15
HETATM   15  O   UNK N   1      20.667  20.544   0.136  0.00  0.00    -0.358 OA
HETATM   16  H   UNK N   1      20.125  21.305   0.065  0.00  0.00     0.217 HD
ENDBRANCH   3  15
BRANCH   4  17
HETATM   17  O   UNK N   1      21.454  21.768   2.480  0.00  0.00    -0.358 OA
HETATM   18  H   UNK N   1      20.815  22.417   2.256  0.00  0.00     0.217 HD
ENDBRANCH   4  17
TORSDOF 6
ENDMDL
MODEL 6
REMARK VINA RESULT:      -5.0     11.132     12.732
REMARK  6 active torsions:
REMARK  status: ('A' for Active; 'I' for Inactive)
REMARK    1  A    between atoms: C_2  and  C_3 
REMARK    2  A    between atoms: C_2  and  N_13 
REMARK    3  A    between atoms: C_3  and  C_4 
REMARK    4  A    between atoms: C_3  and  O_12 
REMARK    5  A    between atoms: C_6  and  O_11 
REMARK    6  A    between atoms: C_7  and  O_10 
ROOT
HETATM    1  C   UNK N   1      30.619  17.327   7.333  0.00  0.00    -0.025 A 
HETATM    2  C   UNK N   1      31.518  17.505   8.398  0.00  0.00     0.049 A 
HETATM    3  C   UNK N   1      32.895  17.579   8.164  0.00  0.00     0.099 A 
HETATM    4  C   UNK N   1      33.387  17.464   6.856  0.00  0.00     0.098 A 
HETATM    5  C   UNK N   1      32.501  17.285   5.793  0.00  0.00     0.040 A 
HETATM    6  C   UNK N   1      31.124  17.230   6.027  0.00  0.00     0.013 A 
ENDROOT
BRANCH   1   7
HETATM    7  C   UNK N   1      29.124  17.308   7.578  0.00  0.00     0.173 C 
BRANCH   7   8
HETATM    8  C   UNK N   1      28.559  18.636   8.105  0.00  0.00     0.103 C 
HETATM    9  C   UNK N   1      27.873  19.399   6.985  0.00  0.00     0.034 C 
BRANCH   8  10
HETATM   10  N   UNK N   1      27.574  18.390   9.146  0.00  0.00    -0.424 N 
HETATM   11  H   UNK N   1      26.665  18.854   9.142  0.00  0.00     0.150 HD
HETATM   12  H   UNK N   1      27.795  17.738   9.898  0.00  0.00     0.150 HD
ENDBRANCH   8  10
ENDBRANCH   7   8
BRANCH   7  13
HETATM   13  O   UNK N   1      28.444  16.938   6.411  0.00  0.00    -0.389 OA
HETATM   14  H   UNK N   1      28.797  16.241   5.836  0.00  0.00     0.210 HD
ENDBRANCH   7  13
ENDBRANCH   1   7
BRANCH   3  15
HETATM   15  O   UNK N   1      33.738  17.768   9.192  0.00  0.00    -0.358 OA
HETATM   16  H   UNK N   1      33.412  17.949  10.052  0.00  0.00     0.217 HD
ENDBRANCH   3  15
BRANCH   4  17
HETATM   17  O   UNK N   1      34.709  17.531   6.620  0.00  0.00    -0.358 OA
HETATM   18  H   UNK N   1      35.028  17.903   5.822  0.00  0.00     0.217 HD
ENDBRANCH   4  17
TORSDOF 6
ENDMDL
MODEL 7
REMARK VINA RESULT:      -5.0     14.569     15.580
REMARK  6 active torsions:
REMARK  status: ('A' for Active; 'I' for Inactive)
REMARK    1  A    between atoms: C_2  and  C_3 
REMARK    2  A    between atoms: C_2  and  N_13 
REMARK    3  A    between atoms: C_3  and  C_4 
REMARK    4  A    between atoms: C_3  and  O_12 
REMARK    5  A    between atoms: C_6  and  O_11 
REMARK    6  A    between atoms: C_7  and  O_10 
ROOT
HETATM    1  C   UNK N   1      21.946  13.235   9.594  0.00  0.00    -0.025 A 
HETATM    2  C   UNK N   1      23.285  13.044   9.976  0.00  0.00     0.049 A 
HETATM    3  C   UNK N   1      23.599  12.403  11.179  0.00  0.00     0.099 A 
HETATM    4  C   UNK N   1      22.571  11.957  12.020  0.00  0.00     0.098 A 
HETATM    5  C   UNK N   1      21.239  12.145  11.651  0.00  0.00     0.040 A 
HETATM    6  C   UNK N   1      20.927  12.769  10.439  0.00  0.00     0.013 A 
ENDROOT
BRANCH   1   7
HETATM    7  C   UNK N   1      21.605  13.874   8.263  0.00  0.00     0.173 C 
BRANCH   7   8
HETATM    8  C   UNK N   1      22.162  13.120   7.046  0.00  0.00     0.103 C 
HETATM    9  C   UNK N   1      21.298  11.910   6.734  0.00  0.00     0.034 C 
BRANCH   8  10
HETATM   10  N   UNK N   1      22.166  13.981   5.875  0.00  0.00    -0.424 N 
HETATM   11  H   UNK N   1      22.739  14.823   5.833  0.00  0.00     0.150 HD
HETATM   12  H   UNK N   1      21.581  13.737   5.075  0.00  0.00     0.150 HD
ENDBRANCH   8  10
ENDBRANCH   7   8
BRANCH   7  13
HETATM   13  O   UNK N   1      20.218  14.017   8.134  0.00  0.00    -0.389 OA
HETATM   14  H   UNK N   1      19.713  13.416   7.564  0.00  0.00     0.210 HD
ENDBRANCH   7  13
ENDBRANCH   1   7
BRANCH   3  15
HETATM   15  O   UNK N   1      24.885  12.213  11.518  0.00  0.00    -0.358 OA
HETATM   16  H   UNK N   1      25.364  12.877  11.974  0.00  0.00     0.217 HD
ENDBRANCH   3  15
BRANCH   4  17
HETATM   17  O   UNK N   1      22.862  11.343  13.180  0.00  0.00    -0.358 OA
HETATM   18  H   UNK N   1      22.763  10.414  13.261  0.00  0.00     0.217 HD
ENDBRANCH   4  17
TORSDOF 6
ENDMDL
MODEL 8
REMARK VINA RESULT:      -4.9     11.507     12.411
REMARK  6 active torsions:
REMARK  status: ('A' for Active; 'I' for Inactive)
REMARK    1  A    between atoms: C_2  and  C_3 
REMARK    2  A    between atoms: C_2  and  N_13 
REMARK    3  A    between atoms: C_3  and  C_4 
REMARK    4  A    between atoms: C_3  and  O_12 
REMARK    5  A    between atoms: C_6  and  O_11 
REMARK    6  A    between atoms: C_7  and  O_10 
ROOT
HETATM    1  C   UNK N   1      30.945  17.290   7.397  0.00  0.00    -0.025 A 
HETATM    2  C   UNK N   1      30.966  17.924   8.651  0.00  0.00     0.049 A 
HETATM    3  C   UNK N   1      29.773  18.268   9.296  0.00  0.00     0.099 A 
HETATM    4  C   UNK N   1      28.544  17.990   8.683  0.00  0.00     0.098 A 
HETATM    5  C   UNK N   1      28.514  17.363   7.437  0.00  0.00     0.040 A 
HETATM    6  C   UNK N   1      29.707  17.003   6.802  0.00  0.00     0.013 A 
ENDROOT
BRANCH   1   7
HETATM    7  C   UNK N   1      32.235  16.862   6.726  0.00  0.00     0.173 C 
BRANCH   7   8
HETATM    8  C   UNK N   1      32.086  16.538   5.232  0.00  0.00     0.103 C 
HETATM    9  C   UNK N   1      32.759  17.609   4.391  0.00  0.00     0.034 C 
BRANCH   8  10
HETATM   10  N   UNK N   1      32.717  15.265   4.924  0.00  0.00    -0.424 N 
HETATM   11  H   UNK N   1      33.721  15.192   4.764  0.00  0.00     0.150 HD
HETATM   12  H   UNK N   1      32.142  14.425   4.867  0.00  0.00     0.150 HD
ENDBRANCH   8  10
ENDBRANCH   7   8
BRANCH   7  13
HETATM   13  O   UNK N   1      33.221  17.841   6.900  0.00  0.00    -0.389 OA
HETATM   14  H   UNK N   1      33.925  17.720   7.556  0.00  0.00     0.210 HD
ENDBRANCH   7  13
ENDBRANCH   1   7
BRANCH   3  15
HETATM   15  O   UNK N   1      29.812  18.857  10.503  0.00  0.00    -0.358 OA
HETATM   16  H   UNK N   1      29.338  19.648  10.666  0.00  0.00     0.217 HD
ENDBRANCH   3  15
BRANCH   4  17
HETATM   17  O   UNK N   1      27.392  18.319   9.292  0.00  0.00    -0.358 OA
HETATM   18  H   UNK N   1      26.871  19.028   8.968  0.00  0.00     0.217 HD
ENDBRANCH   4  17
TORSDOF 6
ENDMDL
MODEL 9
REMARK VINA RESULT:      -4.9     12.403     14.767
REMARK  6 active torsions:
REMARK  status: ('A' for Active; 'I' for Inactive)
REMARK    1  A    between atoms: C_2  and  C_3 
REMARK    2  A    between atoms: C_2  and  N_13 
REMARK    3  A    between atoms: C_3  and  C_4 
REMARK    4  A    between atoms: C_3  and  O_12 
REMARK    5  A    between atoms: C_6  and  O_11 
REMARK    6  A    between atoms: C_7  and  O_10 
ROOT
HETATM    1  C   UNK N   1      28.182  18.232   7.203  0.00  0.00    -0.025 A 
HETATM    2  C   UNK N   1      27.689  19.543   7.088  0.00  0.00     0.049 A 
HETATM    3  C   UNK N   1      27.581  20.157   5.836  0.00  0.00     0.099 A 
HETATM    4  C   UNK N   1      27.978  19.465   4.683  0.00  0.00     0.098 A 
HETATM    5  C   UNK N   1      28.472  18.164   4.788  0.00  0.00     0.040 A 
HETATM    6  C   UNK N   1      28.562  17.546   6.039  0.00  0.00     0.013 A 
ENDROOT
BRANCH   1   7
HETATM    7  C   UNK N   1      28.242  17.544   8.552  0.00  0.00     0.173 C 
BRANCH   7   8
HETATM    8  C   UNK N   1      29.663  17.399   9.118  0.00  0.00     0.103 C 
HETATM    9  C   UNK N   1      30.352  18.752   9.169  0.00  0.00     0.034 C 
BRANCH   8  10
HETATM   10  N   UNK N   1      29.618  16.870  10.471  0.00  0.00    -0.424 N 
HETATM   11  H   UNK N   1      29.632  17.484  11.285  0.00  0.00     0.150 HD
HETATM   12  H   UNK N   1      29.570  15.861  10.610  0.00  0.00     0.150 HD
ENDBRANCH   8  10
ENDBRANCH   7   8
BRANCH   7  13
HETATM   13  O   UNK N   1      27.434  18.217   9.477  0.00  0.00    -0.389 OA
HETATM   14  H   UNK N   1      27.342  17.885  10.383  0.00  0.00     0.210 HD
ENDBRANCH   7  13
ENDBRANCH   1   7
BRANCH   3  15
HETATM   15  O   UNK N   1      27.090  21.404   5.744  0.00  0.00    -0.358 OA
HETATM   16  H   UNK N   1      26.967  21.811   4.909  0.00  0.00     0.217 HD
ENDBRANCH   3  15
BRANCH   4  17
HETATM   17  O   UNK N   1      27.882  20.047   3.475  0.00  0.00    -0.358 OA
HETATM   18  H   UNK N   1      28.576  20.588   3.155  0.00  0.00     0.217 HD
ENDBRANCH   4  17
TORSDOF 6
ENDMDL
