REMARK WARNING: 32 MAX_TORS EXCEEDED!!!
REMARK  46 active torsions:
REMARK  status: ('A' for Active; 'I' for Inactive)
REMARK    1  A    between atoms: C_9  and  C_13 
REMARK    2  A    between atoms: C_12  and  N_11 
REMARK       I    between atoms: N_11  and  C_14 
REMARK    3  A    between atoms: C_12  and  C_13 
REMARK    4  A    between atoms: C_12  and  C_16 
REMARK       I    between atoms: N_15  and  C_16 
REMARK    5  A    between atoms: N_15  and  C_19 
REMARK    6  A    between atoms: C_18  and  C_19 
REMARK       I    between atoms: C_18  and  N_22 
REMARK    7  A    between atoms: C_19  and  C_32 
REMARK    8  A    between atoms: C_21  and  C_20 
REMARK    9  A    between atoms: C_20  and  C_81 
REMARK   10  A    between atoms: C_21  and  N_22 
REMARK   11  A    between atoms: C_21  and  C_24 
REMARK       I    between atoms: N_23  and  C_24 
REMARK   12  A    between atoms: N_23  and  C_27 
REMARK   13  A    between atoms: C_26  and  C_27 
REMARK       I    between atoms: C_26  and  N_30 
REMARK   14  A    between atoms: C_27  and  C_90 
REMARK   15  A    between atoms: C_29  and  C_28 
REMARK   16  A    between atoms: C_28  and  C_74 
REMARK   17  A    between atoms: C_29  and  N_30 
REMARK   18  A    between atoms: C_29  and  C_35 
REMARK   19  A    between atoms: C_32  and  C_56 
REMARK       I    between atoms: N_34  and  C_35 
REMARK   20  A    between atoms: N_34  and  C_38 
REMARK   21  A    between atoms: C_37  and  C_38 
REMARK       I    between atoms: C_37  and  N_41 
REMARK   22  A    between atoms: C_38  and  C_88 
REMARK   23  A    between atoms: C_40  and  C_39 
REMARK   24  A    between atoms: C_39  and  C_71 
REMARK   25  A    between atoms: C_40  and  N_41 
REMARK   26  A    between atoms: C_40  and  C_43 
REMARK       I    between atoms: N_42  and  C_43 
REMARK   27  A    between atoms: N_42  and  C_46 
REMARK   28  A    between atoms: C_45  and  C_46 
REMARK       I    between atoms: C_45  and  N_49 
REMARK   29  A    between atoms: C_46  and  C_92 
REMARK   30  A    between atoms: C_50  and  C_63 
REMARK       I    between atoms: C_63  and  N_65 
REMARK   31  A    between atoms: N_65  and  C_66 
REMARK   32  A    between atoms: C_66  and  C_67 
REMARK       I    between atoms: C_67  and  N_68 
REMARK   33  A    between atoms: C_77  and  O_80 
REMARK   34  A    between atoms: C_88  and  C_89 
REMARK   35  A    between atoms: C_89  and  C_94 
REMARK   36  A    between atoms: C_90  and  O_91 
REMARK   37  A    between atoms: C_92  and  C_93 
REMARK   38  A    between atoms: C_93  and  C_105 
REMARK   39  A    between atoms: C_94  and  C_95 
REMARK   40  A    between atoms: C_95  and  N_96 
REMARK       I    between atoms: C_98  and  N_99 
REMARK       I    between atoms: C_98  and  N_100 
REMARK   41  A    between atoms: N_99  and  C_101 
REMARK   42  A    between atoms: N_100  and  C_103 
REMARK   43  A    between atoms: C_105  and  C_106 
REMARK   44  A    between atoms: C_106  and  N_107 
REMARK       I    between atoms: C_109  and  N_110 
REMARK       I    between atoms: C_109  and  N_113 
REMARK   45  A    between atoms: N_110  and  C_111 
REMARK   46  A    between atoms: N_113  and  C_114 
ROOT
HETATM    1  N   UNK N   1       2.271   0.548  -0.308  0.00  0.00    -0.346 N 
HETATM    2  C   UNK N   1       1.416  -0.346   0.230  0.00  0.00     0.241 C 
HETATM    3  O   UNK N   1       1.100  -0.245   1.411  0.00  0.00    -0.271 OA
HETATM    4  H   UNK N   1       2.363   0.623  -1.286  0.00  0.00     0.163 HD
ENDROOT
BRANCH   2   5
HETATM    5  C   UNK N   1       0.843  -1.460  -0.607  0.00  0.00     0.180 C 
BRANCH   5   6
HETATM    6  C   UNK N   1       0.714  -2.712   0.275  0.00  0.00     0.073 C 
BRANCH   6   7
HETATM    7  C   UNK N   1       1.558  -3.901  -0.027  0.00  0.00    -0.056 A 
HETATM    8  C   UNK N   1       1.550  -4.949   0.897  0.00  0.00     0.010 A 
HETATM    9  C   UNK N   1       2.286  -6.109   0.658  0.00  0.00     0.037 A 
HETATM   10  C   UNK N   1       3.030  -6.230  -0.516  0.00  0.00     0.065 A 
HETATM   11  C   UNK N   1       3.040  -5.186  -1.449  0.00  0.00     0.037 A 
HETATM   12  C   UNK N   1       2.303  -4.020  -1.206  0.00  0.00     0.010 A 
BRANCH  10  13
HETATM   13  O   UNK N   1       3.732  -7.349  -0.750  0.00  0.00    -0.361 OA
HETATM   14  H   UNK N   1       3.300  -8.165  -0.913  0.00  0.00     0.217 HD
ENDBRANCH  10  13
ENDBRANCH   6   7
ENDBRANCH   5   6
BRANCH   5  15
HETATM   15  N   UNK N   1      -0.449  -0.993  -1.040  0.00  0.00    -0.346 N 
HETATM   16  C   UNK N   1      -1.417  -0.683  -0.144  0.00  0.00     0.243 C 
HETATM   17  O   UNK N   1      -1.354  -1.103   1.006  0.00  0.00    -0.271 OA
HETATM   18  H   UNK N   1      -0.631  -0.898  -2.002  0.00  0.00     0.163 HD
BRANCH  16  19
HETATM   19  C   UNK N   1      -2.451   0.333  -0.501  0.00  0.00     0.200 C 
BRANCH  19  20
HETATM   20  N   UNK N   1      -3.157   0.696   0.713  0.00  0.00    -0.344 N 
HETATM   21  C   UNK N   1      -4.061  -0.107   1.343  0.00  0.00     0.241 C 
HETATM   22  O   UNK N   1      -4.460   0.213   2.450  0.00  0.00    -0.271 OA
HETATM   23  H   UNK N   1      -2.971   1.578   1.108  0.00  0.00     0.163 HD
BRANCH  21  24
HETATM   24  C   UNK N   1      -4.604  -1.378   0.717  0.00  0.00     0.180 C 
BRANCH  24  25
HETATM   25  C   UNK N   1      -3.959  -2.602   1.406  0.00  0.00     0.074 C 
BRANCH  25  26
HETATM   26  C   UNK N   1      -3.423  -3.746   0.584  0.00  0.00    -0.040 A 
HETATM   27  C   UNK N   1      -3.511  -5.048   1.086  0.00  0.00     0.010 A 
HETATM   28  C   UNK N   1      -2.924  -6.108   0.390  0.00  0.00     0.018 A 
HETATM   29  C   UNK N   1      -2.242  -5.848  -0.800  0.00  0.00     0.087 A 
HETATM   30  N   UNK N   1      -2.150  -4.575  -1.269  0.00  0.00    -0.375 N 
HETATM   31  C   UNK N   1      -2.709  -3.531  -0.600  0.00  0.00     0.094 A 
ATOM     32  HN  UNK N   1      -1.651  -4.399  -2.141  1.00  0.00     0.164 HD
ENDBRANCH  25  26
ENDBRANCH  24  25
BRANCH  24  33
HETATM   33  N   UNK N   1      -4.528  -1.367  -0.734  0.00  0.00    -0.346 N 
HETATM   34  C   UNK N   1      -5.205  -0.494  -1.539  0.00  0.00     0.241 C 
HETATM   35  O   UNK N   1      -5.067  -0.581  -2.747  0.00  0.00    -0.271 OA
HETATM   36  H   UNK N   1      -3.950  -2.036  -1.168  0.00  0.00     0.163 HD
BRANCH  34  37
HETATM   37  C   UNK N   1      -6.222   0.493  -1.008  0.00  0.00     0.180 C 
BRANCH  37  38
HETATM   38  N   UNK N   1      -7.124  -0.232  -0.161  0.00  0.00    -0.346 N 
HETATM   39  C   UNK N   1      -8.230  -0.808  -0.669  0.00  0.00     0.241 C 
HETATM   40  O   UNK N   1      -8.600  -0.554  -1.806  0.00  0.00    -0.271 OA
HETATM   41  H   UNK N   1      -6.932  -0.311   0.801  0.00  0.00     0.163 HD
BRANCH  39  42
HETATM   42  C   UNK N   1      -8.849  -1.932   0.071  0.00  0.00     0.180 C 
BRANCH  42  43
HETATM   43  N   UNK N   1      -7.821  -2.852   0.490  0.00  0.00    -0.348 N 
HETATM   44  C   UNK N   1      -7.780  -4.124   0.038  0.00  0.00     0.214 C 
HETATM   45  C   UNK N   1      -6.666  -5.016   0.454  0.00  0.00     0.117 C 
HETATM   46  O   UNK N   1      -8.645  -4.548  -0.713  0.00  0.00    -0.274 OA
HETATM   47  H   UNK N   1      -7.131  -2.545   1.122  0.00  0.00     0.163 HD
ENDBRANCH  42  43
BRANCH  42  48
HETATM   48  C   UNK N   1      -9.706  -1.511   1.241  0.00  0.00     0.073 C 
BRANCH  48  49
HETATM   49  C   UNK N   1     -11.116  -1.738   0.826  0.00  0.00    -0.055 A 
HETATM   50  C   UNK N   1     -11.525  -3.016   0.409  0.00  0.00     0.008 A 
HETATM   51  C   UNK N   1     -12.825  -3.226  -0.049  0.00  0.00     0.013 A 
HETATM   52  C   UNK N   1     -13.726  -2.163  -0.084  0.00  0.00    -0.026 A 
HETATM   53  C   UNK N   1     -15.030  -2.366  -0.540  0.00  0.00     0.012 A 
HETATM   54  C   UNK N   1     -13.321  -0.877   0.348  0.00  0.00    -0.025 A 
HETATM   55  C   UNK N   1     -15.933  -1.299  -0.565  0.00  0.00     0.001 A 
HETATM   56  C   UNK N   1     -15.534  -0.029  -0.133  0.00  0.00     0.001 A 
HETATM   57  C   UNK N   1     -14.229   0.183   0.321  0.00  0.00     0.012 A 
HETATM   58  C   UNK N   1     -12.015  -0.671   0.795  0.00  0.00     0.019 A 
ENDBRANCH  48  49
ENDBRANCH  42  48
ENDBRANCH  39  42
ENDBRANCH  37  38
BRANCH  37  59
HETATM   59  C   UNK N   1      -5.696   1.755  -0.333  0.00  0.00     0.073 C 
BRANCH  59  60
HETATM   60  C   UNK N   1      -6.835   2.694  -0.123  0.00  0.00    -0.056 A 
HETATM   61  C   UNK N   1      -7.140   3.644  -1.103  0.00  0.00     0.009 A 
HETATM   62  C   UNK N   1      -8.268   4.456  -0.962  0.00  0.00     0.024 A 
HETATM   63  C   UNK N   1      -9.096   4.314   0.155  0.00  0.00     0.034 A 
HETATM   64  C   UNK N   1      -8.785   3.375   1.143  0.00  0.00     0.024 A 
HETATM   65 Cl   UNK N   1     -10.536   5.296   0.305  0.00  0.00    -0.084 Cl
HETATM   66  C   UNK N   1      -7.657   2.563   1.003  0.00  0.00     0.009 A 
ENDBRANCH  59  60
ENDBRANCH  37  59
ENDBRANCH  34  37
ENDBRANCH  24  33
ENDBRANCH  21  24
ENDBRANCH  19  20
BRANCH  19  67
HETATM   67  C   UNK N   1      -1.762   1.575  -1.051  0.00  0.00     0.199 C 
BRANCH  67  68
HETATM   68  O   UNK N   1      -1.163   1.322  -2.288  0.00  0.00    -0.398 OA
HETATM   69  H   UNK N   1      -1.108   0.874  -3.147  0.00  0.00     0.209 HD
ENDBRANCH  67  68
ENDBRANCH  19  67
ENDBRANCH  16  19
ENDBRANCH   5  15
ENDBRANCH   2   5
BRANCH   1  70
HETATM   70  C   UNK N   1       3.050   1.393   0.565  0.00  0.00     0.176 C 
BRANCH  70  71
HETATM   71  C   UNK N   1       3.925   0.456   1.370  0.00  0.00     0.241 C 
HETATM   72  O   UNK N   1       3.897   0.515   2.587  0.00  0.00    -0.271 OA
HETATM   73  N   UNK N   1       4.632  -0.539   0.763  0.00  0.00    -0.346 N 
HETATM   74  H   UNK N   1       5.107  -1.196   1.322  0.00  0.00     0.163 HD
BRANCH  73  75
HETATM   75  C   UNK N   1       4.707  -0.663  -0.682  0.00  0.00     0.177 C 
BRANCH  75  76
HETATM   76  C   UNK N   1       4.748  -2.092  -1.208  0.00  0.00     0.038 C 
BRANCH  76  77
HETATM   77  C   UNK N   1       5.852  -2.940  -0.612  0.00  0.00    -0.020 C 
HETATM   78  C   UNK N   1       5.428  -3.451   0.752  0.00  0.00     0.009 C 
HETATM   79  C   UNK N   1       6.090  -4.127  -1.522  0.00  0.00     0.009 C 
ENDBRANCH  76  77
ENDBRANCH  75  76
BRANCH  75  80
HETATM   80  C   UNK N   1       5.650   0.307  -1.353  0.00  0.00     0.241 C 
HETATM   81  N   UNK N   1       6.607   0.992  -0.670  0.00  0.00    -0.346 N 
HETATM   82  H   UNK N   1       7.098   1.697  -1.151  0.00  0.00     0.163 HD
HETATM   83  O   UNK N   1       5.495   0.535  -2.541  0.00  0.00    -0.271 OA
BRANCH  81  84
HETATM   84  C   UNK N   1       6.953   0.752   0.716  0.00  0.00     0.176 C 
BRANCH  84  85
HETATM   85  C   UNK N   1       7.798  -0.493   0.940  0.00  0.00     0.243 C 
HETATM   86  O   UNK N   1       7.849  -0.944   2.069  0.00  0.00    -0.271 OA
HETATM   87  N   UNK N   1       8.616  -1.000  -0.038  0.00  0.00    -0.337 N 
HETATM   88  C   UNK N   1       9.800  -1.730   0.341  0.00  0.00     0.179 C 
HETATM   89  C   UNK N   1       8.706  -0.432  -1.351  0.00  0.00     0.127 C 
HETATM   90  C   UNK N   1      10.867  -1.064  -0.512  0.00  0.00     0.037 C 
HETATM   91  C   UNK N   1      10.167  -0.470  -1.719  0.00  0.00     0.022 C 
BRANCH  88  92
HETATM   92  C   UNK N   1       9.735  -3.216   0.061  0.00  0.00     0.241 C 
HETATM   93  O   UNK N   1       8.676  -3.740  -0.232  0.00  0.00    -0.271 OA
HETATM   94  N   UNK N   1      10.855  -3.986   0.134  0.00  0.00    -0.346 N 
HETATM   95  H   UNK N   1      10.774  -4.955  -0.019  0.00  0.00     0.163 HD
BRANCH  94  96
HETATM   96  C   UNK N   1      12.163  -3.434   0.429  0.00  0.00     0.172 C 
HETATM   97  C   UNK N   1      12.281  -3.061   1.898  0.00  0.00     0.042 C 
BRANCH  96  98
HETATM   98  C   UNK N   1      13.277  -4.340   0.002  0.00  0.00     0.237 C 
HETATM   99  N   UNK N   1      14.550  -3.901   0.056  0.00  0.00    -0.368 N 
HETATM  100  H   UNK N   1      15.292  -4.546   0.097  0.00  0.00     0.159 HD
HETATM  101  H   UNK N   1      14.737  -2.934   0.056  0.00  0.00     0.159 HD
HETATM  102  O   UNK N   1      13.041  -5.457  -0.429  0.00  0.00    -0.271 OA
ENDBRANCH  96  98
ENDBRANCH  94  96
ENDBRANCH  88  92
ENDBRANCH  84  85
BRANCH  84 103
HETATM  103  C   UNK N   1       7.752   1.901   1.327  0.00  0.00     0.035 C 
BRANCH 103 104
HETATM  104  C   UNK N   1       7.294   3.285   0.907  0.00  0.00     0.004 C 
BRANCH 104 105
HETATM  105  C   UNK N   1       8.033   3.719  -0.353  0.00  0.00     0.020 C 
BRANCH 105 106
HETATM  106  C   UNK N   1       9.502   4.031  -0.083  0.00  0.00     0.138 C 
BRANCH 106 107
HETATM  107  N   UNK N   1      10.293   2.822  -0.073  0.00  0.00    -0.227 N 
HETATM  108  C   UNK N   1      11.588   2.767  -0.003  0.00  0.00     0.669 C 
HETATM  109  N   UNK N   1      12.206   1.492  -0.011  0.00  0.00    -0.227 N 
HETATM  110  N   UNK N   1      12.422   3.930   0.058  0.00  0.00    -0.227 N 
HETATM  111  H   UNK N   1      11.641   0.686  -0.039  0.00  0.00     0.177 HD
HETATM  112  H   UNK N   1      13.394   3.778   0.111  0.00  0.00     0.177 HD
ATOM    113  HN  UNK N   1       9.791   1.935  -0.127  1.00  0.00     0.177 HD
BRANCH 109 114
HETATM  114  C   UNK N   1      13.638   1.341   0.021  0.00  0.00     0.133 C 
HETATM  115  C   UNK N   1      13.999  -0.127  -0.083  0.00  0.00     0.027 C 
ENDBRANCH 109 114
BRANCH 110 116
HETATM  116  C   UNK N   1      11.977   5.298   0.050  0.00  0.00     0.133 C 
HETATM  117  C   UNK N   1      13.181   6.215   0.073  0.00  0.00     0.027 C 
ENDBRANCH 110 116
ENDBRANCH 106 107
ENDBRANCH 105 106
ENDBRANCH 104 105
ENDBRANCH 103 104
ENDBRANCH  84 103
ENDBRANCH  81  84
ENDBRANCH  75  80
ENDBRANCH  73  75
ENDBRANCH  70  71
BRANCH  70 118
HETATM  118  C   UNK N   1       3.862   2.394  -0.242  0.00  0.00     0.035 C 
BRANCH 118 119
HETATM  119  C   UNK N   1       3.603   3.809   0.235  0.00  0.00     0.004 C 
BRANCH 119 120
HETATM  120  C   UNK N   1       2.229   4.245  -0.223  0.00  0.00     0.020 C 
BRANCH 120 121
HETATM  121  C   UNK N   1       1.398   4.621   0.982  0.00  0.00     0.138 C 
BRANCH 121 122
HETATM  122  N   UNK N   1       0.108   3.981   0.901  0.00  0.00    -0.227 N 
HETATM  123  C   UNK N   1      -0.949   4.622   0.542  0.00  0.00     0.669 C 
HETATM  124  N   UNK N   1      -2.193   3.934   0.531  0.00  0.00    -0.227 N 
HETATM  125  N   UNK N   1      -0.857   5.999   0.176  0.00  0.00    -0.227 N 
HETATM  126  H   UNK N   1      -2.279   3.108   1.061  0.00  0.00     0.177 HD
HETATM  127  H   UNK N   1      -0.012   6.335  -0.203  0.00  0.00     0.177 HD
ATOM    128  HN  UNK N   1       0.031   2.992   1.135  1.00  0.00     0.177 HD
BRANCH 124 129
HETATM  129  C   UNK N   1      -3.334   4.391  -0.220  0.00  0.00     0.133 C 
HETATM  130  C   UNK N   1      -4.442   4.795   0.726  0.00  0.00     0.027 C 
ENDBRANCH 124 129
BRANCH 125 131
HETATM  131  C   UNK N   1      -1.956   6.915   0.341  0.00  0.00     0.133 C 
HETATM  132  C   UNK N   1      -2.466   7.388  -1.003  0.00  0.00     0.027 C 
ENDBRANCH 125 131
ENDBRANCH 121 122
ENDBRANCH 120 121
ENDBRANCH 119 120
ENDBRANCH 118 119
ENDBRANCH  70 118
ENDBRANCH   1  70
TORSDOF 46
