REMARK WARNING: 32 MAX_TORS EXCEEDED!!!
REMARK  42 active torsions:
REMARK  status: ('A' for Active; 'I' for Inactive)
REMARK       I    between atoms: C_3  and  N_1 
REMARK    1  A    between atoms: C_34  and  C_3 
REMARK    2  A    between atoms: C_9  and  C_5 
REMARK       I    between atoms: N_27  and  C_5 
REMARK       I    between atoms: C_8  and  N_20 
REMARK    3  A    between atoms: C_19  and  C_8 
REMARK    4  A    between atoms: C_10  and  C_17 
REMARK       I    between atoms: C_11  and  N_18 
REMARK    5  A    between atoms: C_31  and  C_11 
REMARK       I    between atoms: C_12  and  N_25 
REMARK    6  A    between atoms: C_32  and  C_12 
REMARK       I    between atoms: C_13  and  N_23 
REMARK    7  A    between atoms: C_29  and  C_13 
REMARK       I    between atoms: C_14  and  N_22 
REMARK    8  A    between atoms: C_30  and  C_14 
REMARK       I    between atoms: C_15  and  N_21 
REMARK    9  A    between atoms: C_28  and  C_15 
REMARK       I    between atoms: C_16  and  N_24 
REMARK   10  A    between atoms: C_35  and  C_16 
REMARK       I    between atoms: C_17  and  N_38 
REMARK   11  A    between atoms: C_19  and  N_18 
REMARK   12  A    between atoms: C_19  and  C_83 
REMARK   13  A    between atoms: C_28  and  N_20 
REMARK   14  A    between atoms: C_29  and  N_21 
REMARK   15  A    between atoms: C_31  and  N_22 
REMARK   16  A    between atoms: C_32  and  N_23 
REMARK   17  A    between atoms: C_30  and  N_24 
REMARK   18  A    between atoms: C_34  and  N_25 
REMARK   19  A    between atoms: C_40  and  N_27 
REMARK   20  A    between atoms: C_28  and  C_58 
REMARK   21  A    between atoms: C_29  and  C_57 
REMARK   22  A    between atoms: C_30  and  C_56 
REMARK   23  A    between atoms: C_31  and  C_60 
REMARK   24  A    between atoms: C_32  and  C_64 
REMARK       I    between atoms: C_33  and  N_41 
REMARK       I    between atoms: N_70  and  C_33 
REMARK   25  A    between atoms: C_34  and  C_100 
REMARK   26  A    between atoms: C_35  and  N_37 
REMARK   27  A    between atoms: C_35  and  C_45 
REMARK   28  A    between atoms: C_36  and  C_40 
REMARK       I    between atoms: N_72  and  C_36 
REMARK       I    between atoms: C_39  and  N_37 
REMARK   29  A    between atoms: N_38  and  C_69 
REMARK   30  A    between atoms: N_41  and  C_74 
REMARK   31  A    between atoms: C_59  and  C_45 
REMARK   32  A    between atoms: C_77  and  C_56 
REMARK   33  A    between atoms: C_76  and  C_57 
REMARK   34  A    between atoms: C_75  and  C_58 
REMARK   35  A    between atoms: C_80  and  C_60 
REMARK   36  A    between atoms: C_101  and  C_64 
REMARK   37  A    between atoms: N_81  and  C_107 
REMARK   38  A    between atoms: C_104  and  N_81 
REMARK   39  A    between atoms: O_97  and  C_83 
REMARK   40  A    between atoms: C_110  and  C_100 
REMARK   41  A    between atoms: C_107  and  C_111 
REMARK   42  A    between atoms: C_111  and  C_110 
ROOT
HETATM    1  C   UNK N   1      -1.664  -1.269  -0.852  0.00  0.00     0.180 C 
ENDROOT
BRANCH   1   2
HETATM    2  N   UNK N   1      -1.785  -1.156   0.588  0.00  0.00    -0.346 N 
HETATM    3  C   UNK N   1      -2.513  -1.968   1.387  0.00  0.00     0.243 C 
HETATM    4  O   UNK N   1      -2.433  -1.838   2.597  0.00  0.00    -0.271 OA
HETATM    5  H   UNK N   1      -1.295  -0.421   1.024  0.00  0.00     0.163 HD
BRANCH   3   6
HETATM    6  C   UNK N   1      -3.490  -2.935   0.826  0.00  0.00     0.200 C 
BRANCH   6   7
HETATM    7  N   UNK N   1      -4.515  -2.114   0.260  0.00  0.00    -0.344 N 
HETATM    8  C   UNK N   1      -4.720  -1.722  -1.020  0.00  0.00     0.241 C 
HETATM    9  O   UNK N   1      -4.124  -2.240  -1.952  0.00  0.00    -0.271 OA
HETATM   10  H   UNK N   1      -5.180  -1.781   0.905  0.00  0.00     0.163 HD
BRANCH   8  11
HETATM   11  C   UNK N   1      -5.684  -0.587  -1.249  0.00  0.00     0.180 C 
BRANCH  11  12
HETATM   12  N   UNK N   1      -6.165  -0.110   0.037  0.00  0.00    -0.346 N 
HETATM   13  C   UNK N   1      -6.937  -0.853   0.860  0.00  0.00     0.241 C 
HETATM   14  O   UNK N   1      -7.284  -0.394   1.937  0.00  0.00    -0.271 OA
HETATM   15  H   UNK N   1      -5.917   0.799   0.322  0.00  0.00     0.163 HD
BRANCH  13  16
HETATM   16  C   UNK N   1      -7.531  -2.124   0.356  0.00  0.00     0.180 C 
BRANCH  16  17
HETATM   17  N   UNK N   1      -8.782  -1.693  -0.198  0.00  0.00    -0.346 N 
HETATM   18  C   UNK N   1     -10.031  -2.044   0.144  0.00  0.00     0.241 C 
HETATM   19  O   UNK N   1     -10.251  -3.018   0.849  0.00  0.00    -0.271 OA
HETATM   20  H   UNK N   1      -8.715  -1.045  -0.936  0.00  0.00     0.163 HD
BRANCH  18  21
HETATM   21  C   UNK N   1     -11.124  -1.099  -0.247  0.00  0.00     0.180 C 
BRANCH  21  22
HETATM   22  N   UNK N   1     -12.414  -1.684   0.035  0.00  0.00    -0.348 N 
HETATM   23  C   UNK N   1     -13.575  -1.030  -0.208  0.00  0.00     0.214 C 
HETATM   24  O   UNK N   1     -13.572   0.098  -0.680  0.00  0.00    -0.274 OA
HETATM   25  C   UNK N   1     -14.867  -1.687   0.117  0.00  0.00     0.117 C 
HETATM   26  H   UNK N   1     -12.450  -2.591   0.418  0.00  0.00     0.163 HD
ENDBRANCH  21  22
BRANCH  21  27
HETATM   27  C   UNK N   1     -10.965   0.175   0.608  0.00  0.00     0.073 C 
BRANCH  27  28
HETATM   28  C   UNK N   1     -10.088   1.300   0.122  0.00  0.00    -0.055 A 
HETATM   29  C   UNK N   1     -10.365   2.583   0.606  0.00  0.00     0.019 A 
HETATM   30  C   UNK N   1      -9.573   3.670   0.236  0.00  0.00    -0.025 A 
HETATM   31  C   UNK N   1      -9.869   4.947   0.719  0.00  0.00     0.012 A 
HETATM   32  C   UNK N   1      -8.470   3.478  -0.624  0.00  0.00    -0.026 A 
HETATM   33  C   UNK N   1      -9.071   6.035   0.352  0.00  0.00     0.001 A 
HETATM   34  C   UNK N   1      -7.973   5.846  -0.495  0.00  0.00     0.001 A 
HETATM   35  C   UNK N   1      -7.672   4.569  -0.984  0.00  0.00     0.012 A 
HETATM   36  C   UNK N   1      -8.189   2.198  -1.112  0.00  0.00     0.013 A 
HETATM   37  C   UNK N   1      -8.998   1.114  -0.743  0.00  0.00     0.008 A 
ENDBRANCH  27  28
ENDBRANCH  21  27
ENDBRANCH  18  21
ENDBRANCH  16  17
BRANCH  16  38
HETATM   38  C   UNK N   1      -7.572  -3.214   1.430  0.00  0.00     0.073 C 
BRANCH  38  39
HETATM   39  C   UNK N   1      -7.067  -4.501   0.866  0.00  0.00    -0.056 A 
HETATM   40  C   UNK N   1      -7.757  -5.139  -0.172  0.00  0.00     0.009 A 
HETATM   41  C   UNK N   1      -7.261  -6.326  -0.718  0.00  0.00     0.024 A 
HETATM   42  C   UNK N   1      -6.072  -6.876  -0.231  0.00  0.00     0.034 A 
HETATM   43  C   UNK N   1      -5.386  -6.247   0.812  0.00  0.00     0.024 A 
HETATM   44 Cl   UNK N   1      -5.441  -8.350  -0.933  0.00  0.00    -0.084 Cl
HETATM   45  C   UNK N   1      -5.884  -5.062   1.361  0.00  0.00     0.009 A 
ENDBRANCH  38  39
ENDBRANCH  16  38
ENDBRANCH  13  16
ENDBRANCH  11  12
BRANCH  11  46
HETATM   46  C   UNK N   1      -5.049   0.558  -2.073  0.00  0.00     0.074 C 
BRANCH  46  47
HETATM   47  C   UNK N   1      -4.592   1.850  -1.416  0.00  0.00    -0.040 A 
HETATM   48  C   UNK N   1      -4.672   2.089  -0.035  0.00  0.00     0.094 A 
HETATM   49  N   UNK N   1      -4.283   3.283   0.488  0.00  0.00    -0.375 N 
HETATM   50  C   UNK N   1      -3.804   4.278  -0.303  0.00  0.00     0.087 A 
ATOM     51  HN  UNK N   1      -4.353   3.434   1.494  1.00  0.00     0.164 HD
HETATM   52  C   UNK N   1      -3.700   4.086  -1.681  0.00  0.00     0.018 A 
HETATM   53  C   UNK N   1      -4.098   2.868  -2.235  0.00  0.00     0.010 A 
ENDBRANCH  46  47
ENDBRANCH  11  46
ENDBRANCH   8  11
ENDBRANCH   6   7
BRANCH   6  54
HETATM   54  C   UNK N   1      -2.903  -4.001  -0.086  0.00  0.00     0.199 C 
BRANCH  54  55
HETATM   55  O   UNK N   1      -2.184  -4.914   0.684  0.00  0.00    -0.398 OA
HETATM   56  H   UNK N   1      -2.484  -5.665   1.220  0.00  0.00     0.209 HD
ENDBRANCH  54  55
ENDBRANCH   6  54
ENDBRANCH   3   6
ENDBRANCH   1   2
BRANCH   1  57
HETATM   57  C   UNK N   1      -0.388  -1.956  -1.229  0.00  0.00     0.241 C 
HETATM   58  N   UNK N   1       0.639  -2.117  -0.358  0.00  0.00    -0.346 N 
HETATM   59  H   UNK N   1       1.401  -2.663  -0.659  0.00  0.00     0.163 HD
HETATM   60  O   UNK N   1      -0.277  -2.397  -2.362  0.00  0.00    -0.271 OA
BRANCH  58  61
HETATM   61  C   UNK N   1       0.715  -1.553   0.986  0.00  0.00     0.180 C 
BRANCH  61  62
HETATM   62  C   UNK N   1       1.925  -0.701   1.030  0.00  0.00     0.241 C 
HETATM   63  N   UNK N   1       2.113   0.159  -0.001  0.00  0.00    -0.346 N 
HETATM   64  H   UNK N   1       1.336   0.612  -0.402  0.00  0.00     0.163 HD
HETATM   65  O   UNK N   1       2.826  -0.938   1.824  0.00  0.00    -0.271 OA
BRANCH  63  66
HETATM   66  C   UNK N   1       3.429   0.421  -0.517  0.00  0.00     0.177 C 
BRANCH  66  67
HETATM   67  C   UNK N   1       3.894  -0.928  -1.085  0.00  0.00     0.241 C 
HETATM   68  N   UNK N   1       5.027  -1.571  -0.713  0.00  0.00    -0.346 N 
HETATM   69  H   UNK N   1       5.132  -2.511  -0.988  0.00  0.00     0.163 HD
HETATM   70  O   UNK N   1       3.160  -1.485  -1.887  0.00  0.00    -0.271 OA
BRANCH  68  71
HETATM   71  C   UNK N   1       6.087  -0.978   0.055  0.00  0.00     0.176 C 
BRANCH  71  72
HETATM   72  C   UNK N   1       6.921  -0.114  -0.886  0.00  0.00     0.243 C 
HETATM   73  N   UNK N   1       8.251   0.121  -0.721  0.00  0.00    -0.337 N 
HETATM   74  C   UNK N   1       9.011  -0.285   0.424  0.00  0.00     0.179 C 
HETATM   75  C   UNK N   1       8.927   1.093  -1.536  0.00  0.00     0.127 C 
HETATM   76  C   UNK N   1       9.739   1.006   0.755  0.00  0.00     0.037 C 
HETATM   77  C   UNK N   1       9.991   1.665  -0.610  0.00  0.00     0.022 C 
HETATM   78  O   UNK N   1       6.342   0.430  -1.819  0.00  0.00    -0.271 OA
BRANCH  74  79
HETATM   79  C   UNK N   1      10.073  -1.286   0.039  0.00  0.00     0.241 C 
HETATM   80  N   UNK N   1      10.998  -1.643   0.967  0.00  0.00    -0.346 N 
HETATM   81  H   UNK N   1      10.798  -1.469   1.915  0.00  0.00     0.163 HD
HETATM   82  O   UNK N   1      10.166  -1.680  -1.118  0.00  0.00    -0.271 OA
BRANCH  80  83
HETATM   83  C   UNK N   1      12.263  -2.266   0.637  0.00  0.00     0.172 C 
HETATM   84  C   UNK N   1      12.080  -3.571  -0.133  0.00  0.00     0.042 C 
BRANCH  83  85
HETATM   85  C   UNK N   1      13.124  -1.248  -0.070  0.00  0.00     0.237 C 
HETATM   86  O   UNK N   1      13.383  -0.193   0.488  0.00  0.00    -0.271 OA
HETATM   87  N   UNK N   1      13.578  -1.465  -1.321  0.00  0.00    -0.368 N 
HETATM   88  H   UNK N   1      13.607  -1.831  -2.235  0.00  0.00     0.159 HD
HETATM   89  H   UNK N   1      14.390  -0.908  -1.321  0.00  0.00     0.159 HD
ENDBRANCH  83  85
ENDBRANCH  80  83
ENDBRANCH  74  79
ENDBRANCH  71  72
BRANCH  71  90
HETATM   90  C   UNK N   1       6.802  -2.051   0.872  0.00  0.00     0.035 C 
BRANCH  90  91
HETATM   91  C   UNK N   1       7.336  -3.145  -0.028  0.00  0.00     0.004 C 
BRANCH  91  92
HETATM   92  C   UNK N   1       8.107  -4.156   0.788  0.00  0.00     0.019 C 
BRANCH  92  93
HETATM   93  C   UNK N   1       8.601  -5.263  -0.126  0.00  0.00     0.114 C 
BRANCH  93  94
HETATM   94  N   UNK N   1       7.475  -5.998  -0.687  0.00  0.00    -0.418 N 
HETATM   95  H   UNK N   1       6.954  -5.750  -1.528  0.00  0.00     0.153 HD
BRANCH  94  96
HETATM   96  C   UNK N   1       7.227  -7.148   0.167  0.00  0.00     0.068 C 
HETATM   97  C   UNK N   1       6.680  -8.280  -0.671  0.00  0.00     0.031 C 
HETATM   98  C   UNK N   1       6.225  -6.790   1.249  0.00  0.00     0.031 C 
ENDBRANCH  94  96
ENDBRANCH  93  94
ENDBRANCH  92  93
ENDBRANCH  91  92
ENDBRANCH  90  91
ENDBRANCH  71  90
ENDBRANCH  68  71
ENDBRANCH  66  67
BRANCH  66  99
HETATM   99  C   UNK N   1       4.289   1.104   0.547  0.00  0.00     0.038 C 
BRANCH  99 100
HETATM  100  C   UNK N   1       3.929   2.567   0.673  0.00  0.00    -0.020 C 
HETATM  101  C   UNK N   1       3.792   2.930   2.137  0.00  0.00     0.009 C 
HETATM  102  C   UNK N   1       5.049   3.379   0.060  0.00  0.00     0.009 C 
ENDBRANCH  99 100
ENDBRANCH  66  99
ENDBRANCH  63  66
ENDBRANCH  61  62
BRANCH  61 103
HETATM  103  C   UNK N   1       0.715  -2.678   2.031  0.00  0.00     0.073 C 
BRANCH 103 104
HETATM  104  C   UNK N   1       1.467  -3.862   1.522  0.00  0.00    -0.056 A 
HETATM  105  C   UNK N   1       2.842  -3.784   1.274  0.00  0.00     0.009 A 
HETATM  106  C   UNK N   1       3.505  -4.852   0.672  0.00  0.00     0.030 A 
HETATM  107  C   UNK N   1       2.799  -6.004   0.315  0.00  0.00     0.036 A 
HETATM  108  C   UNK N   1       1.418  -6.071   0.561  0.00  0.00     0.030 A 
HETATM  109  C   UNK N   1       0.756  -5.002   1.156  0.00  0.00     0.009 A 
BRANCH 107 110
HETATM  110  N   UNK N   1       3.501  -7.078  -0.297  0.00  0.00    -0.309 N 
HETATM  111  C   UNK N   1       3.020  -8.339  -0.458  0.00  0.00     0.318 C 
HETATM  112  O   UNK N   1       1.930  -8.663  -0.011  0.00  0.00    -0.247 OA
HETATM  113  N   UNK N   1       3.771  -9.258  -1.092  0.00  0.00    -0.352 N 
HETATM  114  H   UNK N   1       3.463 -10.070  -1.555  0.00  0.00     0.160 HD
HETATM  115  H   UNK N   1       4.742  -9.099  -1.092  0.00  0.00     0.160 HD
HETATM  116  H   UNK N   1       4.408  -6.894  -0.632  0.00  0.00     0.170 HD
ENDBRANCH 107 110
ENDBRANCH 103 104
ENDBRANCH  61 103
ENDBRANCH  58  61
ENDBRANCH   1  57
BRANCH   1 117
HETATM  117  C   UNK N   1      -1.767   0.081  -1.584  0.00  0.00     0.073 C 
BRANCH 117 118
HETATM  118  C   UNK N   1      -1.146   1.213  -0.828  0.00  0.00    -0.056 A 
HETATM  119  C   UNK N   1      -0.123   2.008  -1.367  0.00  0.00     0.009 A 
HETATM  120  C   UNK N   1       0.358   3.103  -0.625  0.00  0.00     0.030 A 
HETATM  121  C   UNK N   1      -0.171   3.371   0.656  0.00  0.00     0.034 A 
HETATM  122  C   UNK N   1      -1.153   2.550   1.175  0.00  0.00     0.030 A 
HETATM  123  C   UNK N   1      -1.647   1.504   0.436  0.00  0.00     0.009 A 
BRANCH 121 124
HETATM  124  N   UNK N   1       0.155   4.507   1.431  0.00  0.00    -0.325 N 
HETATM  125  C   UNK N   1       0.447   5.745   0.976  0.00  0.00     0.245 C 
HETATM  126  O   UNK N   1       0.558   6.647   1.792  0.00  0.00    -0.271 OA
HETATM  127  H   UNK N   1       0.171   4.383   2.407  0.00  0.00     0.169 HD
BRANCH 125 128
HETATM  128  C   UNK N   1       0.546   6.065  -0.501  0.00  0.00     0.187 C 
HETATM  129  N   UNK N   1       0.366   7.491  -0.716  0.00  0.00    -0.329 N 
HETATM  130  C   UNK N   1       1.383   8.365  -0.482  0.00  0.00     0.323 C 
HETATM  131  H   UNK N   1      -0.502   7.829  -1.034  0.00  0.00     0.165 HD
HETATM  132  O   UNK N   1       1.165   9.562  -0.486  0.00  0.00    -0.247 OA
HETATM  133  N   UNK N   1       2.635   7.903  -0.220  0.00  0.00    -0.279 N 
HETATM  134  C   UNK N   1       2.941   6.590  -0.371  0.00  0.00     0.228 C 
HETATM  135  H   UNK N   1       3.330   8.531   0.085  0.00  0.00     0.173 HD
HETATM  136  C   UNK N   1       1.935   5.656  -0.989  0.00  0.00     0.138 C 
HETATM  137  O   UNK N   1       4.030   6.171  -0.021  0.00  0.00    -0.273 OA
ENDBRANCH 125 128
ENDBRANCH 121 124
ENDBRANCH 117 118
ENDBRANCH   1 117
TORSDOF 42
