REMARK  6 active torsions:
REMARK  status: ('A' for Active; 'I' for Inactive)
REMARK    1  A    between atoms: C_6  and  C_7 
REMARK    2  A    between atoms: C_7  and  S_8 
REMARK    3  A    between atoms: S_8  and  C_9 
REMARK    4  A    between atoms: C_9  and  C_10 
REMARK    5  A    between atoms: C_9  and  C_17 
REMARK    6  A    between atoms: C_10  and  N_11 
ROOT
HETATM    1  C   UNK N   1       1.441  -1.273  -0.093  0.00  0.00     0.100 C 
ENDROOT
BRANCH   1   2
HETATM    2  S   UNK N   1       0.189  -2.025   1.006  0.00  0.00    -0.153 SA
BRANCH   2   3
HETATM    3  C   UNK N   1      -0.736  -2.549  -0.473  0.00  0.00     0.113 C 
BRANCH   3   4
HETATM    4  C   UNK N   1      -1.845  -3.491  -0.181  0.00  0.00    -0.049 A 
HETATM    5  C   UNK N   1      -3.165  -3.039  -0.263  0.00  0.00     0.009 A 
HETATM    6  C   UNK N   1      -4.224  -3.930  -0.073  0.00  0.00     0.024 A 
HETATM    7  C   UNK N   1      -3.963  -5.278   0.185  0.00  0.00     0.034 A 
HETATM    8  C   UNK N   1      -2.642  -5.734   0.262  0.00  0.00     0.024 A 
HETATM    9 Cl   UNK N   1      -5.290  -6.398   0.396  0.00  0.00    -0.084 Cl
HETATM   10  C   UNK N   1      -1.582  -4.840   0.077  0.00  0.00     0.009 A 
ENDBRANCH   3   4
ENDBRANCH   2   3
ENDBRANCH   1   2
BRANCH   1  11
HETATM   11  C   UNK N   1       2.827  -1.911   0.149  0.00  0.00     0.149 C 
BRANCH  11  12
HETATM   12  N   UNK N   1       2.916  -3.358  -0.049  0.00  0.00    -0.350 N 
HETATM   13  C   UNK N   1       4.034  -4.074   0.150  0.00  0.00     0.108 A 
HETATM   14  C   UNK N   1       3.739  -5.396  -0.114  0.00  0.00     0.106 A 
HETATM   15  N   UNK N   1       2.441  -5.483  -0.474  0.00  0.00    -0.361 N 
HETATM   16  C   UNK N   1       1.961  -4.225  -0.429  0.00  0.00     0.182 A 
ATOM     17  HN  UNK N   1       1.928  -6.327  -0.727  1.00  0.00     0.166 HD
ENDBRANCH  11  12
ENDBRANCH   1  11
BRANCH   1  18
HETATM   18  C   UNK N   1       1.486   0.255  -0.003  0.00  0.00    -0.021 A 
HETATM   19  C   UNK N   1       0.344   1.080  -0.208  0.00  0.00     0.043 A 
HETATM   20  C   UNK N   1       0.468   2.472  -0.145  0.00  0.00     0.048 A 
HETATM   21 Cl   UNK N   1      -1.259   0.457  -0.556  0.00  0.00    -0.084 Cl
HETATM   22  C   UNK N   1       1.701   3.068   0.108  0.00  0.00     0.035 A 
HETATM   23  C   UNK N   1       2.827   2.276   0.308  0.00  0.00     0.024 A 
HETATM   24 Cl   UNK N   1       1.832   4.812   0.164  0.00  0.00    -0.084 Cl
HETATM   25  C   UNK N   1       2.720   0.886   0.254  0.00  0.00     0.012 A 
ENDBRANCH   1  18
TORSDOF 6
