MODEL 1
REMARK VINA RESULT:      -2.9      0.000      0.000
REMARK  19 active torsions:
REMARK  status: ('A' for Active; 'I' for Inactive)
REMARK    1  A    between atoms: C_1  and  C_2 
REMARK    2  A    between atoms: C_1  and  C_3 
REMARK    3  A    between atoms: C_2  and  C_4 
REMARK    4  A    between atoms: C_3  and  C_5 
REMARK    5  A    between atoms: C_5  and  C_7 
REMARK    6  A    between atoms: C_6  and  C_8 
REMARK    7  A    between atoms: C_7  and  C_9 
REMARK    8  A    between atoms: C_8  and  C_10 
REMARK    9  A    between atoms: C_9  and  C_11 
REMARK   10  A    between atoms: C_10  and  C_12 
REMARK   11  A    between atoms: C_11  and  C_13 
REMARK   12  A    between atoms: C_12  and  C_14 
REMARK   13  A    between atoms: C_13  and  O_15 
REMARK   14  A    between atoms: C_14  and  C_17 
REMARK   15  A    between atoms: C_17  and  C_18 
REMARK   16  A    between atoms: C_18  and  C_19 
REMARK   17  A    between atoms: O_21  and  C_22 
REMARK   18  A    between atoms: C_22  and  C_23 
REMARK   19  A    between atoms: C_23  and  N_24 
ROOT
HETATM    1  C   UNK N   1      17.109  27.062   8.758  0.00  0.00     0.137 C 
ENDROOT
BRANCH   1   2
HETATM    2  C   UNK N   1      18.369  26.476   9.357  0.00  0.00     0.183 C 
BRANCH   2   3
HETATM    3  O   UNK N   1      18.068  25.840  10.559  0.00  0.00    -0.399 OA
HETATM    4  H   UNK N   1      18.436  24.963  10.749  0.00  0.00     0.209 HD
ENDBRANCH   2   3
ENDBRANCH   1   2
BRANCH   1   5
HETATM    5  N   UNK N   1      17.066  26.766   7.338  0.00  0.00    -0.428 N 
HETATM    6  H   UNK N   1      17.811  27.097   6.725  0.00  0.00     0.149 HD
HETATM    7  H   UNK N   1      16.291  26.227   6.953  0.00  0.00     0.149 HD
ENDBRANCH   1   5
TORSDOF 19
ENDMDL
MODEL 2
REMARK VINA RESULT:      -2.8      9.768      9.851
REMARK  19 active torsions:
REMARK  status: ('A' for Active; 'I' for Inactive)
REMARK    1  A    between atoms: C_1  and  C_2 
REMARK    2  A    between atoms: C_1  and  C_3 
REMARK    3  A    between atoms: C_2  and  C_4 
REMARK    4  A    between atoms: C_3  and  C_5 
REMARK    5  A    between atoms: C_5  and  C_7 
REMARK    6  A    between atoms: C_6  and  C_8 
REMARK    7  A    between atoms: C_7  and  C_9 
REMARK    8  A    between atoms: C_8  and  C_10 
REMARK    9  A    between atoms: C_9  and  C_11 
REMARK   10  A    between atoms: C_10  and  C_12 
REMARK   11  A    between atoms: C_11  and  C_13 
REMARK   12  A    between atoms: C_12  and  C_14 
REMARK   13  A    between atoms: C_13  and  O_15 
REMARK   14  A    between atoms: C_14  and  C_17 
REMARK   15  A    between atoms: C_17  and  C_18 
REMARK   16  A    between atoms: C_18  and  C_19 
REMARK   17  A    between atoms: O_21  and  C_22 
REMARK   18  A    between atoms: C_22  and  C_23 
REMARK   19  A    between atoms: C_23  and  N_24 
ROOT
HETATM    1  C   UNK N   1      20.848  20.023   1.365  0.00  0.00     0.137 C 
ENDROOT
BRANCH   1   2
HETATM    2  C   UNK N   1      20.862  20.694   2.721  0.00  0.00     0.183 C 
BRANCH   2   3
HETATM    3  O   UNK N   1      21.832  21.693   2.741  0.00  0.00    -0.399 OA
HETATM    4  H   UNK N   1      22.723  21.513   2.403  0.00  0.00     0.209 HD
ENDBRANCH   2   3
ENDBRANCH   1   2
BRANCH   1   5
HETATM    5  N   UNK N   1      20.475  20.991   0.351  0.00  0.00    -0.428 N 
HETATM    6  H   UNK N   1      20.850  21.939   0.388  0.00  0.00     0.149 HD
HETATM    7  H   UNK N   1      19.838  20.724  -0.400  0.00  0.00     0.149 HD
ENDBRANCH   1   5
TORSDOF 19
ENDMDL
MODEL 3
REMARK VINA RESULT:      -2.7     10.634     10.720
REMARK  19 active torsions:
REMARK  status: ('A' for Active; 'I' for Inactive)
REMARK    1  A    between atoms: C_1  and  C_2 
REMARK    2  A    between atoms: C_1  and  C_3 
REMARK    3  A    between atoms: C_2  and  C_4 
REMARK    4  A    between atoms: C_3  and  C_5 
REMARK    5  A    between atoms: C_5  and  C_7 
REMARK    6  A    between atoms: C_6  and  C_8 
REMARK    7  A    between atoms: C_7  and  C_9 
REMARK    8  A    between atoms: C_8  and  C_10 
REMARK    9  A    between atoms: C_9  and  C_11 
REMARK   10  A    between atoms: C_10  and  C_12 
REMARK   11  A    between atoms: C_11  and  C_13 
REMARK   12  A    between atoms: C_12  and  C_14 
REMARK   13  A    between atoms: C_13  and  O_15 
REMARK   14  A    between atoms: C_14  and  C_17 
REMARK   15  A    between atoms: C_17  and  C_18 
REMARK   16  A    between atoms: C_18  and  C_19 
REMARK   17  A    between atoms: O_21  and  C_22 
REMARK   18  A    between atoms: C_22  and  C_23 
REMARK   19  A    between atoms: C_23  and  N_24 
ROOT
HETATM    1  C   UNK N   1      20.552  19.245   1.919  0.00  0.00     0.137 C 
ENDROOT
BRANCH   1   2
HETATM    2  C   UNK N   1      20.792  20.607   1.303  0.00  0.00     0.183 C 
BRANCH   2   3
HETATM    3  O   UNK N   1      20.613  20.538  -0.076  0.00  0.00    -0.399 OA
HETATM    4  H   UNK N   1      19.744  20.729  -0.463  0.00  0.00     0.209 HD
ENDBRANCH   2   3
ENDBRANCH   1   2
BRANCH   1   5
HETATM    5  N   UNK N   1      19.177  19.155   2.372  0.00  0.00    -0.428 N 
HETATM    6  H   UNK N   1      18.531  18.510   1.917  0.00  0.00     0.149 HD
HETATM    7  H   UNK N   1      18.856  19.737   3.145  0.00  0.00     0.149 HD
ENDBRANCH   1   5
TORSDOF 19
ENDMDL
MODEL 4
REMARK VINA RESULT:      -2.7     19.137     19.331
REMARK  19 active torsions:
REMARK  status: ('A' for Active; 'I' for Inactive)
REMARK    1  A    between atoms: C_1  and  C_2 
REMARK    2  A    between atoms: C_1  and  C_3 
REMARK    3  A    between atoms: C_2  and  C_4 
REMARK    4  A    between atoms: C_3  and  C_5 
REMARK    5  A    between atoms: C_5  and  C_7 
REMARK    6  A    between atoms: C_6  and  C_8 
REMARK    7  A    between atoms: C_7  and  C_9 
REMARK    8  A    between atoms: C_8  and  C_10 
REMARK    9  A    between atoms: C_9  and  C_11 
REMARK   10  A    between atoms: C_10  and  C_12 
REMARK   11  A    between atoms: C_11  and  C_13 
REMARK   12  A    between atoms: C_12  and  C_14 
REMARK   13  A    between atoms: C_13  and  O_15 
REMARK   14  A    between atoms: C_14  and  C_17 
REMARK   15  A    between atoms: C_17  and  C_18 
REMARK   16  A    between atoms: C_18  and  C_19 
REMARK   17  A    between atoms: O_21  and  C_22 
REMARK   18  A    between atoms: C_22  and  C_23 
REMARK   19  A    between atoms: C_23  and  N_24 
ROOT
HETATM    1  C   UNK N   1      34.556  17.028   8.935  0.00  0.00     0.137 C 
ENDROOT
BRANCH   1   2
HETATM    2  C   UNK N   1      34.392  18.327   8.176  0.00  0.00     0.183 C 
BRANCH   2   3
HETATM    3  O   UNK N   1      35.363  19.237   8.587  0.00  0.00    -0.399 OA
HETATM    4  H   UNK N   1      35.938  19.663   7.931  0.00  0.00     0.209 HD
ENDBRANCH   2   3
ENDBRANCH   1   2
BRANCH   1   5
HETATM    5  N   UNK N   1      34.962  17.313  10.298  0.00  0.00    -0.428 N 
HETATM    6  H   UNK N   1      35.637  16.708  10.767  0.00  0.00     0.149 HD
HETATM    7  H   UNK N   1      34.573  18.118  10.789  0.00  0.00     0.149 HD
ENDBRANCH   1   5
TORSDOF 19
ENDMDL
MODEL 5
REMARK VINA RESULT:      -2.7      2.456      2.638
REMARK  19 active torsions:
REMARK  status: ('A' for Active; 'I' for Inactive)
REMARK    1  A    between atoms: C_1  and  C_2 
REMARK    2  A    between atoms: C_1  and  C_3 
REMARK    3  A    between atoms: C_2  and  C_4 
REMARK    4  A    between atoms: C_3  and  C_5 
REMARK    5  A    between atoms: C_5  and  C_7 
REMARK    6  A    between atoms: C_6  and  C_8 
REMARK    7  A    between atoms: C_7  and  C_9 
REMARK    8  A    between atoms: C_8  and  C_10 
REMARK    9  A    between atoms: C_9  and  C_11 
REMARK   10  A    between atoms: C_10  and  C_12 
REMARK   11  A    between atoms: C_11  and  C_13 
REMARK   12  A    between atoms: C_12  and  C_14 
REMARK   13  A    between atoms: C_13  and  O_15 
REMARK   14  A    between atoms: C_14  and  C_17 
REMARK   15  A    between atoms: C_17  and  C_18 
REMARK   16  A    between atoms: C_18  and  C_19 
REMARK   17  A    between atoms: O_21  and  C_22 
REMARK   18  A    between atoms: C_22  and  C_23 
REMARK   19  A    between atoms: C_23  and  N_24 
ROOT
HETATM    1  C   UNK N   1      18.695  26.929   9.835  0.00  0.00     0.137 C 
ENDROOT
BRANCH   1   2
HETATM    2  C   UNK N   1      17.664  26.745   8.743  0.00  0.00     0.183 C 
BRANCH   2   3
HETATM    3  O   UNK N   1      18.219  26.025   7.687  0.00  0.00    -0.399 OA
HETATM    4  H   UNK N   1      17.712  25.892   6.871  0.00  0.00     0.209 HD
ENDBRANCH   2   3
ENDBRANCH   1   2
BRANCH   1   5
HETATM    5  N   UNK N   1      18.760  25.727  10.645  0.00  0.00    -0.428 N 
HETATM    6  H   UNK N   1      19.127  25.771  11.595  0.00  0.00     0.149 HD
HETATM    7  H   UNK N   1      18.439  24.837  10.264  0.00  0.00     0.149 HD
ENDBRANCH   1   5
TORSDOF 19
ENDMDL
MODEL 6
REMARK VINA RESULT:      -2.7     27.302     27.529
REMARK  19 active torsions:
REMARK  status: ('A' for Active; 'I' for Inactive)
REMARK    1  A    between atoms: C_1  and  C_2 
REMARK    2  A    between atoms: C_1  and  C_3 
REMARK    3  A    between atoms: C_2  and  C_4 
REMARK    4  A    between atoms: C_3  and  C_5 
REMARK    5  A    between atoms: C_5  and  C_7 
REMARK    6  A    between atoms: C_6  and  C_8 
REMARK    7  A    between atoms: C_7  and  C_9 
REMARK    8  A    between atoms: C_8  and  C_10 
REMARK    9  A    between atoms: C_9  and  C_11 
REMARK   10  A    between atoms: C_10  and  C_12 
REMARK   11  A    between atoms: C_11  and  C_13 
REMARK   12  A    between atoms: C_12  and  C_14 
REMARK   13  A    between atoms: C_13  and  O_15 
REMARK   14  A    between atoms: C_14  and  C_17 
REMARK   15  A    between atoms: C_17  and  C_18 
REMARK   16  A    between atoms: C_18  and  C_19 
REMARK   17  A    between atoms: O_21  and  C_22 
REMARK   18  A    between atoms: C_22  and  C_23 
REMARK   19  A    between atoms: C_23  and  N_24 
ROOT
HETATM    1  C   UNK N   1      43.616  22.703   3.400  0.00  0.00     0.137 C 
ENDROOT
BRANCH   1   2
HETATM    2  C   UNK N   1      44.572  21.738   4.067  0.00  0.00     0.183 C 
BRANCH   2   3
HETATM    3  O   UNK N   1      45.822  22.336   4.209  0.00  0.00    -0.399 OA
HETATM    4  H   UNK N   1      46.436  22.361   3.459  0.00  0.00     0.209 HD
ENDBRANCH   2   3
ENDBRANCH   1   2
BRANCH   1   5
HETATM    5  N   UNK N   1      43.580  23.944   4.150  0.00  0.00    -0.428 N 
HETATM    6  H   UNK N   1      43.877  23.959   5.126  0.00  0.00     0.149 HD
HETATM    7  H   UNK N   1      43.257  24.801   3.702  0.00  0.00     0.149 HD
ENDBRANCH   1   5
TORSDOF 19
ENDMDL
MODEL 7
REMARK VINA RESULT:      -2.5     15.845     15.953
REMARK  19 active torsions:
REMARK  status: ('A' for Active; 'I' for Inactive)
REMARK    1  A    between atoms: C_1  and  C_2 
REMARK    2  A    between atoms: C_1  and  C_3 
REMARK    3  A    between atoms: C_2  and  C_4 
REMARK    4  A    between atoms: C_3  and  C_5 
REMARK    5  A    between atoms: C_5  and  C_7 
REMARK    6  A    between atoms: C_6  and  C_8 
REMARK    7  A    between atoms: C_7  and  C_9 
REMARK    8  A    between atoms: C_8  and  C_10 
REMARK    9  A    between atoms: C_9  and  C_11 
REMARK   10  A    between atoms: C_10  and  C_12 
REMARK   11  A    between atoms: C_11  and  C_13 
REMARK   12  A    between atoms: C_12  and  C_14 
REMARK   13  A    between atoms: C_13  and  O_15 
REMARK   14  A    between atoms: C_14  and  C_17 
REMARK   15  A    between atoms: C_17  and  C_18 
REMARK   16  A    between atoms: C_18  and  C_19 
REMARK   17  A    between atoms: O_21  and  C_22 
REMARK   18  A    between atoms: C_22  and  C_23 
REMARK   19  A    between atoms: C_23  and  N_24 
ROOT
HETATM    1  C   UNK N   1      22.742  12.200  11.234  0.00  0.00     0.137 C 
ENDROOT
BRANCH   1   2
HETATM    2  C   UNK N   1      24.159  12.161  10.704  0.00  0.00     0.183 C 
BRANCH   2   3
HETATM    3  O   UNK N   1      25.057  12.394  11.743  0.00  0.00    -0.399 OA
HETATM    4  H   UNK N   1      26.011  12.312  11.587  0.00  0.00     0.209 HD
ENDBRANCH   2   3
ENDBRANCH   1   2
BRANCH   1   5
HETATM    5  N   UNK N   1      22.712  11.645  12.575  0.00  0.00    -0.428 N 
HETATM    6  H   UNK N   1      21.978  10.989  12.839  0.00  0.00     0.149 HD
HETATM    7  H   UNK N   1      23.426  11.911  13.253  0.00  0.00     0.149 HD
ENDBRANCH   1   5
TORSDOF 19
ENDMDL
MODEL 8
REMARK VINA RESULT:      -2.5     27.213     27.521
REMARK  19 active torsions:
REMARK  status: ('A' for Active; 'I' for Inactive)
REMARK    1  A    between atoms: C_1  and  C_2 
REMARK    2  A    between atoms: C_1  and  C_3 
REMARK    3  A    between atoms: C_2  and  C_4 
REMARK    4  A    between atoms: C_3  and  C_5 
REMARK    5  A    between atoms: C_5  and  C_7 
REMARK    6  A    between atoms: C_6  and  C_8 
REMARK    7  A    between atoms: C_7  and  C_9 
REMARK    8  A    between atoms: C_8  and  C_10 
REMARK    9  A    between atoms: C_9  and  C_11 
REMARK   10  A    between atoms: C_10  and  C_12 
REMARK   11  A    between atoms: C_11  and  C_13 
REMARK   12  A    between atoms: C_12  and  C_14 
REMARK   13  A    between atoms: C_13  and  O_15 
REMARK   14  A    between atoms: C_14  and  C_17 
REMARK   15  A    between atoms: C_17  and  C_18 
REMARK   16  A    between atoms: C_18  and  C_19 
REMARK   17  A    between atoms: O_21  and  C_22 
REMARK   18  A    between atoms: C_22  and  C_23 
REMARK   19  A    between atoms: C_23  and  N_24 
ROOT
HETATM    1  C   UNK N   1      44.604  21.678   3.810  0.00  0.00     0.137 C 
ENDROOT
BRANCH   1   2
HETATM    2  C   UNK N   1      43.418  22.412   4.395  0.00  0.00     0.183 C 
BRANCH   2   3
HETATM    3  O   UNK N   1      43.563  23.782   4.187  0.00  0.00    -0.399 OA
HETATM    4  H   UNK N   1      43.757  24.368   4.935  0.00  0.00     0.209 HD
ENDBRANCH   2   3
ENDBRANCH   1   2
BRANCH   1   5
HETATM    5  N   UNK N   1      45.829  22.359   4.187  0.00  0.00    -0.428 N 
HETATM    6  H   UNK N   1      46.645  21.819   4.474  0.00  0.00     0.149 HD
HETATM    7  H   UNK N   1      45.873  23.377   4.166  0.00  0.00     0.149 HD
ENDBRANCH   1   5
TORSDOF 19
ENDMDL
MODEL 9
REMARK VINA RESULT:      -2.4     20.723     20.751
REMARK  19 active torsions:
REMARK  status: ('A' for Active; 'I' for Inactive)
REMARK    1  A    between atoms: C_1  and  C_2 
REMARK    2  A    between atoms: C_1  and  C_3 
REMARK    3  A    between atoms: C_2  and  C_4 
REMARK    4  A    between atoms: C_3  and  C_5 
REMARK    5  A    between atoms: C_5  and  C_7 
REMARK    6  A    between atoms: C_6  and  C_8 
REMARK    7  A    between atoms: C_7  and  C_9 
REMARK    8  A    between atoms: C_8  and  C_10 
REMARK    9  A    between atoms: C_9  and  C_11 
REMARK   10  A    between atoms: C_10  and  C_12 
REMARK   11  A    between atoms: C_11  and  C_13 
REMARK   12  A    between atoms: C_12  and  C_14 
REMARK   13  A    between atoms: C_13  and  O_15 
REMARK   14  A    between atoms: C_14  and  C_17 
REMARK   15  A    between atoms: C_17  and  C_18 
REMARK   16  A    between atoms: C_18  and  C_19 
REMARK   17  A    between atoms: O_21  and  C_22 
REMARK   18  A    between atoms: C_22  and  C_23 
REMARK   19  A    between atoms: C_23  and  N_24 
ROOT
HETATM    1  C   UNK N   1      34.785  15.118  11.314  0.00  0.00     0.137 C 
ENDROOT
BRANCH   1   2
HETATM    2  C   UNK N   1      35.497  16.367  10.840  0.00  0.00     0.183 C 
BRANCH   2   3
HETATM    3  O   UNK N   1      36.875  16.163  10.871  0.00  0.00    -0.399 OA
HETATM    4  H   UNK N   1      37.247  15.442  11.401  0.00  0.00     0.209 HD
ENDBRANCH   2   3
ENDBRANCH   1   2
BRANCH   1   5
HETATM    5  N   UNK N   1      33.429  15.110  10.798  0.00  0.00    -0.428 N 
HETATM    6  H   UNK N   1      32.641  15.004  11.436  0.00  0.00     0.149 HD
HETATM    7  H   UNK N   1      33.264  15.210   9.797  0.00  0.00     0.149 HD
ENDBRANCH   1   5
TORSDOF 19
ENDMDL
