MODEL 1
REMARK VINA RESULT:      -5.4      0.000      0.000
REMARK  12 active torsions:
REMARK  status: ('A' for Active; 'I' for Inactive)
REMARK    1  A    between atoms: N_2  and  O_4 
REMARK    2  A    between atoms: O_4  and  C_5 
REMARK    3  A    between atoms: C_5  and  C_6 
REMARK    4  A    between atoms: C_6  and  C_7 
REMARK    5  A    between atoms: C_6  and  C_12 
REMARK    6  A    between atoms: C_6  and  C_17 
REMARK    7  A    between atoms: C_7  and  O_8 
REMARK    8  A    between atoms: O_8  and  N_9 
REMARK    9  A    between atoms: C_12  and  O_13 
REMARK   10  A    between atoms: O_13  and  N_14 
REMARK   11  A    between atoms: C_17  and  O_18 
REMARK   12  A    between atoms: O_18  and  N_19 
ROOT
HETATM    1  C   UNK N   1      21.387  18.250   3.716  0.00  0.00     0.056 C 
ENDROOT
BRANCH   1   2
HETATM    2  C   UNK N   1      21.149  18.658   5.194  0.00  0.00     0.224 C 
BRANCH   2   3
HETATM    3  O   UNK N   1      20.928  17.596   6.056  0.00  0.00    -0.220 OA
BRANCH   3   4
HETATM    4  N   UNK N   1      20.740  17.742   7.359  0.00  0.00     0.004 N 
HETATM    5  O   UNK N   1      20.872  16.702   8.152  0.00  0.00    -0.511 OA
HETATM    6  O   UNK N   1      20.564  18.825   7.833  0.00  0.00    -0.511 OA
ENDBRANCH   3   4
ENDBRANCH   2   3
ENDBRANCH   1   2
BRANCH   1   7
HETATM    7  C   UNK N   1      20.405  19.029   2.816  0.00  0.00     0.224 C 
BRANCH   7   8
HETATM    8  O   UNK N   1      20.953  19.375   1.595  0.00  0.00    -0.220 OA
BRANCH   8   9
HETATM    9  N   UNK N   1      21.017  20.633   1.191  0.00  0.00     0.004 N 
HETATM   10  O   UNK N   1      21.080  20.901  -0.095  0.00  0.00    -0.511 OA
HETATM   11  O   UNK N   1      21.005  21.529   1.980  0.00  0.00    -0.511 OA
ENDBRANCH   8   9
ENDBRANCH   7   8
ENDBRANCH   1   7
BRANCH   1  12
HETATM   12  C   UNK N   1      21.145  16.758   3.364  0.00  0.00     0.224 C 
BRANCH  12  13
HETATM   13  O   UNK N   1      20.296  16.520   2.296  0.00  0.00    -0.220 OA
BRANCH  13  14
HETATM   14  N   UNK N   1      20.693  16.093   1.110  0.00  0.00     0.004 N 
HETATM   15  O   UNK N   1      20.164  16.624   0.028  0.00  0.00    -0.511 OA
HETATM   16  O   UNK N   1      21.561  15.284   1.008  0.00  0.00    -0.511 OA
ENDBRANCH  13  14
ENDBRANCH  12  13
ENDBRANCH   1  12
BRANCH   1  17
HETATM   17  C   UNK N   1      22.871  18.533   3.362  0.00  0.00     0.224 C 
BRANCH  17  18
HETATM   18  O   UNK N   1      23.283  19.795   3.753  0.00  0.00    -0.220 OA
BRANCH  18  19
HETATM   19  N   UNK N   1      24.355  20.411   3.287  0.00  0.00     0.004 N 
HETATM   20  O   UNK N   1      25.477  20.432   3.975  0.00  0.00    -0.511 OA
HETATM   21  O   UNK N   1      24.319  20.912   2.204  0.00  0.00    -0.511 OA
ENDBRANCH  18  19
ENDBRANCH  17  18
ENDBRANCH   1  17
TORSDOF 12
ENDMDL
MODEL 2
REMARK VINA RESULT:      -5.3      1.521      5.025
REMARK  12 active torsions:
REMARK  status: ('A' for Active; 'I' for Inactive)
REMARK    1  A    between atoms: N_2  and  O_4 
REMARK    2  A    between atoms: O_4  and  C_5 
REMARK    3  A    between atoms: C_5  and  C_6 
REMARK    4  A    between atoms: C_6  and  C_7 
REMARK    5  A    between atoms: C_6  and  C_12 
REMARK    6  A    between atoms: C_6  and  C_17 
REMARK    7  A    between atoms: C_7  and  O_8 
REMARK    8  A    between atoms: O_8  and  N_9 
REMARK    9  A    between atoms: C_12  and  O_13 
REMARK   10  A    between atoms: O_13  and  N_14 
REMARK   11  A    between atoms: C_17  and  O_18 
REMARK   12  A    between atoms: O_18  and  N_19 
ROOT
HETATM    1  C   UNK N   1      21.319  18.407   4.015  0.00  0.00     0.056 C 
ENDROOT
BRANCH   1   2
HETATM    2  C   UNK N   1      22.749  18.670   3.470  0.00  0.00     0.224 C 
BRANCH   2   3
HETATM    3  O   UNK N   1      23.302  19.877   3.863  0.00  0.00    -0.220 OA
BRANCH   3   4
HETATM    4  N   UNK N   1      24.343  20.432   3.260  0.00  0.00     0.004 N 
HETATM    5  O   UNK N   1      25.514  20.426   3.857  0.00  0.00    -0.511 OA
HETATM    6  O   UNK N   1      24.256  20.836   2.139  0.00  0.00    -0.511 OA
ENDBRANCH   3   4
ENDBRANCH   2   3
ENDBRANCH   1   2
BRANCH   1   7
HETATM    7  C   UNK N   1      21.272  18.791   5.508  0.00  0.00     0.224 C 
BRANCH   7   8
HETATM    8  O   UNK N   1      21.103  17.700   6.339  0.00  0.00    -0.220 OA
BRANCH   8   9
HETATM    9  N   UNK N   1      20.718  17.836   7.597  0.00  0.00     0.004 N 
HETATM   10  O   UNK N   1      20.681  16.783   8.384  0.00  0.00    -0.511 OA
HETATM   11  O   UNK N   1      20.415  18.907   8.031  0.00  0.00    -0.511 OA
ENDBRANCH   8   9
ENDBRANCH   7   8
ENDBRANCH   1   7
BRANCH   1  12
HETATM   12  C   UNK N   1      20.823  16.938   3.969  0.00  0.00     0.224 C 
BRANCH  12  13
HETATM   13  O   UNK N   1      19.452  16.762   4.049  0.00  0.00    -0.220 OA
BRANCH  13  14
HETATM   14  N   UNK N   1      18.865  15.762   4.685  0.00  0.00     0.004 N 
HETATM   15  O   UNK N   1      19.144  14.525   4.330  0.00  0.00    -0.511 OA
HETATM   16  O   UNK N   1      18.142  15.964   5.609  0.00  0.00    -0.511 OA
ENDBRANCH  13  14
ENDBRANCH  12  13
ENDBRANCH   1  12
BRANCH   1  17
HETATM   17  C   UNK N   1      20.312  19.221   3.159  0.00  0.00     0.224 C 
BRANCH  17  18
HETATM   18  O   UNK N   1      20.703  19.334   1.836  0.00  0.00    -0.220 OA
BRANCH  18  19
HETATM   19  N   UNK N   1      20.917  20.479   1.213  0.00  0.00     0.004 N 
HETATM   20  O   UNK N   1      21.002  21.609   1.881  0.00  0.00    -0.511 OA
HETATM   21  O   UNK N   1      21.089  20.479   0.031  0.00  0.00    -0.511 OA
ENDBRANCH  18  19
ENDBRANCH  17  18
ENDBRANCH   1  17
TORSDOF 12
ENDMDL
MODEL 3
REMARK VINA RESULT:      -5.3      0.666      5.835
REMARK  12 active torsions:
REMARK  status: ('A' for Active; 'I' for Inactive)
REMARK    1  A    between atoms: N_2  and  O_4 
REMARK    2  A    between atoms: O_4  and  C_5 
REMARK    3  A    between atoms: C_5  and  C_6 
REMARK    4  A    between atoms: C_6  and  C_7 
REMARK    5  A    between atoms: C_6  and  C_12 
REMARK    6  A    between atoms: C_6  and  C_17 
REMARK    7  A    between atoms: C_7  and  O_8 
REMARK    8  A    between atoms: O_8  and  N_9 
REMARK    9  A    between atoms: C_12  and  O_13 
REMARK   10  A    between atoms: O_13  and  N_14 
REMARK   11  A    between atoms: C_17  and  O_18 
REMARK   12  A    between atoms: O_18  and  N_19 
ROOT
HETATM    1  C   UNK N   1      21.294  18.341   3.886  0.00  0.00     0.056 C 
ENDROOT
BRANCH   1   2
HETATM    2  C   UNK N   1      20.303  19.150   3.007  0.00  0.00     0.224 C 
BRANCH   2   3
HETATM    3  O   UNK N   1      20.703  19.315   1.691  0.00  0.00    -0.220 OA
BRANCH   3   4
HETATM    4  N   UNK N   1      20.942  20.497   1.145  0.00  0.00     0.004 N 
HETATM    5  O   UNK N   1      21.109  21.545   1.920  0.00  0.00    -0.511 OA
HETATM    6  O   UNK N   1      21.118  20.602  -0.032  0.00  0.00    -0.511 OA
ENDBRANCH   3   4
ENDBRANCH   2   3
ENDBRANCH   1   2
BRANCH   1   7
HETATM    7  C   UNK N   1      21.109  18.754   5.361  0.00  0.00     0.224 C 
BRANCH   7   8
HETATM    8  O   UNK N   1      20.985  17.672   6.212  0.00  0.00    -0.220 OA
BRANCH   8   9
HETATM    9  N   UNK N   1      20.729  17.823   7.500  0.00  0.00     0.004 N 
HETATM   10  O   UNK N   1      20.701  16.770   8.287  0.00  0.00    -0.511 OA
HETATM   11  O   UNK N   1      20.536  18.909   7.961  0.00  0.00    -0.511 OA
ENDBRANCH   8   9
ENDBRANCH   7   8
ENDBRANCH   1   7
BRANCH   1  12
HETATM   12  C   UNK N   1      22.803  18.558   3.602  0.00  0.00     0.224 C 
BRANCH  12  13
HETATM   13  O   UNK N   1      23.263  19.856   3.744  0.00  0.00    -0.220 OA
BRANCH  13  14
HETATM   14  N   UNK N   1      24.413  20.296   3.261  0.00  0.00     0.004 N 
HETATM   15  O   UNK N   1      24.442  20.826   2.056  0.00  0.00    -0.511 OA
HETATM   16  O   UNK N   1      25.403  20.277   3.922  0.00  0.00    -0.511 OA
ENDBRANCH  13  14
ENDBRANCH  12  13
ENDBRANCH   1  12
BRANCH   1  17
HETATM   17  C   UNK N   1      21.032  16.829   3.655  0.00  0.00     0.224 C 
BRANCH  17  18
HETATM   18  O   UNK N   1      21.978  16.242   2.833  0.00  0.00    -0.220 OA
BRANCH  18  19
HETATM   19  N   UNK N   1      21.709  15.345   1.902  0.00  0.00     0.004 N 
HETATM   20  O   UNK N   1      21.921  14.063   2.113  0.00  0.00    -0.511 OA
HETATM   21  O   UNK N   1      21.218  15.698   0.872  0.00  0.00    -0.511 OA
ENDBRANCH  18  19
ENDBRANCH  17  18
ENDBRANCH   1  17
TORSDOF 12
ENDMDL
MODEL 4
REMARK VINA RESULT:      -5.2     13.822     16.662
REMARK  12 active torsions:
REMARK  status: ('A' for Active; 'I' for Inactive)
REMARK    1  A    between atoms: N_2  and  O_4 
REMARK    2  A    between atoms: O_4  and  C_5 
REMARK    3  A    between atoms: C_5  and  C_6 
REMARK    4  A    between atoms: C_6  and  C_7 
REMARK    5  A    between atoms: C_6  and  C_12 
REMARK    6  A    between atoms: C_6  and  C_17 
REMARK    7  A    between atoms: C_7  and  O_8 
REMARK    8  A    between atoms: O_8  and  N_9 
REMARK    9  A    between atoms: C_12  and  O_13 
REMARK   10  A    between atoms: O_13  and  N_14 
REMARK   11  A    between atoms: C_17  and  O_18 
REMARK   12  A    between atoms: O_18  and  N_19 
ROOT
HETATM    1  C   UNK N   1      35.255  15.510  10.499  0.00  0.00     0.056 C 
ENDROOT
BRANCH   1   2
HETATM    2  C   UNK N   1      35.205  17.047  10.292  0.00  0.00     0.224 C 
BRANCH   2   3
HETATM    3  O   UNK N   1      34.368  17.463   9.269  0.00  0.00    -0.220 OA
BRANCH   3   4
HETATM    4  N   UNK N   1      34.745  18.301   8.315  0.00  0.00     0.004 N 
HETATM    5  O   UNK N   1      35.430  19.376   8.633  0.00  0.00    -0.511 OA
HETATM    6  O   UNK N   1      34.569  18.034   7.164  0.00  0.00    -0.511 OA
ENDBRANCH   3   4
ENDBRANCH   2   3
ENDBRANCH   1   2
BRANCH   1   7
HETATM    7  C   UNK N   1      35.766  15.211  11.924  0.00  0.00     0.224 C 
BRANCH   7   8
HETATM    8  O   UNK N   1      34.952  14.332  12.614  0.00  0.00    -0.220 OA
BRANCH   8   9
HETATM    9  N   UNK N   1      35.378  13.681  13.684  0.00  0.00     0.004 N 
HETATM   10  O   UNK N   1      34.639  12.724  14.201  0.00  0.00    -0.511 OA
HETATM   11  O   UNK N   1      36.434  13.943  14.177  0.00  0.00    -0.511 OA
ENDBRANCH   8   9
ENDBRANCH   7   8
ENDBRANCH   1   7
BRANCH   1  12
HETATM   12  C   UNK N   1      36.208  14.719   9.565  0.00  0.00     0.224 C 
BRANCH  12  13
HETATM   13  O   UNK N   1      37.532  14.656   9.967  0.00  0.00    -0.220 OA
BRANCH  13  14
HETATM   14  N   UNK N   1      38.439  13.861   9.423  0.00  0.00     0.004 N 
HETATM   15  O   UNK N   1      39.129  13.052  10.199  0.00  0.00    -0.511 OA
HETATM   16  O   UNK N   1      38.594  13.824   8.243  0.00  0.00    -0.511 OA
ENDBRANCH  13  14
ENDBRANCH  12  13
ENDBRANCH   1  12
BRANCH   1  17
HETATM   17  C   UNK N   1      33.837  14.934  10.243  0.00  0.00     0.224 C 
BRANCH  17  18
HETATM   18  O   UNK N   1      33.776  14.149   9.104  0.00  0.00    -0.220 OA
BRANCH  18  19
HETATM   19  N   UNK N   1      32.814  14.213   8.202  0.00  0.00     0.004 N 
HETATM   20  O   UNK N   1      32.516  13.172   7.454  0.00  0.00    -0.511 OA
HETATM   21  O   UNK N   1      32.171  15.214   8.100  0.00  0.00    -0.511 OA
ENDBRANCH  18  19
ENDBRANCH  17  18
ENDBRANCH   1  17
TORSDOF 12
ENDMDL
MODEL 5
REMARK VINA RESULT:      -5.2     13.688     16.184
REMARK  12 active torsions:
REMARK  status: ('A' for Active; 'I' for Inactive)
REMARK    1  A    between atoms: N_2  and  O_4 
REMARK    2  A    between atoms: O_4  and  C_5 
REMARK    3  A    between atoms: C_5  and  C_6 
REMARK    4  A    between atoms: C_6  and  C_7 
REMARK    5  A    between atoms: C_6  and  C_12 
REMARK    6  A    between atoms: C_6  and  C_17 
REMARK    7  A    between atoms: C_7  and  O_8 
REMARK    8  A    between atoms: O_8  and  N_9 
REMARK    9  A    between atoms: C_12  and  O_13 
REMARK   10  A    between atoms: O_13  and  N_14 
REMARK   11  A    between atoms: C_17  and  O_18 
REMARK   12  A    between atoms: O_18  and  N_19 
ROOT
HETATM    1  C   UNK N   1      35.013  15.379  10.246  0.00  0.00     0.056 C 
ENDROOT
BRANCH   1   2
HETATM    2  C   UNK N   1      35.907  14.734   9.154  0.00  0.00     0.224 C 
BRANCH   2   3
HETATM    3  O   UNK N   1      36.559  13.579   9.551  0.00  0.00    -0.220 OA
BRANCH   3   4
HETATM    4  N   UNK N   1      37.856  13.527   9.813  0.00  0.00     0.004 N 
HETATM    5  O   UNK N   1      38.714  13.965   8.918  0.00  0.00    -0.511 OA
HETATM    6  O   UNK N   1      38.249  13.194  10.891  0.00  0.00    -0.511 OA
ENDBRANCH   3   4
ENDBRANCH   2   3
ENDBRANCH   1   2
BRANCH   1   7
HETATM    7  C   UNK N   1      35.217  16.908  10.225  0.00  0.00     0.224 C 
BRANCH   7   8
HETATM    8  O   UNK N   1      34.339  17.557   9.377  0.00  0.00    -0.220 OA
BRANCH   8   9
HETATM    9  N   UNK N   1      34.765  18.302   8.371  0.00  0.00     0.004 N 
HETATM   10  O   UNK N   1      35.438  19.405   8.617  0.00  0.00    -0.511 OA
HETATM   11  O   UNK N   1      34.556  17.979   7.240  0.00  0.00    -0.511 OA
ENDBRANCH   8   9
ENDBRANCH   7   8
ENDBRANCH   1   7
BRANCH   1  12
HETATM   12  C   UNK N   1      35.305  14.962  11.711  0.00  0.00     0.224 C 
BRANCH  12  13
HETATM   13  O   UNK N   1      34.550  13.910  12.201  0.00  0.00    -0.220 OA
BRANCH  13  14
HETATM   14  N   UNK N   1      35.003  12.994  13.040  0.00  0.00     0.004 N 
HETATM   15  O   UNK N   1      34.611  13.025  14.296  0.00  0.00    -0.511 OA
HETATM   16  O   UNK N   1      35.708  12.111  12.662  0.00  0.00    -0.511 OA
ENDBRANCH  13  14
ENDBRANCH  12  13
ENDBRANCH   1  12
BRANCH   1  17
HETATM   17  C   UNK N   1      33.539  14.972   9.976  0.00  0.00     0.224 C 
BRANCH  17  18
HETATM   18  O   UNK N   1      33.306  14.660   8.648  0.00  0.00    -0.220 OA
BRANCH  18  19
HETATM   19  N   UNK N   1      32.829  13.504   8.222  0.00  0.00     0.004 N 
HETATM   20  O   UNK N   1      32.507  13.327   6.958  0.00  0.00    -0.511 OA
HETATM   21  O   UNK N   1      32.738  12.591   8.986  0.00  0.00    -0.511 OA
ENDBRANCH  18  19
ENDBRANCH  17  18
ENDBRANCH   1  17
TORSDOF 12
ENDMDL
MODEL 6
REMARK VINA RESULT:      -5.2      0.862      4.596
REMARK  12 active torsions:
REMARK  status: ('A' for Active; 'I' for Inactive)
REMARK    1  A    between atoms: N_2  and  O_4 
REMARK    2  A    between atoms: O_4  and  C_5 
REMARK    3  A    between atoms: C_5  and  C_6 
REMARK    4  A    between atoms: C_6  and  C_7 
REMARK    5  A    between atoms: C_6  and  C_12 
REMARK    6  A    between atoms: C_6  and  C_17 
REMARK    7  A    between atoms: C_7  and  O_8 
REMARK    8  A    between atoms: O_8  and  N_9 
REMARK    9  A    between atoms: C_12  and  O_13 
REMARK   10  A    between atoms: O_13  and  N_14 
REMARK   11  A    between atoms: C_17  and  O_18 
REMARK   12  A    between atoms: O_18  and  N_19 
ROOT
HETATM    1  C   UNK N   1      21.143  18.006   3.773  0.00  0.00     0.056 C 
ENDROOT
BRANCH   1   2
HETATM    2  C   UNK N   1      20.166  18.928   2.995  0.00  0.00     0.224 C 
BRANCH   2   3
HETATM    3  O   UNK N   1      20.541  19.192   1.688  0.00  0.00    -0.220 OA
BRANCH   3   4
HETATM    4  N   UNK N   1      20.882  20.397   1.257  0.00  0.00     0.004 N 
HETATM    5  O   UNK N   1      21.133  20.580  -0.020  0.00  0.00    -0.511 OA
HETATM    6  O   UNK N   1      20.854  21.339   1.992  0.00  0.00    -0.511 OA
ENDBRANCH   3   4
ENDBRANCH   2   3
ENDBRANCH   1   2
BRANCH   1   7
HETATM    7  C   UNK N   1      22.307  18.856   4.322  0.00  0.00     0.224 C 
BRANCH   7   8
HETATM    8  O   UNK N   1      23.294  19.087   3.382  0.00  0.00    -0.220 OA
BRANCH   8   9
HETATM    9  N   UNK N   1      24.092  20.139   3.454  0.00  0.00     0.004 N 
HETATM   10  O   UNK N   1      25.251  20.037   4.068  0.00  0.00    -0.511 OA
HETATM   11  O   UNK N   1      23.779  21.179   2.955  0.00  0.00    -0.511 OA
ENDBRANCH   8   9
ENDBRANCH   7   8
ENDBRANCH   1   7
BRANCH   1  12
HETATM   12  C   UNK N   1      21.827  16.880   2.954  0.00  0.00     0.224 C 
BRANCH  12  13
HETATM   13  O   UNK N   1      21.059  15.752   2.720  0.00  0.00    -0.220 OA
BRANCH  13  14
HETATM   14  N   UNK N   1      20.443  15.494   1.579  0.00  0.00     0.004 N 
HETATM   15  O   UNK N   1      19.400  14.690   1.581  0.00  0.00    -0.511 OA
HETATM   16  O   UNK N   1      20.778  16.026   0.567  0.00  0.00    -0.511 OA
ENDBRANCH  13  14
ENDBRANCH  12  13
ENDBRANCH   1  12
BRANCH   1  17
HETATM   17  C   UNK N   1      20.349  17.289   4.898  0.00  0.00     0.224 C 
BRANCH  17  18
HETATM   18  O   UNK N   1      21.122  17.028   6.015  0.00  0.00    -0.220 OA
BRANCH  18  19
HETATM   19  N   UNK N   1      20.900  17.534   7.215  0.00  0.00     0.004 N 
HETATM   20  O   UNK N   1      20.746  18.830   7.387  0.00  0.00    -0.511 OA
HETATM   21  O   UNK N   1      20.787  16.799   8.149  0.00  0.00    -0.511 OA
ENDBRANCH  18  19
ENDBRANCH  17  18
ENDBRANCH   1  17
TORSDOF 12
ENDMDL
MODEL 7
REMARK VINA RESULT:      -5.2     12.192     14.428
REMARK  12 active torsions:
REMARK  status: ('A' for Active; 'I' for Inactive)
REMARK    1  A    between atoms: N_2  and  O_4 
REMARK    2  A    between atoms: O_4  and  C_5 
REMARK    3  A    between atoms: C_5  and  C_6 
REMARK    4  A    between atoms: C_6  and  C_7 
REMARK    5  A    between atoms: C_6  and  C_12 
REMARK    6  A    between atoms: C_6  and  C_17 
REMARK    7  A    between atoms: C_7  and  O_8 
REMARK    8  A    between atoms: O_8  and  N_9 
REMARK    9  A    between atoms: C_12  and  O_13 
REMARK   10  A    between atoms: O_13  and  N_14 
REMARK   11  A    between atoms: C_17  and  O_18 
REMARK   12  A    between atoms: O_18  and  N_19 
ROOT
HETATM    1  C   UNK N   1      34.169  15.117   9.439  0.00  0.00     0.056 C 
ENDROOT
BRANCH   1   2
HETATM    2  C   UNK N   1      32.686  15.547   9.594  0.00  0.00     0.224 C 
BRANCH   2   3
HETATM    3  O   UNK N   1      31.934  15.451   8.435  0.00  0.00    -0.220 OA
BRANCH   3   4
HETATM    4  N   UNK N   1      31.430  16.501   7.804  0.00  0.00     0.004 N 
HETATM    5  O   UNK N   1      31.132  17.584   8.487  0.00  0.00    -0.511 OA
HETATM    6  O   UNK N   1      31.350  16.517   6.612  0.00  0.00    -0.511 OA
ENDBRANCH   3   4
ENDBRANCH   2   3
ENDBRANCH   1   2
BRANCH   1   7
HETATM    7  C   UNK N   1      35.069  16.365   9.555  0.00  0.00     0.224 C 
BRANCH   7   8
HETATM    8  O   UNK N   1      34.393  17.542   9.291  0.00  0.00    -0.220 OA
BRANCH   8   9
HETATM    9  N   UNK N   1      34.772  18.361   8.324  0.00  0.00     0.004 N 
HETATM   10  O   UNK N   1      34.477  18.073   7.075  0.00  0.00    -0.511 OA
HETATM   11  O   UNK N   1      35.367  19.366   8.572  0.00  0.00    -0.511 OA
ENDBRANCH   8   9
ENDBRANCH   7   8
ENDBRANCH   1   7
BRANCH   1  12
HETATM   12  C   UNK N   1      34.561  14.472   8.084  0.00  0.00     0.224 C 
BRANCH  12  13
HETATM   13  O   UNK N   1      34.404  13.099   8.002  0.00  0.00    -0.220 OA
BRANCH  13  14
HETATM   14  N   UNK N   1      33.254  12.493   7.761  0.00  0.00     0.004 N 
HETATM   15  O   UNK N   1      32.653  12.694   6.606  0.00  0.00    -0.511 OA
HETATM   16  O   UNK N   1      32.788  11.727   8.544  0.00  0.00    -0.511 OA
ENDBRANCH  13  14
ENDBRANCH  12  13
ENDBRANCH   1  12
BRANCH   1  17
HETATM   17  C   UNK N   1      34.486  14.053  10.523  0.00  0.00     0.224 C 
BRANCH  17  18
HETATM   18  O   UNK N   1      34.477  14.575  11.805  0.00  0.00    -0.220 OA
BRANCH  18  19
HETATM   19  N   UNK N   1      35.161  14.081  12.821  0.00  0.00     0.004 N 
HETATM   20  O   UNK N   1      36.239  14.686  13.271  0.00  0.00    -0.511 OA
HETATM   21  O   UNK N   1      34.765  13.098  13.370  0.00  0.00    -0.511 OA
ENDBRANCH  18  19
ENDBRANCH  17  18
ENDBRANCH   1  17
TORSDOF 12
ENDMDL
MODEL 8
REMARK VINA RESULT:      -5.2     13.205     15.368
REMARK  12 active torsions:
REMARK  status: ('A' for Active; 'I' for Inactive)
REMARK    1  A    between atoms: N_2  and  O_4 
REMARK    2  A    between atoms: O_4  and  C_5 
REMARK    3  A    between atoms: C_5  and  C_6 
REMARK    4  A    between atoms: C_6  and  C_7 
REMARK    5  A    between atoms: C_6  and  C_12 
REMARK    6  A    between atoms: C_6  and  C_17 
REMARK    7  A    between atoms: C_7  and  O_8 
REMARK    8  A    between atoms: O_8  and  N_9 
REMARK    9  A    between atoms: C_12  and  O_13 
REMARK   10  A    between atoms: O_13  and  N_14 
REMARK   11  A    between atoms: C_17  and  O_18 
REMARK   12  A    between atoms: O_18  and  N_19 
ROOT
HETATM    1  C   UNK N   1      34.552  15.203   9.740  0.00  0.00     0.056 C 
ENDROOT
BRANCH   1   2
HETATM    2  C   UNK N   1      34.492  14.447  11.094  0.00  0.00     0.224 C 
BRANCH   2   3
HETATM    3  O   UNK N   1      35.443  14.846  12.019  0.00  0.00    -0.220 OA
BRANCH   3   4
HETATM    4  N   UNK N   1      35.607  14.259  13.195  0.00  0.00     0.004 N 
HETATM    5  O   UNK N   1      36.572  14.664  13.990  0.00  0.00    -0.511 OA
HETATM    6  O   UNK N   1      34.824  13.446  13.586  0.00  0.00    -0.511 OA
ENDBRANCH   3   4
ENDBRANCH   2   3
ENDBRANCH   1   2
BRANCH   1   7
HETATM    7  C   UNK N   1      33.188  15.072   9.031  0.00  0.00     0.224 C 
BRANCH   7   8
HETATM    8  O   UNK N   1      33.304  14.702   7.704  0.00  0.00    -0.220 OA
BRANCH   8   9
HETATM    9  N   UNK N   1      32.622  15.311   6.749  0.00  0.00     0.004 N 
HETATM   10  O   UNK N   1      32.849  15.006   5.490  0.00  0.00    -0.511 OA
HETATM   11  O   UNK N   1      31.790  16.126   7.017  0.00  0.00    -0.511 OA
ENDBRANCH   8   9
ENDBRANCH   7   8
ENDBRANCH   1   7
BRANCH   1  12
HETATM   12  C   UNK N   1      35.586  14.685   8.706  0.00  0.00     0.224 C 
BRANCH  12  13
HETATM   13  O   UNK N   1      36.315  13.571   9.087  0.00  0.00    -0.220 OA
BRANCH  13  14
HETATM   14  N   UNK N   1      37.550  13.615   9.558  0.00  0.00     0.004 N 
HETATM   15  O   UNK N   1      38.130  14.785   9.729  0.00  0.00    -0.511 OA
HETATM   16  O   UNK N   1      38.117  12.621   9.886  0.00  0.00    -0.511 OA
ENDBRANCH  13  14
ENDBRANCH  12  13
ENDBRANCH   1  12
BRANCH   1  17
HETATM   17  C   UNK N   1      34.937  16.680  10.020  0.00  0.00     0.224 C 
BRANCH  17  18
HETATM   18  O   UNK N   1      34.213  17.576   9.252  0.00  0.00    -0.220 OA
BRANCH  18  19
HETATM   19  N   UNK N   1      34.733  18.353   8.319  0.00  0.00     0.004 N 
HETATM   20  O   UNK N   1      35.469  19.397   8.638  0.00  0.00    -0.511 OA
HETATM   21  O   UNK N   1      34.575  18.074   7.169  0.00  0.00    -0.511 OA
ENDBRANCH  18  19
ENDBRANCH  17  18
ENDBRANCH   1  17
TORSDOF 12
ENDMDL
MODEL 9
REMARK VINA RESULT:      -5.2      0.732      4.715
REMARK  12 active torsions:
REMARK  status: ('A' for Active; 'I' for Inactive)
REMARK    1  A    between atoms: N_2  and  O_4 
REMARK    2  A    between atoms: O_4  and  C_5 
REMARK    3  A    between atoms: C_5  and  C_6 
REMARK    4  A    between atoms: C_6  and  C_7 
REMARK    5  A    between atoms: C_6  and  C_12 
REMARK    6  A    between atoms: C_6  and  C_17 
REMARK    7  A    between atoms: C_7  and  O_8 
REMARK    8  A    between atoms: O_8  and  N_9 
REMARK    9  A    between atoms: C_12  and  O_13 
REMARK   10  A    between atoms: O_13  and  N_14 
REMARK   11  A    between atoms: C_17  and  O_18 
REMARK   12  A    between atoms: O_18  and  N_19 
ROOT
HETATM    1  C   UNK N   1      21.314  18.197   3.868  0.00  0.00     0.056 C 
ENDROOT
BRANCH   1   2
HETATM    2  C   UNK N   1      22.804  18.507   3.567  0.00  0.00     0.224 C 
BRANCH   2   3
HETATM    3  O   UNK N   1      23.167  19.830   3.755  0.00  0.00    -0.220 OA
BRANCH   3   4
HETATM    4  N   UNK N   1      24.319  20.336   3.343  0.00  0.00     0.004 N 
HETATM    5  O   UNK N   1      24.408  20.840   2.133  0.00  0.00    -0.511 OA
HETATM    6  O   UNK N   1      25.243  20.440   4.094  0.00  0.00    -0.511 OA
ENDBRANCH   3   4
ENDBRANCH   2   3
ENDBRANCH   1   2
BRANCH   1   7
HETATM    7  C   UNK N   1      21.117  18.109   5.396  0.00  0.00     0.224 C 
BRANCH   7   8
HETATM    8  O   UNK N   1      20.549  16.915   5.798  0.00  0.00    -0.220 OA
BRANCH   8   9
HETATM    9  N   UNK N   1      20.106  16.735   7.031  0.00  0.00     0.004 N 
HETATM   10  O   UNK N   1      20.545  17.508   8.001  0.00  0.00    -0.511 OA
HETATM   11  O   UNK N   1      19.300  15.886   7.273  0.00  0.00    -0.511 OA
ENDBRANCH   8   9
ENDBRANCH   7   8
ENDBRANCH   1   7
BRANCH   1  12
HETATM   12  C   UNK N   1      20.765  16.852   3.322  0.00  0.00     0.224 C 
BRANCH  12  13
HETATM   13  O   UNK N   1      21.503  16.266   2.308  0.00  0.00    -0.220 OA
BRANCH  13  14
HETATM   14  N   UNK N   1      20.983  15.768   1.200  0.00  0.00     0.004 N 
HETATM   15  O   UNK N   1      20.943  14.461   1.041  0.00  0.00    -0.511 OA
HETATM   16  O   UNK N   1      20.497  16.479   0.377  0.00  0.00    -0.511 OA
ENDBRANCH  13  14
ENDBRANCH  12  13
ENDBRANCH   1  12
BRANCH   1  17
HETATM   17  C   UNK N   1      20.442  19.305   3.220  0.00  0.00     0.224 C 
BRANCH  17  18
HETATM   18  O   UNK N   1      20.635  19.406   1.853  0.00  0.00    -0.220 OA
BRANCH  18  19
HETATM   19  N   UNK N   1      20.950  20.523   1.221  0.00  0.00     0.004 N 
HETATM   20  O   UNK N   1      21.143  21.645   1.882  0.00  0.00    -0.511 OA
HETATM   21  O   UNK N   1      21.111  20.501   0.038  0.00  0.00    -0.511 OA
ENDBRANCH  18  19
ENDBRANCH  17  18
ENDBRANCH   1  17
TORSDOF 12
ENDMDL
