MODEL 1
REMARK VINA RESULT:      -4.4      0.000      0.000
REMARK WARNING: 32 MAX_TORS EXCEEDED!!!
REMARK  38 active torsions:
REMARK  status: ('A' for Active; 'I' for Inactive)
REMARK    1  A    between atoms: C_3  and  C_2 
REMARK    2  A    between atoms: C_4  and  C_3 
REMARK    3  A    between atoms: C_5  and  C_4 
REMARK    4  A    between atoms: C_6  and  C_5 
REMARK    5  A    between atoms: C_7  and  C_6 
REMARK    6  A    between atoms: C_8  and  C_7 
REMARK    7  A    between atoms: C_9  and  C_8 
REMARK    8  A    between atoms: C_10  and  C_9 
REMARK    9  A    between atoms: C_11  and  C_10 
REMARK   10  A    between atoms: C_13  and  C_11 
REMARK   11  A    between atoms: C_14  and  C_12 
REMARK   12  A    between atoms: O_31  and  C_12 
REMARK   13  A    between atoms: O_32  and  C_13 
REMARK   14  A    between atoms: O_33  and  C_14 
REMARK   15  A    between atoms: C_17  and  C_15 
REMARK   16  A    between atoms: O_32  and  C_15 
REMARK   17  A    between atoms: C_18  and  C_16 
REMARK   18  A    between atoms: O_33  and  C_16 
REMARK   19  A    between atoms: O_34  and  C_17 
REMARK   20  A    between atoms: O_35  and  C_18 
REMARK   21  A    between atoms: C_21  and  C_19 
REMARK   22  A    between atoms: O_34  and  C_19 
REMARK   23  A    between atoms: C_22  and  C_20 
REMARK   24  A    between atoms: O_35  and  C_20 
REMARK   25  A    between atoms: O_36  and  C_21 
REMARK   26  A    between atoms: O_37  and  C_22 
REMARK   27  A    between atoms: C_25  and  C_23 
REMARK   28  A    between atoms: O_36  and  C_23 
REMARK   29  A    between atoms: C_26  and  C_24 
REMARK   30  A    between atoms: O_37  and  C_24 
REMARK   31  A    between atoms: O_38  and  C_25 
REMARK   32  A    between atoms: O_39  and  C_26 
REMARK   33  A    between atoms: C_29  and  C_27 
REMARK   34  A    between atoms: O_38  and  C_27 
REMARK   35  A    between atoms: C_30  and  C_28 
REMARK   36  A    between atoms: O_39  and  C_28 
REMARK   37  A    between atoms: O_40  and  C_29 
REMARK   38  A    between atoms: O_40  and  C_30 
ROOT
HETATM    1  C   UNK N   1      20.371  16.217   8.723  0.00  0.00     0.193 C 
ENDROOT
BRANCH   1   2
HETATM    2  C   UNK N   1      20.809  15.011   7.897  0.00  0.00     0.193 C 
BRANCH   2   3
HETATM    3  O   UNK N   1      20.286  13.820   8.420  0.00  0.00    -0.387 OA
BRANCH   3   4
HETATM    4  C   UNK N   1      20.267  13.980   9.809  0.00  0.00     0.193 C 
BRANCH   4   5
HETATM    5  C   UNK N   1      20.960  12.816  10.506  0.00  0.00     0.193 C 
BRANCH   5   6
HETATM    6  O   UNK N   1      22.341  13.019  10.489  0.00  0.00    -0.387 OA
BRANCH   6   7
HETATM    7  C   UNK N   1      22.894  11.766  10.202  0.00  0.00     0.193 C 
BRANCH   7   8
HETATM    8  C   UNK N   1      23.863  11.878   9.037  0.00  0.00     0.193 C 
BRANCH   8   9
HETATM    9  O   UNK N   1      23.213  12.414   7.922  0.00  0.00    -0.389 OA
BRANCH   9  10
HETATM   10  C   UNK N   1      24.220  12.623   6.974  0.00  0.00     0.167 C 
BRANCH  10  11
HETATM   11  C   UNK N   1      25.283  13.558   7.531  0.00  0.00     0.026 C 
BRANCH  11  12
HETATM   12  C   UNK N   1      25.331  14.847   6.728  0.00  0.00     0.002 C 
BRANCH  12  13
HETATM   13  C   UNK N   1      26.210  14.665   5.500  0.00  0.00     0.000 C 
BRANCH  13  14
HETATM   14  C   UNK N   1      25.647  15.436   4.321  0.00  0.00     0.000 C 
BRANCH  14  15
HETATM   15  C   UNK N   1      25.037  16.742   4.788  0.00  0.00     0.000 C 
BRANCH  15  16
HETATM   16  C   UNK N   1      25.786  17.889   4.143  0.00  0.00     0.000 C 
BRANCH  16  17
HETATM   17  C   UNK N   1      25.044  19.185   4.377  0.00  0.00     0.000 C 
BRANCH  17  18
HETATM   18  C   UNK N   1      25.997  20.341   4.165  0.00  0.00     0.000 C 
BRANCH  18  19
HETATM   19  C   UNK N   1      27.390  19.939   4.600  0.00  0.00    -0.000 C 
BRANCH  19  20
HETATM   20  C   UNK N   1      27.628  20.418   6.017  0.00  0.00    -0.005 C 
HETATM   21  C   UNK N   1      26.782  21.645   6.283  0.00  0.00     0.005 C 
ENDBRANCH  19  20
ENDBRANCH  18  19
ENDBRANCH  17  18
ENDBRANCH  16  17
ENDBRANCH  15  16
ENDBRANCH  14  15
ENDBRANCH  13  14
ENDBRANCH  12  13
ENDBRANCH  11  12
ENDBRANCH  10  11
ENDBRANCH   9  10
ENDBRANCH   8   9
ENDBRANCH   7   8
ENDBRANCH   6   7
ENDBRANCH   5   6
ENDBRANCH   4   5
ENDBRANCH   3   4
ENDBRANCH   2   3
ENDBRANCH   1   2
BRANCH   1  22
HETATM   22  O   UNK N   1      20.707  17.400   8.057  0.00  0.00    -0.387 OA
BRANCH  22  23
HETATM   23  C   UNK N   1      21.308  16.982   6.866  0.00  0.00     0.193 C 
BRANCH  23  24
HETATM   24  C   UNK N   1      21.683  18.181   6.008  0.00  0.00     0.193 C 
BRANCH  24  25
HETATM   25  O   UNK N   1      21.374  17.952   4.665  0.00  0.00    -0.387 OA
BRANCH  25  26
HETATM   26  C   UNK N   1      21.322  19.222   4.086  0.00  0.00     0.193 C 
BRANCH  26  27
HETATM   27  C   UNK N   1      20.345  19.214   2.923  0.00  0.00     0.193 C 
BRANCH  27  28
HETATM   28  O   UNK N   1      19.768  17.946   2.797  0.00  0.00    -0.387 OA
BRANCH  28  29
HETATM   29  C   UNK N   1      20.059  17.549   1.489  0.00  0.00     0.193 C 
BRANCH  29  30
HETATM   30  C   UNK N   1      20.296  16.049   1.441  0.00  0.00     0.193 C 
BRANCH  30  31
HETATM   31  O   UNK N   1      19.553  15.476   0.407  0.00  0.00    -0.387 OA
BRANCH  31  32
HETATM   32  C   UNK N   1      19.184  14.224   0.905  0.00  0.00     0.193 C 
BRANCH  32  33
HETATM   33  C   UNK N   1      20.416  13.385   1.185  0.00  0.00     0.193 C 
BRANCH  33  34
HETATM   34  O   UNK N   1      20.101  12.387   2.108  0.00  0.00    -0.387 OA
BRANCH  34  35
HETATM   35  C   UNK N   1      18.803  12.677   2.535  0.00  0.00     0.193 C 
BRANCH  35  36
HETATM   36  C   UNK N   1      18.670  12.394   4.023  0.00  0.00     0.193 C 
BRANCH  36  37
HETATM   37  O   UNK N   1      18.126  13.505   4.666  0.00  0.00    -0.387 OA
BRANCH  37  38
HETATM   38  C   UNK N   1      19.134  14.469   4.623  0.00  0.00     0.193 C 
BRANCH  38  39
HETATM   39  C   UNK N   1      18.604  15.784   5.161  0.00  0.00     0.190 C 
BRANCH  39  40
HETATM   40  O   UNK N   1      17.333  15.588   5.700  0.00  0.00    -0.399 OA
HETATM   41  H   UNK N   1      16.528  15.968   5.313  0.00  0.00     0.209 HD
ENDBRANCH  39  40
ENDBRANCH  38  39
ENDBRANCH  37  38
ENDBRANCH  36  37
ENDBRANCH  35  36
ENDBRANCH  34  35
ENDBRANCH  33  34
ENDBRANCH  32  33
ENDBRANCH  31  32
ENDBRANCH  30  31
ENDBRANCH  29  30
ENDBRANCH  28  29
ENDBRANCH  27  28
ENDBRANCH  26  27
ENDBRANCH  25  26
ENDBRANCH  24  25
ENDBRANCH  23  24
ENDBRANCH  22  23
ENDBRANCH   1  22
TORSDOF 38
ENDMDL
MODEL 2
REMARK VINA RESULT:      -4.4      2.034      6.245
REMARK WARNING: 32 MAX_TORS EXCEEDED!!!
REMARK  38 active torsions:
REMARK  status: ('A' for Active; 'I' for Inactive)
REMARK    1  A    between atoms: C_3  and  C_2 
REMARK    2  A    between atoms: C_4  and  C_3 
REMARK    3  A    between atoms: C_5  and  C_4 
REMARK    4  A    between atoms: C_6  and  C_5 
REMARK    5  A    between atoms: C_7  and  C_6 
REMARK    6  A    between atoms: C_8  and  C_7 
REMARK    7  A    between atoms: C_9  and  C_8 
REMARK    8  A    between atoms: C_10  and  C_9 
REMARK    9  A    between atoms: C_11  and  C_10 
REMARK   10  A    between atoms: C_13  and  C_11 
REMARK   11  A    between atoms: C_14  and  C_12 
REMARK   12  A    between atoms: O_31  and  C_12 
REMARK   13  A    between atoms: O_32  and  C_13 
REMARK   14  A    between atoms: O_33  and  C_14 
REMARK   15  A    between atoms: C_17  and  C_15 
REMARK   16  A    between atoms: O_32  and  C_15 
REMARK   17  A    between atoms: C_18  and  C_16 
REMARK   18  A    between atoms: O_33  and  C_16 
REMARK   19  A    between atoms: O_34  and  C_17 
REMARK   20  A    between atoms: O_35  and  C_18 
REMARK   21  A    between atoms: C_21  and  C_19 
REMARK   22  A    between atoms: O_34  and  C_19 
REMARK   23  A    between atoms: C_22  and  C_20 
REMARK   24  A    between atoms: O_35  and  C_20 
REMARK   25  A    between atoms: O_36  and  C_21 
REMARK   26  A    between atoms: O_37  and  C_22 
REMARK   27  A    between atoms: C_25  and  C_23 
REMARK   28  A    between atoms: O_36  and  C_23 
REMARK   29  A    between atoms: C_26  and  C_24 
REMARK   30  A    between atoms: O_37  and  C_24 
REMARK   31  A    between atoms: O_38  and  C_25 
REMARK   32  A    between atoms: O_39  and  C_26 
REMARK   33  A    between atoms: C_29  and  C_27 
REMARK   34  A    between atoms: O_38  and  C_27 
REMARK   35  A    between atoms: C_30  and  C_28 
REMARK   36  A    between atoms: O_39  and  C_28 
REMARK   37  A    between atoms: O_40  and  C_29 
REMARK   38  A    between atoms: O_40  and  C_30 
ROOT
HETATM    1  C   UNK N   1      19.648  17.007   8.612  0.00  0.00     0.193 C 
ENDROOT
BRANCH   1   2
HETATM    2  C   UNK N   1      20.565  17.088   7.396  0.00  0.00     0.193 C 
BRANCH   2   3
HETATM    3  O   UNK N   1      21.012  18.400   7.183  0.00  0.00    -0.387 OA
BRANCH   3   4
HETATM    4  C   UNK N   1      21.824  18.355   6.046  0.00  0.00     0.193 C 
BRANCH   4   5
HETATM    5  C   UNK N   1      20.993  18.439   4.772  0.00  0.00     0.193 C 
BRANCH   5   6
HETATM    6  O   UNK N   1      20.771  19.780   4.450  0.00  0.00    -0.387 OA
BRANCH   6   7
HETATM    7  C   UNK N   1      20.769  19.827   3.052  0.00  0.00     0.193 C 
BRANCH   7   8
HETATM    8  C   UNK N   1      21.643  20.971   2.567  0.00  0.00     0.193 C 
BRANCH   8   9
HETATM    9  O   UNK N   1      22.812  20.471   1.988  0.00  0.00    -0.389 OA
BRANCH   9  10
HETATM   10  C   UNK N   1      23.802  20.624   2.964  0.00  0.00     0.167 C 
BRANCH  10  11
HETATM   11  C   UNK N   1      24.317  19.264   3.411  0.00  0.00     0.026 C 
BRANCH  11  12
HETATM   12  C   UNK N   1      25.827  19.296   3.578  0.00  0.00     0.002 C 
BRANCH  12  13
HETATM   13  C   UNK N   1      26.371  17.880   3.679  0.00  0.00     0.000 C 
BRANCH  13  14
HETATM   14  C   UNK N   1      27.885  17.895   3.790  0.00  0.00     0.000 C 
BRANCH  14  15
HETATM   15  C   UNK N   1      28.336  17.048   4.962  0.00  0.00     0.000 C 
BRANCH  15  16
HETATM   16  C   UNK N   1      28.844  17.961   6.057  0.00  0.00     0.000 C 
BRANCH  16  17
HETATM   17  C   UNK N   1      27.702  18.362   6.965  0.00  0.00     0.000 C 
BRANCH  17  18
HETATM   18  C   UNK N   1      27.883  19.808   7.370  0.00  0.00     0.000 C 
BRANCH  18  19
HETATM   19  C   UNK N   1      27.711  20.701   6.160  0.00  0.00    -0.000 C 
BRANCH  19  20
HETATM   20  C   UNK N   1      26.508  21.597   6.368  0.00  0.00    -0.005 C 
HETATM   21  C   UNK N   1      26.056  21.509   7.810  0.00  0.00     0.005 C 
ENDBRANCH  19  20
ENDBRANCH  18  19
ENDBRANCH  17  18
ENDBRANCH  16  17
ENDBRANCH  15  16
ENDBRANCH  14  15
ENDBRANCH  13  14
ENDBRANCH  12  13
ENDBRANCH  11  12
ENDBRANCH  10  11
ENDBRANCH   9  10
ENDBRANCH   8   9
ENDBRANCH   7   8
ENDBRANCH   6   7
ENDBRANCH   5   6
ENDBRANCH   4   5
ENDBRANCH   3   4
ENDBRANCH   2   3
ENDBRANCH   1   2
BRANCH   1  22
HETATM   22  O   UNK N   1      19.254  15.682   8.827  0.00  0.00    -0.387 OA
BRANCH  22  23
HETATM   23  C   UNK N   1      20.417  14.929   8.645  0.00  0.00     0.193 C 
BRANCH  23  24
HETATM   24  C   UNK N   1      20.619  13.970   9.809  0.00  0.00     0.193 C 
BRANCH  24  25
HETATM   25  O   UNK N   1      21.979  13.768  10.061  0.00  0.00    -0.387 OA
BRANCH  25  26
HETATM   26  C   UNK N   1      22.097  12.402  10.323  0.00  0.00     0.193 C 
BRANCH  26  27
HETATM   27  C   UNK N   1      23.073  11.776   9.341  0.00  0.00     0.193 C 
BRANCH  27  28
HETATM   28  O   UNK N   1      23.394  12.698   8.340  0.00  0.00    -0.387 OA
BRANCH  28  29
HETATM   29  C   UNK N   1      22.954  12.104   7.153  0.00  0.00     0.193 C 
BRANCH  29  30
HETATM   30  C   UNK N   1      22.968  13.122   6.026  0.00  0.00     0.193 C 
BRANCH  30  31
HETATM   31  O   UNK N   1      24.266  13.287   5.540  0.00  0.00    -0.387 OA
BRANCH  31  32
HETATM   32  C   UNK N   1      24.450  14.671   5.520  0.00  0.00     0.193 C 
BRANCH  32  33
HETATM   33  C   UNK N   1      23.421  15.325   4.618  0.00  0.00     0.193 C 
BRANCH  33  34
HETATM   34  O   UNK N   1      23.969  15.522   3.350  0.00  0.00    -0.387 OA
BRANCH  34  35
HETATM   35  C   UNK N   1      23.161  14.782   2.482  0.00  0.00     0.193 C 
BRANCH  35  36
HETATM   36  C   UNK N   1      21.699  14.951   2.860  0.00  0.00     0.193 C 
BRANCH  36  37
HETATM   37  O   UNK N   1      21.168  16.060   2.202  0.00  0.00    -0.387 OA
BRANCH  37  38
HETATM   38  C   UNK N   1      20.851  15.597   0.925  0.00  0.00     0.193 C 
BRANCH  38  39
HETATM   39  C   UNK N   1      19.346  15.471   0.788  0.00  0.00     0.190 C 
BRANCH  39  40
HETATM   40  O   UNK N   1      18.829  16.642   0.236  0.00  0.00    -0.399 OA
HETATM   41  H   UNK N   1      19.376  17.413   0.016  0.00  0.00     0.209 HD
ENDBRANCH  39  40
ENDBRANCH  38  39
ENDBRANCH  37  38
ENDBRANCH  36  37
ENDBRANCH  35  36
ENDBRANCH  34  35
ENDBRANCH  33  34
ENDBRANCH  32  33
ENDBRANCH  31  32
ENDBRANCH  30  31
ENDBRANCH  29  30
ENDBRANCH  28  29
ENDBRANCH  27  28
ENDBRANCH  26  27
ENDBRANCH  25  26
ENDBRANCH  24  25
ENDBRANCH  23  24
ENDBRANCH  22  23
ENDBRANCH   1  22
TORSDOF 38
ENDMDL
MODEL 3
REMARK VINA RESULT:      -4.3      6.020     11.475
REMARK WARNING: 32 MAX_TORS EXCEEDED!!!
REMARK  38 active torsions:
REMARK  status: ('A' for Active; 'I' for Inactive)
REMARK    1  A    between atoms: C_3  and  C_2 
REMARK    2  A    between atoms: C_4  and  C_3 
REMARK    3  A    between atoms: C_5  and  C_4 
REMARK    4  A    between atoms: C_6  and  C_5 
REMARK    5  A    between atoms: C_7  and  C_6 
REMARK    6  A    between atoms: C_8  and  C_7 
REMARK    7  A    between atoms: C_9  and  C_8 
REMARK    8  A    between atoms: C_10  and  C_9 
REMARK    9  A    between atoms: C_11  and  C_10 
REMARK   10  A    between atoms: C_13  and  C_11 
REMARK   11  A    between atoms: C_14  and  C_12 
REMARK   12  A    between atoms: O_31  and  C_12 
REMARK   13  A    between atoms: O_32  and  C_13 
REMARK   14  A    between atoms: O_33  and  C_14 
REMARK   15  A    between atoms: C_17  and  C_15 
REMARK   16  A    between atoms: O_32  and  C_15 
REMARK   17  A    between atoms: C_18  and  C_16 
REMARK   18  A    between atoms: O_33  and  C_16 
REMARK   19  A    between atoms: O_34  and  C_17 
REMARK   20  A    between atoms: O_35  and  C_18 
REMARK   21  A    between atoms: C_21  and  C_19 
REMARK   22  A    between atoms: O_34  and  C_19 
REMARK   23  A    between atoms: C_22  and  C_20 
REMARK   24  A    between atoms: O_35  and  C_20 
REMARK   25  A    between atoms: O_36  and  C_21 
REMARK   26  A    between atoms: O_37  and  C_22 
REMARK   27  A    between atoms: C_25  and  C_23 
REMARK   28  A    between atoms: O_36  and  C_23 
REMARK   29  A    between atoms: C_26  and  C_24 
REMARK   30  A    between atoms: O_37  and  C_24 
REMARK   31  A    between atoms: O_38  and  C_25 
REMARK   32  A    between atoms: O_39  and  C_26 
REMARK   33  A    between atoms: C_29  and  C_27 
REMARK   34  A    between atoms: O_38  and  C_27 
REMARK   35  A    between atoms: C_30  and  C_28 
REMARK   36  A    between atoms: O_39  and  C_28 
REMARK   37  A    between atoms: O_40  and  C_29 
REMARK   38  A    between atoms: O_40  and  C_30 
ROOT
HETATM    1  C   UNK N   1      27.501  20.029   5.416  0.00  0.00     0.193 C 
ENDROOT
BRANCH   1   2
HETATM    2  C   UNK N   1      26.209  20.562   4.804  0.00  0.00     0.193 C 
BRANCH   2   3
HETATM    3  O   UNK N   1      26.158  20.308   3.425  0.00  0.00    -0.387 OA
BRANCH   3   4
HETATM    4  C   UNK N   1      24.805  20.343   3.074  0.00  0.00     0.193 C 
BRANCH   4   5
HETATM    5  C   UNK N   1      24.018  19.266   3.809  0.00  0.00     0.193 C 
BRANCH   5   6
HETATM    6  O   UNK N   1      22.652  19.452   3.582  0.00  0.00    -0.387 OA
BRANCH   6   7
HETATM    7  C   UNK N   1      22.030  18.333   4.145  0.00  0.00     0.193 C 
BRANCH   7   8
HETATM    8  C   UNK N   1      22.646  18.020   5.499  0.00  0.00     0.193 C 
BRANCH   8   9
HETATM    9  O   UNK N   1      21.983  16.941   6.091  0.00  0.00    -0.389 OA
BRANCH   9  10
HETATM   10  C   UNK N   1      20.943  17.509   6.833  0.00  0.00     0.167 C 
BRANCH  10  11
HETATM   11  C   UNK N   1      20.075  16.419   7.443  0.00  0.00     0.026 C 
BRANCH  11  12
HETATM   12  C   UNK N   1      20.677  15.928   8.749  0.00  0.00     0.002 C 
BRANCH  12  13
HETATM   13  C   UNK N   1      21.104  14.475   8.613  0.00  0.00     0.000 C 
BRANCH  13  14
HETATM   14  C   UNK N   1      20.748  13.695   9.865  0.00  0.00     0.000 C 
BRANCH  14  15
HETATM   15  C   UNK N   1      21.985  13.043  10.449  0.00  0.00     0.000 C 
BRANCH  15  16
HETATM   16  C   UNK N   1      23.177  13.401   9.588  0.00  0.00     0.000 C 
BRANCH  16  17
HETATM   17  C   UNK N   1      24.101  12.210   9.467  0.00  0.00     0.000 C 
BRANCH  17  18
HETATM   18  C   UNK N   1      23.324  11.042   8.900  0.00  0.00     0.000 C 
BRANCH  18  19
HETATM   19  C   UNK N   1      23.087  11.257   7.421  0.00  0.00    -0.000 C 
BRANCH  19  20
HETATM   20  C   UNK N   1      23.998  10.340   6.631  0.00  0.00    -0.005 C 
HETATM   21  C   UNK N   1      23.621   8.899   6.902  0.00  0.00     0.005 C 
ENDBRANCH  19  20
ENDBRANCH  18  19
ENDBRANCH  17  18
ENDBRANCH  16  17
ENDBRANCH  15  16
ENDBRANCH  14  15
ENDBRANCH  13  14
ENDBRANCH  12  13
ENDBRANCH  11  12
ENDBRANCH  10  11
ENDBRANCH   9  10
ENDBRANCH   8   9
ENDBRANCH   7   8
ENDBRANCH   6   7
ENDBRANCH   5   6
ENDBRANCH   4   5
ENDBRANCH   3   4
ENDBRANCH   2   3
ENDBRANCH   1   2
BRANCH   1  22
HETATM   22  O   UNK N   1      27.547  20.339   6.780  0.00  0.00    -0.387 OA
BRANCH  22  23
HETATM   23  C   UNK N   1      28.040  19.184   7.393  0.00  0.00     0.193 C 
BRANCH  23  24
HETATM   24  C   UNK N   1      28.624  18.237   6.354  0.00  0.00     0.193 C 
BRANCH  24  25
HETATM   25  O   UNK N   1      28.719  16.937   6.859  0.00  0.00    -0.387 OA
BRANCH  25  26
HETATM   26  C   UNK N   1      28.453  16.107   5.768  0.00  0.00     0.193 C 
BRANCH  26  27
HETATM   27  C   UNK N   1      29.749  15.504   5.257  0.00  0.00     0.193 C 
BRANCH  27  28
HETATM   28  O   UNK N   1      29.947  15.867   3.922  0.00  0.00    -0.387 OA
BRANCH  28  29
HETATM   29  C   UNK N   1      30.948  16.842   3.961  0.00  0.00     0.193 C 
BRANCH  29  30
HETATM   30  C   UNK N   1      32.224  16.302   3.336  0.00  0.00     0.193 C 
BRANCH  30  31
HETATM   31  O   UNK N   1      33.131  15.935   4.332  0.00  0.00    -0.387 OA
BRANCH  31  32
HETATM   32  C   UNK N   1      33.299  17.097   5.087  0.00  0.00     0.193 C 
BRANCH  32  33
HETATM   33  C   UNK N   1      34.125  16.806   6.325  0.00  0.00     0.193 C 
BRANCH  33  34
HETATM   34  O   UNK N   1      34.620  18.001   6.848  0.00  0.00    -0.387 OA
BRANCH  34  35
HETATM   35  C   UNK N   1      34.089  18.087   8.137  0.00  0.00     0.193 C 
BRANCH  35  36
HETATM   36  C   UNK N   1      34.696  17.011   9.023  0.00  0.00     0.193 C 
BRANCH  36  37
HETATM   37  O   UNK N   1      35.304  17.602  10.130  0.00  0.00    -0.387 OA
BRANCH  37  38
HETATM   38  C   UNK N   1      35.549  16.544  11.007  0.00  0.00     0.193 C 
BRANCH  38  39
HETATM   39  C   UNK N   1      36.180  15.392  10.250  0.00  0.00     0.190 C 
BRANCH  39  40
HETATM   40  O   UNK N   1      36.962  14.635  11.121  0.00  0.00    -0.399 OA
HETATM   41  H   UNK N   1      37.159  14.907  12.032  0.00  0.00     0.209 HD
ENDBRANCH  39  40
ENDBRANCH  38  39
ENDBRANCH  37  38
ENDBRANCH  36  37
ENDBRANCH  35  36
ENDBRANCH  34  35
ENDBRANCH  33  34
ENDBRANCH  32  33
ENDBRANCH  31  32
ENDBRANCH  30  31
ENDBRANCH  29  30
ENDBRANCH  28  29
ENDBRANCH  27  28
ENDBRANCH  26  27
ENDBRANCH  25  26
ENDBRANCH  24  25
ENDBRANCH  23  24
ENDBRANCH  22  23
ENDBRANCH   1  22
TORSDOF 38
ENDMDL
MODEL 4
REMARK VINA RESULT:      -4.2      3.727      7.385
REMARK WARNING: 32 MAX_TORS EXCEEDED!!!
REMARK  38 active torsions:
REMARK  status: ('A' for Active; 'I' for Inactive)
REMARK    1  A    between atoms: C_3  and  C_2 
REMARK    2  A    between atoms: C_4  and  C_3 
REMARK    3  A    between atoms: C_5  and  C_4 
REMARK    4  A    between atoms: C_6  and  C_5 
REMARK    5  A    between atoms: C_7  and  C_6 
REMARK    6  A    between atoms: C_8  and  C_7 
REMARK    7  A    between atoms: C_9  and  C_8 
REMARK    8  A    between atoms: C_10  and  C_9 
REMARK    9  A    between atoms: C_11  and  C_10 
REMARK   10  A    between atoms: C_13  and  C_11 
REMARK   11  A    between atoms: C_14  and  C_12 
REMARK   12  A    between atoms: O_31  and  C_12 
REMARK   13  A    between atoms: O_32  and  C_13 
REMARK   14  A    between atoms: O_33  and  C_14 
REMARK   15  A    between atoms: C_17  and  C_15 
REMARK   16  A    between atoms: O_32  and  C_15 
REMARK   17  A    between atoms: C_18  and  C_16 
REMARK   18  A    between atoms: O_33  and  C_16 
REMARK   19  A    between atoms: O_34  and  C_17 
REMARK   20  A    between atoms: O_35  and  C_18 
REMARK   21  A    between atoms: C_21  and  C_19 
REMARK   22  A    between atoms: O_34  and  C_19 
REMARK   23  A    between atoms: C_22  and  C_20 
REMARK   24  A    between atoms: O_35  and  C_20 
REMARK   25  A    between atoms: O_36  and  C_21 
REMARK   26  A    between atoms: O_37  and  C_22 
REMARK   27  A    between atoms: C_25  and  C_23 
REMARK   28  A    between atoms: O_36  and  C_23 
REMARK   29  A    between atoms: C_26  and  C_24 
REMARK   30  A    between atoms: O_37  and  C_24 
REMARK   31  A    between atoms: O_38  and  C_25 
REMARK   32  A    between atoms: O_39  and  C_26 
REMARK   33  A    between atoms: C_29  and  C_27 
REMARK   34  A    between atoms: O_38  and  C_27 
REMARK   35  A    between atoms: C_30  and  C_28 
REMARK   36  A    between atoms: O_39  and  C_28 
REMARK   37  A    between atoms: O_40  and  C_29 
REMARK   38  A    between atoms: O_40  and  C_30 
ROOT
HETATM    1  C   UNK N   1      24.520  13.826   5.447  0.00  0.00     0.193 C 
ENDROOT
BRANCH   1   2
HETATM    2  C   UNK N   1      23.649  14.408   4.337  0.00  0.00     0.193 C 
BRANCH   2   3
HETATM    3  O   UNK N   1      24.213  14.176   3.074  0.00  0.00    -0.387 OA
BRANCH   3   4
HETATM    4  C   UNK N   1      25.326  15.018   2.985  0.00  0.00     0.193 C 
BRANCH   4   5
HETATM    5  C   UNK N   1      26.489  14.322   2.291  0.00  0.00     0.193 C 
BRANCH   5   6
HETATM    6  O   UNK N   1      27.320  13.738   3.250  0.00  0.00    -0.387 OA
BRANCH   6   7
HETATM    7  C   UNK N   1      27.875  14.809   3.957  0.00  0.00     0.193 C 
BRANCH   7   8
HETATM    8  C   UNK N   1      28.944  15.491   3.118  0.00  0.00     0.193 C 
BRANCH   8   9
HETATM    9  O   UNK N   1      28.736  16.872   3.105  0.00  0.00    -0.389 OA
BRANCH   9  10
HETATM   10  C   UNK N   1      28.397  17.206   4.420  0.00  0.00     0.167 C 
BRANCH  10  11
HETATM   11  C   UNK N   1      29.585  17.843   5.125  0.00  0.00     0.026 C 
BRANCH  11  12
HETATM   12  C   UNK N   1      29.476  17.652   6.629  0.00  0.00     0.002 C 
BRANCH  12  13
HETATM   13  C   UNK N   1      30.273  16.431   7.059  0.00  0.00     0.000 C 
BRANCH  13  14
HETATM   14  C   UNK N   1      30.916  16.663   8.415  0.00  0.00     0.000 C 
BRANCH  14  15
HETATM   15  C   UNK N   1      31.754  17.925   8.391  0.00  0.00     0.000 C 
BRANCH  15  16
HETATM   16  C   UNK N   1      33.209  17.548   8.572  0.00  0.00     0.000 C 
BRANCH  16  17
HETATM   17  C   UNK N   1      34.013  18.008   7.378  0.00  0.00     0.000 C 
BRANCH  17  18
HETATM   18  C   UNK N   1      33.928  16.956   6.294  0.00  0.00     0.000 C 
BRANCH  18  19
HETATM   19  C   UNK N   1      33.140  17.495   5.120  0.00  0.00    -0.000 C 
BRANCH  19  20
HETATM   20  C   UNK N   1      32.938  16.391   4.104  0.00  0.00    -0.005 C 
HETATM   21  C   UNK N   1      32.489  16.991   2.789  0.00  0.00     0.005 C 
ENDBRANCH  19  20
ENDBRANCH  18  19
ENDBRANCH  17  18
ENDBRANCH  16  17
ENDBRANCH  15  16
ENDBRANCH  14  15
ENDBRANCH  13  14
ENDBRANCH  12  13
ENDBRANCH  11  12
ENDBRANCH  10  11
ENDBRANCH   9  10
ENDBRANCH   8   9
ENDBRANCH   7   8
ENDBRANCH   6   7
ENDBRANCH   5   6
ENDBRANCH   4   5
ENDBRANCH   3   4
ENDBRANCH   2   3
ENDBRANCH   1   2
BRANCH   1  22
HETATM   22  O   UNK N   1      23.875  12.734   6.038  0.00  0.00    -0.387 OA
BRANCH  22  23
HETATM   23  C   UNK N   1      24.645  12.431   7.164  0.00  0.00     0.193 C 
BRANCH  23  24
HETATM   24  C   UNK N   1      24.892  13.682   7.994  0.00  0.00     0.193 C 
BRANCH  24  25
HETATM   25  O   UNK N   1      24.997  13.370   9.352  0.00  0.00    -0.387 OA
BRANCH  25  26
HETATM   26  C   UNK N   1      24.114  12.306   9.546  0.00  0.00     0.193 C 
BRANCH  26  27
HETATM   27  C   UNK N   1      22.944  12.763  10.400  0.00  0.00     0.193 C 
BRANCH  27  28
HETATM   28  O   UNK N   1      21.753  12.233   9.895  0.00  0.00    -0.387 OA
BRANCH  28  29
HETATM   29  C   UNK N   1      20.767  13.151  10.266  0.00  0.00     0.193 C 
BRANCH  29  30
HETATM   30  C   UNK N   1      20.967  14.459   9.518  0.00  0.00     0.193 C 
BRANCH  30  31
HETATM   31  O   UNK N   1      20.428  14.368   8.233  0.00  0.00    -0.387 OA
BRANCH  31  32
HETATM   32  C   UNK N   1      21.405  14.934   7.412  0.00  0.00     0.193 C 
BRANCH  32  33
HETATM   33  C   UNK N   1      20.817  16.077   6.606  0.00  0.00     0.193 C 
BRANCH  33  34
HETATM   34  O   UNK N   1      21.349  17.286   7.054  0.00  0.00    -0.387 OA
BRANCH  34  35
HETATM   35  C   UNK N   1      22.025  17.821   5.954  0.00  0.00     0.193 C 
BRANCH  35  36
HETATM   36  C   UNK N   1      21.290  17.470   4.671  0.00  0.00     0.193 C 
BRANCH  36  37
HETATM   37  O   UNK N   1      20.578  18.581   4.218  0.00  0.00    -0.387 OA
BRANCH  37  38
HETATM   38  C   UNK N   1      20.882  18.668   2.859  0.00  0.00     0.193 C 
BRANCH  38  39
HETATM   39  C   UNK N   1      19.780  18.014   2.048  0.00  0.00     0.190 C 
BRANCH  39  40
HETATM   40  O   UNK N   1      18.545  18.528   2.441  0.00  0.00    -0.399 OA
HETATM   41  H   UNK N   1      18.404  19.464   2.658  0.00  0.00     0.209 HD
ENDBRANCH  39  40
ENDBRANCH  38  39
ENDBRANCH  37  38
ENDBRANCH  36  37
ENDBRANCH  35  36
ENDBRANCH  34  35
ENDBRANCH  33  34
ENDBRANCH  32  33
ENDBRANCH  31  32
ENDBRANCH  30  31
ENDBRANCH  29  30
ENDBRANCH  28  29
ENDBRANCH  27  28
ENDBRANCH  26  27
ENDBRANCH  25  26
ENDBRANCH  24  25
ENDBRANCH  23  24
ENDBRANCH  22  23
ENDBRANCH   1  22
TORSDOF 38
ENDMDL
MODEL 5
REMARK VINA RESULT:      -4.2      3.844      7.467
REMARK WARNING: 32 MAX_TORS EXCEEDED!!!
REMARK  38 active torsions:
REMARK  status: ('A' for Active; 'I' for Inactive)
REMARK    1  A    between atoms: C_3  and  C_2 
REMARK    2  A    between atoms: C_4  and  C_3 
REMARK    3  A    between atoms: C_5  and  C_4 
REMARK    4  A    between atoms: C_6  and  C_5 
REMARK    5  A    between atoms: C_7  and  C_6 
REMARK    6  A    between atoms: C_8  and  C_7 
REMARK    7  A    between atoms: C_9  and  C_8 
REMARK    8  A    between atoms: C_10  and  C_9 
REMARK    9  A    between atoms: C_11  and  C_10 
REMARK   10  A    between atoms: C_13  and  C_11 
REMARK   11  A    between atoms: C_14  and  C_12 
REMARK   12  A    between atoms: O_31  and  C_12 
REMARK   13  A    between atoms: O_32  and  C_13 
REMARK   14  A    between atoms: O_33  and  C_14 
REMARK   15  A    between atoms: C_17  and  C_15 
REMARK   16  A    between atoms: O_32  and  C_15 
REMARK   17  A    between atoms: C_18  and  C_16 
REMARK   18  A    between atoms: O_33  and  C_16 
REMARK   19  A    between atoms: O_34  and  C_17 
REMARK   20  A    between atoms: O_35  and  C_18 
REMARK   21  A    between atoms: C_21  and  C_19 
REMARK   22  A    between atoms: O_34  and  C_19 
REMARK   23  A    between atoms: C_22  and  C_20 
REMARK   24  A    between atoms: O_35  and  C_20 
REMARK   25  A    between atoms: O_36  and  C_21 
REMARK   26  A    between atoms: O_37  and  C_22 
REMARK   27  A    between atoms: C_25  and  C_23 
REMARK   28  A    between atoms: O_36  and  C_23 
REMARK   29  A    between atoms: C_26  and  C_24 
REMARK   30  A    between atoms: O_37  and  C_24 
REMARK   31  A    between atoms: O_38  and  C_25 
REMARK   32  A    between atoms: O_39  and  C_26 
REMARK   33  A    between atoms: C_29  and  C_27 
REMARK   34  A    between atoms: O_38  and  C_27 
REMARK   35  A    between atoms: C_30  and  C_28 
REMARK   36  A    between atoms: O_39  and  C_28 
REMARK   37  A    between atoms: O_40  and  C_29 
REMARK   38  A    between atoms: O_40  and  C_30 
ROOT
HETATM    1  C   UNK N   1      21.419  20.826   2.693  0.00  0.00     0.193 C 
ENDROOT
BRANCH   1   2
HETATM    2  C   UNK N   1      22.796  20.170   2.675  0.00  0.00     0.193 C 
BRANCH   2   3
HETATM    3  O   UNK N   1      23.799  21.083   3.031  0.00  0.00    -0.387 OA
BRANCH   3   4
HETATM    4  C   UNK N   1      24.994  20.359   3.055  0.00  0.00     0.193 C 
BRANCH   4   5
HETATM    5  C   UNK N   1      25.512  20.200   4.479  0.00  0.00     0.193 C 
BRANCH   5   6
HETATM    6  O   UNK N   1      26.739  20.856   4.603  0.00  0.00    -0.387 OA
BRANCH   6   7
HETATM    7  C   UNK N   1      27.629  19.885   5.075  0.00  0.00     0.193 C 
BRANCH   7   8
HETATM    8  C   UNK N   1      27.557  19.802   6.590  0.00  0.00     0.193 C 
BRANCH   8   9
HETATM    9  O   UNK N   1      28.208  18.650   7.040  0.00  0.00    -0.389 OA
BRANCH   9  10
HETATM   10  C   UNK N   1      28.196  18.742   8.436  0.00  0.00     0.167 C 
BRANCH  10  11
HETATM   11  C   UNK N   1      29.399  18.018   9.021  0.00  0.00     0.026 C 
BRANCH  11  12
HETATM   12  C   UNK N   1      30.373  17.629   7.922  0.00  0.00     0.002 C 
BRANCH  12  13
HETATM   13  C   UNK N   1      31.782  18.061   8.297  0.00  0.00     0.000 C 
BRANCH  13  14
HETATM   14  C   UNK N   1      32.767  16.930   8.062  0.00  0.00     0.000 C 
BRANCH  14  15
HETATM   15  C   UNK N   1      32.487  16.254   6.736  0.00  0.00     0.000 C 
BRANCH  15  16
HETATM   16  C   UNK N   1      33.194  17.019   5.638  0.00  0.00     0.000 C 
BRANCH  16  17
HETATM   17  C   UNK N   1      32.190  17.496   4.613  0.00  0.00     0.000 C 
BRANCH  17  18
HETATM   18  C   UNK N   1      32.594  16.974   3.252  0.00  0.00     0.000 C 
BRANCH  18  19
HETATM   19  C   UNK N   1      33.526  15.793   3.414  0.00  0.00    -0.000 C 
BRANCH  19  20
HETATM   20  C   UNK N   1      32.879  14.561   2.816  0.00  0.00    -0.005 C 
HETATM   21  C   UNK N   1      31.962  13.925   3.839  0.00  0.00     0.005 C 
ENDBRANCH  19  20
ENDBRANCH  18  19
ENDBRANCH  17  18
ENDBRANCH  16  17
ENDBRANCH  15  16
ENDBRANCH  14  15
ENDBRANCH  13  14
ENDBRANCH  12  13
ENDBRANCH  11  12
ENDBRANCH  10  11
ENDBRANCH   9  10
ENDBRANCH   8   9
ENDBRANCH   7   8
ENDBRANCH   6   7
ENDBRANCH   5   6
ENDBRANCH   4   5
ENDBRANCH   3   4
ENDBRANCH   2   3
ENDBRANCH   1   2
BRANCH   1  22
HETATM   22  O   UNK N   1      20.623  20.296   1.672  0.00  0.00    -0.387 OA
BRANCH  22  23
HETATM   23  C   UNK N   1      20.649  18.914   1.880  0.00  0.00     0.193 C 
BRANCH  23  24
HETATM   24  C   UNK N   1      19.568  18.502   2.869  0.00  0.00     0.193 C 
BRANCH  24  25
HETATM   25  O   UNK N   1      19.780  17.199   3.329  0.00  0.00    -0.387 OA
BRANCH  25  26
HETATM   26  C   UNK N   1      21.042  17.230   3.927  0.00  0.00     0.193 C 
BRANCH  26  27
HETATM   27  C   UNK N   1      21.083  16.245   5.082  0.00  0.00     0.193 C 
BRANCH  27  28
HETATM   28  O   UNK N   1      19.783  15.858   5.422  0.00  0.00    -0.387 OA
BRANCH  28  29
HETATM   29  C   UNK N   1      19.608  16.306   6.734  0.00  0.00     0.193 C 
BRANCH  29  30
HETATM   30  C   UNK N   1      20.956  16.434   7.424  0.00  0.00     0.193 C 
BRANCH  30  31
HETATM   31  O   UNK N   1      20.792  16.420   8.811  0.00  0.00    -0.387 OA
BRANCH  31  32
HETATM   32  C   UNK N   1      20.151  15.206   9.066  0.00  0.00     0.193 C 
BRANCH  32  33
HETATM   33  C   UNK N   1      21.147  14.183   9.579  0.00  0.00     0.193 C 
BRANCH  33  34
HETATM   34  O   UNK N   1      20.787  12.913   9.127  0.00  0.00    -0.387 OA
BRANCH  34  35
HETATM   35  C   UNK N   1      21.748  12.577   8.171  0.00  0.00     0.193 C 
BRANCH  35  36
HETATM   36  C   UNK N   1      23.100  12.384   8.838  0.00  0.00     0.193 C 
BRANCH  36  37
HETATM   37  O   UNK N   1      24.109  12.422   7.876  0.00  0.00    -0.387 OA
BRANCH  37  38
HETATM   38  C   UNK N   1      23.931  13.642   7.222  0.00  0.00     0.193 C 
BRANCH  38  39
HETATM   39  C   UNK N   1      25.271  14.333   7.060  0.00  0.00     0.190 C 
BRANCH  39  40
HETATM   40  O   UNK N   1      25.069  15.687   6.801  0.00  0.00    -0.399 OA
HETATM   41  H   UNK N   1      25.667  16.219   6.252  0.00  0.00     0.209 HD
ENDBRANCH  39  40
ENDBRANCH  38  39
ENDBRANCH  37  38
ENDBRANCH  36  37
ENDBRANCH  35  36
ENDBRANCH  34  35
ENDBRANCH  33  34
ENDBRANCH  32  33
ENDBRANCH  31  32
ENDBRANCH  30  31
ENDBRANCH  29  30
ENDBRANCH  28  29
ENDBRANCH  27  28
ENDBRANCH  26  27
ENDBRANCH  25  26
ENDBRANCH  24  25
ENDBRANCH  23  24
ENDBRANCH  22  23
ENDBRANCH   1  22
TORSDOF 38
ENDMDL
MODEL 6
REMARK VINA RESULT:      -4.2      3.547      7.399
REMARK WARNING: 32 MAX_TORS EXCEEDED!!!
REMARK  38 active torsions:
REMARK  status: ('A' for Active; 'I' for Inactive)
REMARK    1  A    between atoms: C_3  and  C_2 
REMARK    2  A    between atoms: C_4  and  C_3 
REMARK    3  A    between atoms: C_5  and  C_4 
REMARK    4  A    between atoms: C_6  and  C_5 
REMARK    5  A    between atoms: C_7  and  C_6 
REMARK    6  A    between atoms: C_8  and  C_7 
REMARK    7  A    between atoms: C_9  and  C_8 
REMARK    8  A    between atoms: C_10  and  C_9 
REMARK    9  A    between atoms: C_11  and  C_10 
REMARK   10  A    between atoms: C_13  and  C_11 
REMARK   11  A    between atoms: C_14  and  C_12 
REMARK   12  A    between atoms: O_31  and  C_12 
REMARK   13  A    between atoms: O_32  and  C_13 
REMARK   14  A    between atoms: O_33  and  C_14 
REMARK   15  A    between atoms: C_17  and  C_15 
REMARK   16  A    between atoms: O_32  and  C_15 
REMARK   17  A    between atoms: C_18  and  C_16 
REMARK   18  A    between atoms: O_33  and  C_16 
REMARK   19  A    between atoms: O_34  and  C_17 
REMARK   20  A    between atoms: O_35  and  C_18 
REMARK   21  A    between atoms: C_21  and  C_19 
REMARK   22  A    between atoms: O_34  and  C_19 
REMARK   23  A    between atoms: C_22  and  C_20 
REMARK   24  A    between atoms: O_35  and  C_20 
REMARK   25  A    between atoms: O_36  and  C_21 
REMARK   26  A    between atoms: O_37  and  C_22 
REMARK   27  A    between atoms: C_25  and  C_23 
REMARK   28  A    between atoms: O_36  and  C_23 
REMARK   29  A    between atoms: C_26  and  C_24 
REMARK   30  A    between atoms: O_37  and  C_24 
REMARK   31  A    between atoms: O_38  and  C_25 
REMARK   32  A    between atoms: O_39  and  C_26 
REMARK   33  A    between atoms: C_29  and  C_27 
REMARK   34  A    between atoms: O_38  and  C_27 
REMARK   35  A    between atoms: C_30  and  C_28 
REMARK   36  A    between atoms: O_39  and  C_28 
REMARK   37  A    between atoms: O_40  and  C_29 
REMARK   38  A    between atoms: O_40  and  C_30 
ROOT
HETATM    1  C   UNK N   1      20.718  17.158   6.623  0.00  0.00     0.193 C 
ENDROOT
BRANCH   1   2
HETATM    2  C   UNK N   1      21.479  18.201   5.810  0.00  0.00     0.193 C 
BRANCH   2   3
HETATM    3  O   UNK N   1      22.851  17.912   5.771  0.00  0.00    -0.387 OA
BRANCH   3   4
HETATM    4  C   UNK N   1      23.191  17.822   4.418  0.00  0.00     0.193 C 
BRANCH   4   5
HETATM    5  C   UNK N   1      23.965  19.053   3.963  0.00  0.00     0.193 C 
BRANCH   5   6
HETATM    6  O   UNK N   1      24.988  19.322   4.875  0.00  0.00    -0.387 OA
BRANCH   6   7
HETATM    7  C   UNK N   1      26.107  18.641   4.385  0.00  0.00     0.193 C 
BRANCH   7   8
HETATM    8  C   UNK N   1      27.086  18.366   5.514  0.00  0.00     0.193 C 
BRANCH   8   9
HETATM    9  O   UNK N   1      26.980  17.036   5.929  0.00  0.00    -0.389 OA
BRANCH   9  10
HETATM   10  C   UNK N   1      27.642  16.980   7.160  0.00  0.00     0.167 C 
BRANCH  10  11
HETATM   11  C   UNK N   1      28.297  18.317   7.468  0.00  0.00     0.026 C 
BRANCH  11  12
HETATM   12  C   UNK N   1      28.644  18.412   8.945  0.00  0.00     0.002 C 
BRANCH  12  13
HETATM   13  C   UNK N   1      30.141  18.617   9.117  0.00  0.00     0.000 C 
BRANCH  13  14
HETATM   14  C   UNK N   1      30.915  17.523   8.405  0.00  0.00     0.000 C 
BRANCH  14  15
HETATM   15  C   UNK N   1      32.403  17.800   8.476  0.00  0.00     0.000 C 
BRANCH  15  16
HETATM   16  C   UNK N   1      33.152  16.557   8.046  0.00  0.00     0.000 C 
BRANCH  16  17
HETATM   17  C   UNK N   1      34.275  16.931   7.105  0.00  0.00     0.000 C 
BRANCH  17  18
HETATM   18  C   UNK N   1      33.696  17.677   5.923  0.00  0.00     0.000 C 
BRANCH  18  19
HETATM   19  C   UNK N   1      33.101  16.692   4.940  0.00  0.00    -0.000 C 
BRANCH  19  20
HETATM   20  C   UNK N   1      32.114  17.413   4.046  0.00  0.00    -0.005 C 
HETATM   21  C   UNK N   1      30.770  17.493   4.739  0.00  0.00     0.005 C 
ENDBRANCH  19  20
ENDBRANCH  18  19
ENDBRANCH  17  18
ENDBRANCH  16  17
ENDBRANCH  15  16
ENDBRANCH  14  15
ENDBRANCH  13  14
ENDBRANCH  12  13
ENDBRANCH  11  12
ENDBRANCH  10  11
ENDBRANCH   9  10
ENDBRANCH   8   9
ENDBRANCH   7   8
ENDBRANCH   6   7
ENDBRANCH   5   6
ENDBRANCH   4   5
ENDBRANCH   3   4
ENDBRANCH   2   3
ENDBRANCH   1   2
BRANCH   1  22
HETATM   22  O   UNK N   1      20.814  17.452   7.987  0.00  0.00    -0.387 OA
BRANCH  22  23
HETATM   23  C   UNK N   1      20.067  16.455   8.621  0.00  0.00     0.193 C 
BRANCH  23  24
HETATM   24  C   UNK N   1      20.849  15.151   8.666  0.00  0.00     0.193 C 
BRANCH  24  25
HETATM   25  O   UNK N   1      20.414  14.341   9.719  0.00  0.00    -0.387 OA
BRANCH  25  26
HETATM   26  C   UNK N   1      21.141  13.157   9.588  0.00  0.00     0.193 C 
BRANCH  26  27
HETATM   27  C   UNK N   1      21.274  12.486  10.944  0.00  0.00     0.193 C 
BRANCH  27  28
HETATM   28  O   UNK N   1      22.620  12.434  11.317  0.00  0.00    -0.387 OA
BRANCH  28  29
HETATM   29  C   UNK N   1      23.322  12.341  10.112  0.00  0.00     0.193 C 
BRANCH  29  30
HETATM   30  C   UNK N   1      24.808  12.538  10.359  0.00  0.00     0.193 C 
BRANCH  30  31
HETATM   31  O   UNK N   1      25.322  13.493   9.480  0.00  0.00    -0.387 OA
BRANCH  31  32
HETATM   32  C   UNK N   1      24.546  13.349   8.328  0.00  0.00     0.193 C 
BRANCH  32  33
HETATM   33  C   UNK N   1      24.923  14.405   7.306  0.00  0.00     0.193 C 
BRANCH  33  34
HETATM   34  O   UNK N   1      24.629  13.938   6.024  0.00  0.00    -0.387 OA
BRANCH  34  35
HETATM   35  C   UNK N   1      23.301  14.308   5.793  0.00  0.00     0.193 C 
BRANCH  35  36
HETATM   36  C   UNK N   1      22.823  13.731   4.470  0.00  0.00     0.193 C 
BRANCH  36  37
HETATM   37  O   UNK N   1      23.833  12.954   3.903  0.00  0.00    -0.387 OA
BRANCH  37  38
HETATM   38  C   UNK N   1      23.289  11.672   3.818  0.00  0.00     0.193 C 
BRANCH  38  39
HETATM   39  C   UNK N   1      24.264  10.666   4.398  0.00  0.00     0.190 C 
BRANCH  39  40
HETATM   40  O   UNK N   1      24.427  10.907   5.761  0.00  0.00    -0.399 OA
HETATM   41  H   UNK N   1      24.114  11.715   6.199  0.00  0.00     0.209 HD
ENDBRANCH  39  40
ENDBRANCH  38  39
ENDBRANCH  37  38
ENDBRANCH  36  37
ENDBRANCH  35  36
ENDBRANCH  34  35
ENDBRANCH  33  34
ENDBRANCH  32  33
ENDBRANCH  31  32
ENDBRANCH  30  31
ENDBRANCH  29  30
ENDBRANCH  28  29
ENDBRANCH  27  28
ENDBRANCH  26  27
ENDBRANCH  25  26
ENDBRANCH  24  25
ENDBRANCH  23  24
ENDBRANCH  22  23
ENDBRANCH   1  22
TORSDOF 38
ENDMDL
MODEL 7
REMARK VINA RESULT:      -4.2      4.861      9.023
REMARK WARNING: 32 MAX_TORS EXCEEDED!!!
REMARK  38 active torsions:
REMARK  status: ('A' for Active; 'I' for Inactive)
REMARK    1  A    between atoms: C_3  and  C_2 
REMARK    2  A    between atoms: C_4  and  C_3 
REMARK    3  A    between atoms: C_5  and  C_4 
REMARK    4  A    between atoms: C_6  and  C_5 
REMARK    5  A    between atoms: C_7  and  C_6 
REMARK    6  A    between atoms: C_8  and  C_7 
REMARK    7  A    between atoms: C_9  and  C_8 
REMARK    8  A    between atoms: C_10  and  C_9 
REMARK    9  A    between atoms: C_11  and  C_10 
REMARK   10  A    between atoms: C_13  and  C_11 
REMARK   11  A    between atoms: C_14  and  C_12 
REMARK   12  A    between atoms: O_31  and  C_12 
REMARK   13  A    between atoms: O_32  and  C_13 
REMARK   14  A    between atoms: O_33  and  C_14 
REMARK   15  A    between atoms: C_17  and  C_15 
REMARK   16  A    between atoms: O_32  and  C_15 
REMARK   17  A    between atoms: C_18  and  C_16 
REMARK   18  A    between atoms: O_33  and  C_16 
REMARK   19  A    between atoms: O_34  and  C_17 
REMARK   20  A    between atoms: O_35  and  C_18 
REMARK   21  A    between atoms: C_21  and  C_19 
REMARK   22  A    between atoms: O_34  and  C_19 
REMARK   23  A    between atoms: C_22  and  C_20 
REMARK   24  A    between atoms: O_35  and  C_20 
REMARK   25  A    between atoms: O_36  and  C_21 
REMARK   26  A    between atoms: O_37  and  C_22 
REMARK   27  A    between atoms: C_25  and  C_23 
REMARK   28  A    between atoms: O_36  and  C_23 
REMARK   29  A    between atoms: C_26  and  C_24 
REMARK   30  A    between atoms: O_37  and  C_24 
REMARK   31  A    between atoms: O_38  and  C_25 
REMARK   32  A    between atoms: O_39  and  C_26 
REMARK   33  A    between atoms: C_29  and  C_27 
REMARK   34  A    between atoms: O_38  and  C_27 
REMARK   35  A    between atoms: C_30  and  C_28 
REMARK   36  A    between atoms: O_39  and  C_28 
REMARK   37  A    between atoms: O_40  and  C_29 
REMARK   38  A    between atoms: O_40  and  C_30 
ROOT
HETATM    1  C   UNK N   1      21.105  13.643   3.335  0.00  0.00     0.193 C 
ENDROOT
BRANCH   1   2
HETATM    2  C   UNK N   1      19.729  13.780   2.690  0.00  0.00     0.193 C 
BRANCH   2   3
HETATM    3  O   UNK N   1      18.721  13.876   3.660  0.00  0.00    -0.387 OA
BRANCH   3   4
HETATM    4  C   UNK N   1      19.324  14.430   4.793  0.00  0.00     0.193 C 
BRANCH   4   5
HETATM    5  C   UNK N   1      18.666  15.749   5.177  0.00  0.00     0.193 C 
BRANCH   5   6
HETATM    6  O   UNK N   1      19.113  16.758   4.320  0.00  0.00    -0.387 OA
BRANCH   6   7
HETATM    7  C   UNK N   1      20.389  17.095   4.783  0.00  0.00     0.193 C 
BRANCH   7   8
HETATM    8  C   UNK N   1      21.267  17.534   3.622  0.00  0.00     0.193 C 
BRANCH   8   9
HETATM    9  O   UNK N   1      22.519  16.920   3.708  0.00  0.00    -0.389 OA
BRANCH   9  10
HETATM   10  C   UNK N   1      23.353  17.867   4.313  0.00  0.00     0.167 C 
BRANCH  10  11
HETATM   11  C   UNK N   1      24.695  17.242   4.660  0.00  0.00     0.026 C 
BRANCH  11  12
HETATM   12  C   UNK N   1      25.832  18.067   4.079  0.00  0.00     0.002 C 
BRANCH  12  13
HETATM   13  C   UNK N   1      25.327  19.445   3.680  0.00  0.00     0.000 C 
BRANCH  13  14
HETATM   14  C   UNK N   1      26.489  20.393   3.449  0.00  0.00     0.000 C 
BRANCH  14  15
HETATM   15  C   UNK N   1      27.537  20.216   4.527  0.00  0.00     0.000 C 
BRANCH  15  16
HETATM   16  C   UNK N   1      27.262  21.202   5.642  0.00  0.00     0.000 C 
BRANCH  16  17
HETATM   17  C   UNK N   1      27.062  20.464   6.946  0.00  0.00     0.000 C 
BRANCH  17  18
HETATM   18  C   UNK N   1      27.777  19.133   6.871  0.00  0.00     0.000 C 
BRANCH  18  19
HETATM   19  C   UNK N   1      28.581  18.914   8.135  0.00  0.00    -0.000 C 
BRANCH  19  20
HETATM   20  C   UNK N   1      29.652  17.876   7.871  0.00  0.00    -0.005 C 
HETATM   21  C   UNK N   1      30.809  18.092   8.824  0.00  0.00     0.005 C 
ENDBRANCH  19  20
ENDBRANCH  18  19
ENDBRANCH  17  18
ENDBRANCH  16  17
ENDBRANCH  15  16
ENDBRANCH  14  15
ENDBRANCH  13  14
ENDBRANCH  12  13
ENDBRANCH  11  12
ENDBRANCH  10  11
ENDBRANCH   9  10
ENDBRANCH   8   9
ENDBRANCH   7   8
ENDBRANCH   6   7
ENDBRANCH   5   6
ENDBRANCH   4   5
ENDBRANCH   3   4
ENDBRANCH   2   3
ENDBRANCH   1   2
BRANCH   1  22
HETATM   22  O   UNK N   1      21.971  12.963   2.472  0.00  0.00    -0.387 OA
BRANCH  22  23
HETATM   23  C   UNK N   1      22.165  13.837   1.398  0.00  0.00     0.193 C 
BRANCH  23  24
HETATM   24  C   UNK N   1      23.280  13.332   0.494  0.00  0.00     0.193 C 
BRANCH  24  25
HETATM   25  O   UNK N   1      24.487  13.235   1.193  0.00  0.00    -0.387 OA
BRANCH  25  26
HETATM   26  C   UNK N   1      24.903  14.555   1.377  0.00  0.00     0.193 C 
BRANCH  26  27
HETATM   27  C   UNK N   1      25.695  14.665   2.668  0.00  0.00     0.193 C 
BRANCH  27  28
HETATM   28  O   UNK N   1      26.936  14.037   2.518  0.00  0.00    -0.387 OA
BRANCH  28  29
HETATM   29  C   UNK N   1      27.805  14.762   3.339  0.00  0.00     0.193 C 
BRANCH  29  30
HETATM   30  C   UNK N   1      28.433  15.900   2.552  0.00  0.00     0.193 C 
BRANCH  30  31
HETATM   31  O   UNK N   1      29.744  16.117   2.982  0.00  0.00    -0.387 OA
BRANCH  31  32
HETATM   32  C   UNK N   1      29.600  16.612   4.280  0.00  0.00     0.193 C 
BRANCH  32  33
HETATM   33  C   UNK N   1      30.890  17.266   4.739  0.00  0.00     0.193 C 
BRANCH  33  34
HETATM   34  O   UNK N   1      31.768  17.374   3.659  0.00  0.00    -0.387 OA
BRANCH  34  35
HETATM   35  C   UNK N   1      33.039  17.486   4.229  0.00  0.00     0.193 C 
BRANCH  35  36
HETATM   36  C   UNK N   1      32.957  17.271   5.731  0.00  0.00     0.193 C 
BRANCH  36  37
HETATM   37  O   UNK N   1      34.038  17.893   6.355  0.00  0.00    -0.387 OA
BRANCH  37  38
HETATM   38  C   UNK N   1      34.373  17.046   7.412  0.00  0.00     0.193 C 
BRANCH  38  39
HETATM   39  C   UNK N   1      34.658  17.869   8.653  0.00  0.00     0.190 C 
BRANCH  39  40
HETATM   40  O   UNK N   1      34.964  19.178   8.284  0.00  0.00    -0.399 OA
HETATM   41  H   UNK N   1      34.295  19.874   8.189  0.00  0.00     0.209 HD
ENDBRANCH  39  40
ENDBRANCH  38  39
ENDBRANCH  37  38
ENDBRANCH  36  37
ENDBRANCH  35  36
ENDBRANCH  34  35
ENDBRANCH  33  34
ENDBRANCH  32  33
ENDBRANCH  31  32
ENDBRANCH  30  31
ENDBRANCH  29  30
ENDBRANCH  28  29
ENDBRANCH  27  28
ENDBRANCH  26  27
ENDBRANCH  25  26
ENDBRANCH  24  25
ENDBRANCH  23  24
ENDBRANCH  22  23
ENDBRANCH   1  22
TORSDOF 38
ENDMDL
MODEL 8
REMARK VINA RESULT:      -4.2      4.444      8.761
REMARK WARNING: 32 MAX_TORS EXCEEDED!!!
REMARK  38 active torsions:
REMARK  status: ('A' for Active; 'I' for Inactive)
REMARK    1  A    between atoms: C_3  and  C_2 
REMARK    2  A    between atoms: C_4  and  C_3 
REMARK    3  A    between atoms: C_5  and  C_4 
REMARK    4  A    between atoms: C_6  and  C_5 
REMARK    5  A    between atoms: C_7  and  C_6 
REMARK    6  A    between atoms: C_8  and  C_7 
REMARK    7  A    between atoms: C_9  and  C_8 
REMARK    8  A    between atoms: C_10  and  C_9 
REMARK    9  A    between atoms: C_11  and  C_10 
REMARK   10  A    between atoms: C_13  and  C_11 
REMARK   11  A    between atoms: C_14  and  C_12 
REMARK   12  A    between atoms: O_31  and  C_12 
REMARK   13  A    between atoms: O_32  and  C_13 
REMARK   14  A    between atoms: O_33  and  C_14 
REMARK   15  A    between atoms: C_17  and  C_15 
REMARK   16  A    between atoms: O_32  and  C_15 
REMARK   17  A    between atoms: C_18  and  C_16 
REMARK   18  A    between atoms: O_33  and  C_16 
REMARK   19  A    between atoms: O_34  and  C_17 
REMARK   20  A    between atoms: O_35  and  C_18 
REMARK   21  A    between atoms: C_21  and  C_19 
REMARK   22  A    between atoms: O_34  and  C_19 
REMARK   23  A    between atoms: C_22  and  C_20 
REMARK   24  A    between atoms: O_35  and  C_20 
REMARK   25  A    between atoms: O_36  and  C_21 
REMARK   26  A    between atoms: O_37  and  C_22 
REMARK   27  A    between atoms: C_25  and  C_23 
REMARK   28  A    between atoms: O_36  and  C_23 
REMARK   29  A    between atoms: C_26  and  C_24 
REMARK   30  A    between atoms: O_37  and  C_24 
REMARK   31  A    between atoms: O_38  and  C_25 
REMARK   32  A    between atoms: O_39  and  C_26 
REMARK   33  A    between atoms: C_29  and  C_27 
REMARK   34  A    between atoms: O_38  and  C_27 
REMARK   35  A    between atoms: C_30  and  C_28 
REMARK   36  A    between atoms: O_39  and  C_28 
REMARK   37  A    between atoms: O_40  and  C_29 
REMARK   38  A    between atoms: O_40  and  C_30 
ROOT
HETATM    1  C   UNK N   1      21.330  12.705   9.853  0.00  0.00     0.193 C 
ENDROOT
BRANCH   1   2
HETATM    2  C   UNK N   1      20.305  13.809  10.093  0.00  0.00     0.193 C 
BRANCH   2   3
HETATM    3  O   UNK N   1      19.919  14.414   8.888  0.00  0.00    -0.387 OA
BRANCH   3   4
HETATM    4  C   UNK N   1      20.632  15.615   8.811  0.00  0.00     0.193 C 
BRANCH   4   5
HETATM    5  C   UNK N   1      19.823  16.690   8.097  0.00  0.00     0.193 C 
BRANCH   5   6
HETATM    6  O   UNK N   1      20.691  17.636   7.546  0.00  0.00    -0.387 OA
BRANCH   6   7
HETATM    7  C   UNK N   1      21.560  16.907   6.728  0.00  0.00     0.193 C 
BRANCH   7   8
HETATM    8  C   UNK N   1      21.844  17.679   5.451  0.00  0.00     0.193 C 
BRANCH   8   9
HETATM    9  O   UNK N   1      20.691  17.751   4.665  0.00  0.00    -0.389 OA
BRANCH   9  10
HETATM   10  C   UNK N   1      21.002  18.645   3.635  0.00  0.00     0.167 C 
BRANCH  10  11
HETATM   11  C   UNK N   1      22.505  18.866   3.564  0.00  0.00     0.026 C 
BRANCH  11  12
HETATM   12  C   UNK N   1      22.813  20.266   3.062  0.00  0.00     0.002 C 
BRANCH  12  13
HETATM   13  C   UNK N   1      24.302  20.550   3.187  0.00  0.00     0.000 C 
BRANCH  13  14
HETATM   14  C   UNK N   1      24.988  19.459   3.989  0.00  0.00     0.000 C 
BRANCH  14  15
HETATM   15  C   UNK N   1      26.328  19.115   3.372  0.00  0.00     0.000 C 
BRANCH  15  16
HETATM   16  C   UNK N   1      27.427  19.665   4.255  0.00  0.00     0.000 C 
BRANCH  16  17
HETATM   17  C   UNK N   1      27.464  18.908   5.564  0.00  0.00     0.000 C 
BRANCH  17  18
HETATM   18  C   UNK N   1      27.453  19.900   6.705  0.00  0.00     0.000 C 
BRANCH  18  19
HETATM   19  C   UNK N   1      28.186  19.319   7.894  0.00  0.00    -0.000 C 
BRANCH  19  20
HETATM   20  C   UNK N   1      28.664  17.923   7.553  0.00  0.00    -0.005 C 
HETATM   21  C   UNK N   1      30.002  17.672   8.213  0.00  0.00     0.005 C 
ENDBRANCH  19  20
ENDBRANCH  18  19
ENDBRANCH  17  18
ENDBRANCH  16  17
ENDBRANCH  15  16
ENDBRANCH  14  15
ENDBRANCH  13  14
ENDBRANCH  12  13
ENDBRANCH  11  12
ENDBRANCH  10  11
ENDBRANCH   9  10
ENDBRANCH   8   9
ENDBRANCH   7   8
ENDBRANCH   6   7
ENDBRANCH   5   6
ENDBRANCH   4   5
ENDBRANCH   3   4
ENDBRANCH   2   3
ENDBRANCH   1   2
BRANCH   1  22
HETATM   22  O   UNK N   1      22.624  13.209  10.023  0.00  0.00    -0.387 OA
BRANCH  22  23
HETATM   23  C   UNK N   1      23.467  12.122   9.775  0.00  0.00     0.193 C 
BRANCH  23  24
HETATM   24  C   UNK N   1      24.411  12.432   8.623  0.00  0.00     0.193 C 
BRANCH  24  25
HETATM   25  O   UNK N   1      24.101  13.663   8.038  0.00  0.00    -0.387 OA
BRANCH  25  26
HETATM   26  C   UNK N   1      25.311  14.132   7.523  0.00  0.00     0.193 C 
BRANCH  26  27
HETATM   27  C   UNK N   1      25.262  14.111   6.005  0.00  0.00     0.193 C 
BRANCH  27  28
HETATM   28  O   UNK N   1      26.558  14.012   5.490  0.00  0.00    -0.387 OA
BRANCH  28  29
HETATM   29  C   UNK N   1      26.743  15.187   4.757  0.00  0.00     0.193 C 
BRANCH  29  30
HETATM   30  C   UNK N   1      28.220  15.389   4.462  0.00  0.00     0.193 C 
BRANCH  30  31
HETATM   31  O   UNK N   1      28.994  14.589   5.305  0.00  0.00    -0.387 OA
BRANCH  31  32
HETATM   32  C   UNK N   1      30.179  15.310   5.467  0.00  0.00     0.193 C 
BRANCH  32  33
HETATM   33  C   UNK N   1      31.139  15.004   4.333  0.00  0.00     0.193 C 
BRANCH  33  34
HETATM   34  O   UNK N   1      31.654  16.197   3.824  0.00  0.00    -0.387 OA
BRANCH  34  35
HETATM   35  C   UNK N   1      32.096  16.913   4.940  0.00  0.00     0.193 C 
BRANCH  35  36
HETATM   36  C   UNK N   1      33.601  16.761   5.093  0.00  0.00     0.193 C 
BRANCH  36  37
HETATM   37  O   UNK N   1      34.101  17.797   5.880  0.00  0.00    -0.387 OA
BRANCH  37  38
HETATM   38  C   UNK N   1      34.256  17.237   7.149  0.00  0.00     0.193 C 
BRANCH  38  39
HETATM   39  C   UNK N   1      34.163  18.324   8.201  0.00  0.00     0.190 C 
BRANCH  39  40
HETATM   40  O   UNK N   1      35.150  18.125   9.165  0.00  0.00    -0.399 OA
HETATM   41  H   UNK N   1      36.017  17.738   8.966  0.00  0.00     0.209 HD
ENDBRANCH  39  40
ENDBRANCH  38  39
ENDBRANCH  37  38
ENDBRANCH  36  37
ENDBRANCH  35  36
ENDBRANCH  34  35
ENDBRANCH  33  34
ENDBRANCH  32  33
ENDBRANCH  31  32
ENDBRANCH  30  31
ENDBRANCH  29  30
ENDBRANCH  28  29
ENDBRANCH  27  28
ENDBRANCH  26  27
ENDBRANCH  25  26
ENDBRANCH  24  25
ENDBRANCH  23  24
ENDBRANCH  22  23
ENDBRANCH   1  22
TORSDOF 38
ENDMDL
MODEL 9
REMARK VINA RESULT:      -4.2     10.104     13.523
REMARK WARNING: 32 MAX_TORS EXCEEDED!!!
REMARK  38 active torsions:
REMARK  status: ('A' for Active; 'I' for Inactive)
REMARK    1  A    between atoms: C_3  and  C_2 
REMARK    2  A    between atoms: C_4  and  C_3 
REMARK    3  A    between atoms: C_5  and  C_4 
REMARK    4  A    between atoms: C_6  and  C_5 
REMARK    5  A    between atoms: C_7  and  C_6 
REMARK    6  A    between atoms: C_8  and  C_7 
REMARK    7  A    between atoms: C_9  and  C_8 
REMARK    8  A    between atoms: C_10  and  C_9 
REMARK    9  A    between atoms: C_11  and  C_10 
REMARK   10  A    between atoms: C_13  and  C_11 
REMARK   11  A    between atoms: C_14  and  C_12 
REMARK   12  A    between atoms: O_31  and  C_12 
REMARK   13  A    between atoms: O_32  and  C_13 
REMARK   14  A    between atoms: O_33  and  C_14 
REMARK   15  A    between atoms: C_17  and  C_15 
REMARK   16  A    between atoms: O_32  and  C_15 
REMARK   17  A    between atoms: C_18  and  C_16 
REMARK   18  A    between atoms: O_33  and  C_16 
REMARK   19  A    between atoms: O_34  and  C_17 
REMARK   20  A    between atoms: O_35  and  C_18 
REMARK   21  A    between atoms: C_21  and  C_19 
REMARK   22  A    between atoms: O_34  and  C_19 
REMARK   23  A    between atoms: C_22  and  C_20 
REMARK   24  A    between atoms: O_35  and  C_20 
REMARK   25  A    between atoms: O_36  and  C_21 
REMARK   26  A    between atoms: O_37  and  C_22 
REMARK   27  A    between atoms: C_25  and  C_23 
REMARK   28  A    between atoms: O_36  and  C_23 
REMARK   29  A    between atoms: C_26  and  C_24 
REMARK   30  A    between atoms: O_37  and  C_24 
REMARK   31  A    between atoms: O_38  and  C_25 
REMARK   32  A    between atoms: O_39  and  C_26 
REMARK   33  A    between atoms: C_29  and  C_27 
REMARK   34  A    between atoms: O_38  and  C_27 
REMARK   35  A    between atoms: C_30  and  C_28 
REMARK   36  A    between atoms: O_39  and  C_28 
REMARK   37  A    between atoms: O_40  and  C_29 
REMARK   38  A    between atoms: O_40  and  C_30 
ROOT
HETATM    1  C   UNK N   1      34.059  18.290   7.997  0.00  0.00     0.193 C 
ENDROOT
BRANCH   1   2
HETATM    2  C   UNK N   1      34.206  17.242   9.096  0.00  0.00     0.193 C 
BRANCH   2   3
HETATM    3  O   UNK N   1      35.426  17.384   9.773  0.00  0.00    -0.387 OA
BRANCH   3   4
HETATM    4  C   UNK N   1      35.302  16.651  10.957  0.00  0.00     0.193 C 
BRANCH   4   5
HETATM    5  C   UNK N   1      34.663  15.293  10.698  0.00  0.00     0.193 C 
BRANCH   5   6
HETATM    6  O   UNK N   1      35.661  14.351  10.439  0.00  0.00    -0.387 OA
BRANCH   6   7
HETATM    7  C   UNK N   1      35.266  13.198  11.124  0.00  0.00     0.193 C 
BRANCH   7   8
HETATM    8  C   UNK N   1      36.465  12.559  11.805  0.00  0.00     0.193 C 
BRANCH   8   9
HETATM    9  O   UNK N   1      36.164  12.274  13.140  0.00  0.00    -0.389 OA
BRANCH   9  10
HETATM   10  C   UNK N   1      37.289  11.608  13.637  0.00  0.00     0.167 C 
BRANCH  10  11
HETATM   11  C   UNK N   1      36.995  11.031  15.013  0.00  0.00     0.026 C 
BRANCH  11  12
HETATM   12  C   UNK N   1      35.590  11.403  15.457  0.00  0.00     0.002 C 
BRANCH  12  13
HETATM   13  C   UNK N   1      35.614  11.915  16.888  0.00  0.00     0.000 C 
BRANCH  13  14
HETATM   14  C   UNK N   1      35.748  10.763  17.866  0.00  0.00     0.000 C 
BRANCH  14  15
HETATM   15  C   UNK N   1      34.616   9.774  17.675  0.00  0.00     0.000 C 
BRANCH  15  16
HETATM   16  C   UNK N   1      34.838   8.594  18.597  0.00  0.00     0.000 C 
BRANCH  16  17
HETATM   17  C   UNK N   1      34.453   8.966  20.011  0.00  0.00     0.000 C 
BRANCH  17  18
HETATM   18  C   UNK N   1      32.945   9.013  20.113  0.00  0.00     0.000 C 
BRANCH  18  19
HETATM   19  C   UNK N   1      32.502   8.399  21.424  0.00  0.00    -0.000 C 
BRANCH  19  20
HETATM   20  C   UNK N   1      31.564   7.245  21.143  0.00  0.00    -0.005 C 
HETATM   21  C   UNK N   1      30.564   7.653  20.082  0.00  0.00     0.005 C 
ENDBRANCH  19  20
ENDBRANCH  18  19
ENDBRANCH  17  18
ENDBRANCH  16  17
ENDBRANCH  15  16
ENDBRANCH  14  15
ENDBRANCH  13  14
ENDBRANCH  12  13
ENDBRANCH  11  12
ENDBRANCH  10  11
ENDBRANCH   9  10
ENDBRANCH   8   9
ENDBRANCH   7   8
ENDBRANCH   6   7
ENDBRANCH   5   6
ENDBRANCH   4   5
ENDBRANCH   3   4
ENDBRANCH   2   3
ENDBRANCH   1   2
BRANCH   1  22
HETATM   22  O   UNK N   1      34.484  17.762   6.773  0.00  0.00    -0.387 OA
BRANCH  22  23
HETATM   23  C   UNK N   1      33.356  17.127   6.247  0.00  0.00     0.193 C 
BRANCH  23  24
HETATM   24  C   UNK N   1      32.983  17.733   4.901  0.00  0.00     0.193 C 
BRANCH  24  25
HETATM   25  O   UNK N   1      31.893  17.063   4.336  0.00  0.00    -0.387 OA
BRANCH  25  26
HETATM   26  C   UNK N   1      31.420  16.226   5.348  0.00  0.00     0.193 C 
BRANCH  26  27
HETATM   27  C   UNK N   1      29.903  16.174   5.300  0.00  0.00     0.193 C 
BRANCH  27  28
HETATM   28  O   UNK N   1      29.375  16.647   6.505  0.00  0.00    -0.387 OA
BRANCH  28  29
HETATM   29  C   UNK N   1      28.789  17.875   6.182  0.00  0.00     0.193 C 
BRANCH  29  30
HETATM   30  C   UNK N   1      27.734  17.679   5.106  0.00  0.00     0.193 C 
BRANCH  30  31
HETATM   31  O   UNK N   1      27.576  18.853   4.366  0.00  0.00    -0.387 OA
BRANCH  31  32
HETATM   32  C   UNK N   1      26.349  18.687   3.720  0.00  0.00     0.193 C 
BRANCH  32  33
HETATM   33  C   UNK N   1      25.350  19.713   4.219  0.00  0.00     0.193 C 
BRANCH  33  34
HETATM   34  O   UNK N   1      24.107  19.480   3.628  0.00  0.00    -0.387 OA
BRANCH  34  35
HETATM   35  C   UNK N   1      23.387  18.736   4.566  0.00  0.00     0.193 C 
BRANCH  35  36
HETATM   36  C   UNK N   1      21.974  18.491   4.062  0.00  0.00     0.193 C 
BRANCH  36  37
HETATM   37  O   UNK N   1      21.176  19.600   4.342  0.00  0.00    -0.387 OA
BRANCH  37  38
HETATM   38  C   UNK N   1      20.470  19.836   3.162  0.00  0.00     0.193 C 
BRANCH  38  39
HETATM   39  C   UNK N   1      19.774  18.563   2.721  0.00  0.00     0.190 C 
BRANCH  39  40
HETATM   40  O   UNK N   1      18.425  18.827   2.487  0.00  0.00    -0.399 OA
HETATM   41  H   UNK N   1      17.706  18.382   2.964  0.00  0.00     0.209 HD
ENDBRANCH  39  40
ENDBRANCH  38  39
ENDBRANCH  37  38
ENDBRANCH  36  37
ENDBRANCH  35  36
ENDBRANCH  34  35
ENDBRANCH  33  34
ENDBRANCH  32  33
ENDBRANCH  31  32
ENDBRANCH  30  31
ENDBRANCH  29  30
ENDBRANCH  28  29
ENDBRANCH  27  28
ENDBRANCH  26  27
ENDBRANCH  25  26
ENDBRANCH  24  25
ENDBRANCH  23  24
ENDBRANCH  22  23
ENDBRANCH   1  22
TORSDOF 38
ENDMDL
