MODEL 1
REMARK VINA RESULT:      -6.8      0.000      0.000
REMARK  5 active torsions:
REMARK  status: ('A' for Active; 'I' for Inactive)
REMARK    1  A    between atoms: C_4  and  C_1 
REMARK    2  A    between atoms: C_5  and  C_1 
REMARK    3  A    between atoms: C_6  and  C_1 
REMARK    4  A    between atoms: O_9  and  C_1 
REMARK    5  A    between atoms: N_3  and  C_4 
ROOT
HETATM    1  C   UNK N   1      35.650  12.582  14.730  0.00  0.00     0.115 C 
ENDROOT
BRANCH   1   2
HETATM    2  C   UNK N   1      36.348  13.054  13.418  0.00  0.00     0.315 C 
BRANCH   2   3
HETATM    3  N   UNK N   1      35.515  13.645  12.356  0.00  0.00     0.095 N 
HETATM    4  C   UNK N   1      35.857  15.036  12.033  0.00  0.00     0.300 C 
HETATM    5  C   UNK N   1      36.314  15.201  10.577  0.00  0.00     0.266 C 
HETATM    6  N   UNK N   1      35.331  14.677   9.619  0.00  0.00    -0.071 N 
HETATM    7  C   UNK N   1      34.600  13.486  10.079  0.00  0.00     0.266 C 
HETATM    8  C   UNK N   1      36.036  14.346   8.393  0.00  0.00     0.272 C 
HETATM    9  C   UNK N   1      34.367  15.718   9.310  0.00  0.00     0.272 C 
HETATM   10  C   UNK N   1      35.330  12.752  11.205  0.00  0.00     0.300 C 
ENDBRANCH   2   3
ENDBRANCH   1   2
BRANCH   1  11
HETATM   11  C   UNK N   1      35.978  13.606  15.818  0.00  0.00    -0.022 A 
HETATM   12  C   UNK N   1      35.299  13.623  17.050  0.00  0.00     0.010 A 
HETATM   13  C   UNK N   1      35.603  14.580  18.022  0.00  0.00     0.001 A 
HETATM   14  C   UNK N   1      36.593  15.531  17.776  0.00  0.00     0.000 A 
HETATM   15  C   UNK N   1      37.273  15.532  16.557  0.00  0.00     0.001 A 
HETATM   16  C   UNK N   1      36.965  14.580  15.578  0.00  0.00     0.010 A 
ENDBRANCH   1  11
BRANCH   1  17
HETATM   17  C   UNK N   1      36.116  11.164  15.169  0.00  0.00     0.026 C 
HETATM   18  C   UNK N   1      35.085  10.050  15.004  0.00  0.00     0.008 C 
HETATM   19  C   UNK N   1      35.600   8.762  15.644  0.00  0.00     0.000 C 
HETATM   20  C   UNK N   1      36.935   8.352  15.025  0.00  0.00     0.000 C 
HETATM   21  C   UNK N   1      37.960   9.470  15.184  0.00  0.00     0.000 C 
HETATM   22  C   UNK N   1      37.447  10.745  14.526  0.00  0.00     0.008 C 
ENDBRANCH   1  17
BRANCH   1  23
HETATM   23  O   UNK N   1      34.262  12.574  14.585  0.00  0.00    -0.383 OA
HETATM   24  H   UNK N   1      33.472  12.023  14.709  0.00  0.00     0.211 HD
ENDBRANCH   1  23
TORSDOF 5
ENDMDL
MODEL 2
REMARK VINA RESULT:      -6.3      5.084      9.638
REMARK  5 active torsions:
REMARK  status: ('A' for Active; 'I' for Inactive)
REMARK    1  A    between atoms: C_4  and  C_1 
REMARK    2  A    between atoms: C_5  and  C_1 
REMARK    3  A    between atoms: C_6  and  C_1 
REMARK    4  A    between atoms: O_9  and  C_1 
REMARK    5  A    between atoms: N_3  and  C_4 
ROOT
HETATM    1  C   UNK N   1      32.149  16.936   7.326  0.00  0.00     0.115 C 
ENDROOT
BRANCH   1   2
HETATM    2  C   UNK N   1      32.517  15.626   8.087  0.00  0.00     0.315 C 
BRANCH   2   3
HETATM    3  N   UNK N   1      33.906  15.451   8.546  0.00  0.00     0.095 N 
HETATM    4  C   UNK N   1      34.046  15.366  10.006  0.00  0.00     0.300 C 
HETATM    5  C   UNK N   1      34.637  14.022  10.456  0.00  0.00     0.266 C 
HETATM    6  N   UNK N   1      35.915  13.723   9.798  0.00  0.00    -0.071 N 
HETATM    7  C   UNK N   1      36.014  14.193   8.408  0.00  0.00     0.266 C 
HETATM    8  C   UNK N   1      36.101  12.283   9.816  0.00  0.00     0.272 C 
HETATM    9  C   UNK N   1      36.995  14.321  10.563  0.00  0.00     0.272 C 
HETATM   10  C   UNK N   1      34.643  14.442   7.776  0.00  0.00     0.300 C 
ENDBRANCH   2   3
ENDBRANCH   1   2
BRANCH   1  11
HETATM   11  C   UNK N   1      30.817  17.436   7.888  0.00  0.00    -0.022 A 
HETATM   12  C   UNK N   1      29.593  17.167   7.248  0.00  0.00     0.010 A 
HETATM   13  C   UNK N   1      28.390  17.649   7.771  0.00  0.00     0.001 A 
HETATM   14  C   UNK N   1      28.395  18.406   8.942  0.00  0.00     0.000 A 
HETATM   15  C   UNK N   1      29.601  18.687   9.587  0.00  0.00     0.001 A 
HETATM   16  C   UNK N   1      30.808  18.212   9.063  0.00  0.00     0.010 A 
ENDBRANCH   1  11
BRANCH   1  17
HETATM   17  C   UNK N   1      32.033  16.713   5.790  0.00  0.00     0.026 C 
HETATM   18  C   UNK N   1      33.032  17.488   4.933  0.00  0.00     0.008 C 
HETATM   19  C   UNK N   1      32.687  17.328   3.454  0.00  0.00     0.000 C 
HETATM   20  C   UNK N   1      32.678  15.851   3.062  0.00  0.00     0.000 C 
HETATM   21  C   UNK N   1      31.685  15.079   3.925  0.00  0.00     0.000 C 
HETATM   22  C   UNK N   1      32.047  15.228   5.397  0.00  0.00     0.008 C 
ENDBRANCH   1  17
BRANCH   1  23
HETATM   23  O   UNK N   1      33.092  17.937   7.564  0.00  0.00    -0.383 OA
HETATM   24  H   UNK N   1      33.989  18.228   7.337  0.00  0.00     0.211 HD
ENDBRANCH   1  23
TORSDOF 5
ENDMDL
MODEL 3
REMARK VINA RESULT:      -6.2      1.487      2.017
REMARK  5 active torsions:
REMARK  status: ('A' for Active; 'I' for Inactive)
REMARK    1  A    between atoms: C_4  and  C_1 
REMARK    2  A    between atoms: C_5  and  C_1 
REMARK    3  A    between atoms: C_6  and  C_1 
REMARK    4  A    between atoms: O_9  and  C_1 
REMARK    5  A    between atoms: N_3  and  C_4 
ROOT
HETATM    1  C   UNK N   1      35.616  11.217  15.388  0.00  0.00     0.115 C 
ENDROOT
BRANCH   1   2
HETATM    2  C   UNK N   1      36.386  12.252  14.511  0.00  0.00     0.315 C 
BRANCH   2   3
HETATM    3  N   UNK N   1      35.919  12.485  13.133  0.00  0.00     0.095 N 
HETATM    4  C   UNK N   1      35.364  13.826  12.910  0.00  0.00     0.300 C 
HETATM    5  C   UNK N   1      36.157  14.615  11.858  0.00  0.00     0.266 C 
HETATM    6  N   UNK N   1      36.278  13.890  10.586  0.00  0.00    -0.071 N 
HETATM    7  C   UNK N   1      36.399  12.431  10.722  0.00  0.00     0.266 C 
HETATM    8  C   UNK N   1      37.454  14.393   9.897  0.00  0.00     0.272 C 
HETATM    9  C   UNK N   1      35.119  14.181   9.761  0.00  0.00     0.272 C 
HETATM   10  C   UNK N   1      36.867  12.010  12.117  0.00  0.00     0.300 C 
ENDBRANCH   2   3
ENDBRANCH   1   2
BRANCH   1  11
HETATM   11  C   UNK N   1      35.490  11.810  16.792  0.00  0.00    -0.022 A 
HETATM   12  C   UNK N   1      35.561  11.009  17.946  0.00  0.00     0.010 A 
HETATM   13  C   UNK N   1      35.424  11.571  19.218  0.00  0.00     0.001 A 
HETATM   14  C   UNK N   1      35.217  12.944  19.354  0.00  0.00     0.000 A 
HETATM   15  C   UNK N   1      35.139  13.753  18.219  0.00  0.00     0.001 A 
HETATM   16  C   UNK N   1      35.268  13.193  16.944  0.00  0.00     0.010 A 
ENDBRANCH   1  11
BRANCH   1  17
HETATM   17  C   UNK N   1      36.340   9.842  15.450  0.00  0.00     0.026 C 
HETATM   18  C   UNK N   1      35.674   8.709  14.671  0.00  0.00     0.008 C 
HETATM   19  C   UNK N   1      36.375   7.385  14.970  0.00  0.00     0.000 C 
HETATM   20  C   UNK N   1      37.859   7.474  14.622  0.00  0.00     0.000 C 
HETATM   21  C   UNK N   1      38.520   8.610  15.395  0.00  0.00     0.000 C 
HETATM   22  C   UNK N   1      37.828   9.929  15.076  0.00  0.00     0.008 C 
ENDBRANCH   1  17
BRANCH   1  23
HETATM   23  O   UNK N   1      34.319  11.022  14.911  0.00  0.00    -0.383 OA
HETATM   24  H   UNK N   1      33.814  10.737  14.134  0.00  0.00     0.211 HD
ENDBRANCH   1  23
TORSDOF 5
ENDMDL
MODEL 4
REMARK VINA RESULT:      -6.1      7.630     12.589
REMARK  5 active torsions:
REMARK  status: ('A' for Active; 'I' for Inactive)
REMARK    1  A    between atoms: C_4  and  C_1 
REMARK    2  A    between atoms: C_5  and  C_1 
REMARK    3  A    between atoms: C_6  and  C_1 
REMARK    4  A    between atoms: O_9  and  C_1 
REMARK    5  A    between atoms: N_3  and  C_4 
ROOT
HETATM    1  C   UNK N   1      29.153  17.564   4.734  0.00  0.00     0.115 C 
ENDROOT
BRANCH   1   2
HETATM    2  C   UNK N   1      29.467  16.651   5.958  0.00  0.00     0.315 C 
BRANCH   2   3
HETATM    3  N   UNK N   1      30.878  16.391   6.293  0.00  0.00     0.095 N 
HETATM    4  C   UNK N   1      31.332  17.056   7.521  0.00  0.00     0.300 C 
HETATM    5  C   UNK N   1      31.789  16.054   8.591  0.00  0.00     0.266 C 
HETATM    6  N   UNK N   1      32.820  15.134   8.092  0.00  0.00    -0.071 N 
HETATM    7  C   UNK N   1      32.673  14.755   6.679  0.00  0.00     0.266 C 
HETATM    8  C   UNK N   1      32.773  13.931   8.905  0.00  0.00     0.272 C 
HETATM    9  C   UNK N   1      34.126  15.742   8.272  0.00  0.00     0.272 C 
HETATM   10  C   UNK N   1      31.250  14.977   6.160  0.00  0.00     0.300 C 
ENDBRANCH   2   3
ENDBRANCH   1   2
BRANCH   1  11
HETATM   11  C   UNK N   1      28.353  18.762   5.248  0.00  0.00    -0.022 A 
HETATM   12  C   UNK N   1      27.840  19.742   4.378  0.00  0.00     0.010 A 
HETATM   13  C   UNK N   1      27.128  20.837   4.873  0.00  0.00     0.001 A 
HETATM   14  C   UNK N   1      26.917  20.967   6.246  0.00  0.00     0.000 A 
HETATM   15  C   UNK N   1      27.423  20.007   7.124  0.00  0.00     0.001 A 
HETATM   16  C   UNK N   1      28.143  18.912   6.632  0.00  0.00     0.010 A 
ENDBRANCH   1  11
BRANCH   1  17
HETATM   17  C   UNK N   1      28.349  16.816   3.631  0.00  0.00     0.026 C 
HETATM   18  C   UNK N   1      29.016  15.566   3.061  0.00  0.00     0.008 C 
HETATM   19  C   UNK N   1      28.218  15.045   1.868  0.00  0.00     0.000 C 
HETATM   20  C   UNK N   1      26.778  14.744   2.276  0.00  0.00     0.000 C 
HETATM   21  C   UNK N   1      26.117  15.992   2.852  0.00  0.00     0.000 C 
HETATM   22  C   UNK N   1      26.908  16.493   4.053  0.00  0.00     0.008 C 
ENDBRANCH   1  17
BRANCH   1  23
HETATM   23  O   UNK N   1      30.325  18.070   4.171  0.00  0.00    -0.383 OA
HETATM   24  H   UNK N   1      30.750  18.284   3.325  0.00  0.00     0.211 HD
ENDBRANCH   1  23
TORSDOF 5
ENDMDL
MODEL 5
REMARK VINA RESULT:      -6.1      8.014     13.153
REMARK  5 active torsions:
REMARK  status: ('A' for Active; 'I' for Inactive)
REMARK    1  A    between atoms: C_4  and  C_1 
REMARK    2  A    between atoms: C_5  and  C_1 
REMARK    3  A    between atoms: C_6  and  C_1 
REMARK    4  A    between atoms: O_9  and  C_1 
REMARK    5  A    between atoms: N_3  and  C_4 
ROOT
HETATM    1  C   UNK N   1      28.599  17.257   5.432  0.00  0.00     0.115 C 
ENDROOT
BRANCH   1   2
HETATM    2  C   UNK N   1      30.110  17.548   5.181  0.00  0.00     0.315 C 
BRANCH   2   3
HETATM    3  N   UNK N   1      31.102  16.905   6.062  0.00  0.00     0.095 N 
HETATM    4  C   UNK N   1      32.372  16.586   5.397  0.00  0.00     0.300 C 
HETATM    5  C   UNK N   1      33.561  17.323   6.032  0.00  0.00     0.266 C 
HETATM    6  N   UNK N   1      33.661  17.083   7.478  0.00  0.00    -0.071 N 
HETATM    7  C   UNK N   1      32.370  16.945   8.168  0.00  0.00     0.266 C 
HETATM    8  C   UNK N   1      34.386  18.197   8.064  0.00  0.00     0.272 C 
HETATM    9  C   UNK N   1      34.437  15.877   7.707  0.00  0.00     0.272 C 
HETATM   10  C   UNK N   1      31.214  17.556   7.373  0.00  0.00     0.300 C 
ENDBRANCH   2   3
ENDBRANCH   1   2
BRANCH   1  11
HETATM   11  C   UNK N   1      28.075  16.480   4.223  0.00  0.00    -0.022 A 
HETATM   12  C   UNK N   1      28.942  15.883   3.290  0.00  0.00     0.010 A 
HETATM   13  C   UNK N   1      28.440  15.195   2.182  0.00  0.00     0.001 A 
HETATM   14  C   UNK N   1      27.062  15.091   1.994  0.00  0.00     0.000 A 
HETATM   15  C   UNK N   1      26.187  15.681   2.908  0.00  0.00     0.001 A 
HETATM   16  C   UNK N   1      26.686  16.378   4.013  0.00  0.00     0.010 A 
ENDBRANCH   1  11
BRANCH   1  17
HETATM   17  C   UNK N   1      27.773  18.560   5.632  0.00  0.00     0.026 C 
HETATM   18  C   UNK N   1      27.977  19.272   6.967  0.00  0.00     0.008 C 
HETATM   19  C   UNK N   1      26.975  20.417   7.108  0.00  0.00     0.000 C 
HETATM   20  C   UNK N   1      27.118  21.400   5.948  0.00  0.00     0.000 C 
HETATM   21  C   UNK N   1      26.921  20.684   4.616  0.00  0.00     0.000 C 
HETATM   22  C   UNK N   1      27.937  19.558   4.475  0.00  0.00     0.008 C 
ENDBRANCH   1  17
BRANCH   1  23
HETATM   23  O   UNK N   1      28.424  16.438   6.548  0.00  0.00    -0.383 OA
HETATM   24  H   UNK N   1      27.819  16.246   7.282  0.00  0.00     0.211 HD
ENDBRANCH   1  23
TORSDOF 5
ENDMDL
MODEL 6
REMARK VINA RESULT:      -6.0     10.122     13.372
REMARK  5 active torsions:
REMARK  status: ('A' for Active; 'I' for Inactive)
REMARK    1  A    between atoms: C_4  and  C_1 
REMARK    2  A    between atoms: C_5  and  C_1 
REMARK    3  A    between atoms: C_6  and  C_1 
REMARK    4  A    between atoms: O_9  and  C_1 
REMARK    5  A    between atoms: N_3  and  C_4 
ROOT
HETATM    1  C   UNK N   1      29.186  17.299   4.717  0.00  0.00     0.115 C 
ENDROOT
BRANCH   1   2
HETATM    2  C   UNK N   1      28.550  16.178   5.595  0.00  0.00     0.315 C 
BRANCH   2   3
HETATM    3  N   UNK N   1      27.263  15.601   5.169  0.00  0.00     0.095 N 
HETATM    4  C   UNK N   1      27.381  14.288   4.524  0.00  0.00     0.300 C 
HETATM    5  C   UNK N   1      26.636  13.191   5.296  0.00  0.00     0.266 C 
HETATM    6  N   UNK N   1      25.224  13.526   5.525  0.00  0.00    -0.071 N 
HETATM    7  C   UNK N   1      24.962  14.956   5.750  0.00  0.00     0.266 C 
HETATM    8  C   UNK N   1      24.771  12.781   6.686  0.00  0.00     0.272 C 
HETATM    9  C   UNK N   1      24.441  13.090   4.382  0.00  0.00     0.272 C 
HETATM   10  C   UNK N   1      26.215  15.717   6.191  0.00  0.00     0.300 C 
ENDBRANCH   2   3
ENDBRANCH   1   2
BRANCH   1  11
HETATM   11  C   UNK N   1      30.675  17.364   5.062  0.00  0.00    -0.022 A 
HETATM   12  C   UNK N   1      31.652  17.643   4.090  0.00  0.00     0.010 A 
HETATM   13  C   UNK N   1      33.008  17.679   4.425  0.00  0.00     0.001 A 
HETATM   14  C   UNK N   1      33.405  17.438   5.740  0.00  0.00     0.000 A 
HETATM   15  C   UNK N   1      32.449  17.153   6.717  0.00  0.00     0.001 A 
HETATM   16  C   UNK N   1      31.091  17.109   6.383  0.00  0.00     0.010 A 
ENDBRANCH   1  11
BRANCH   1  17
HETATM   17  C   UNK N   1      28.519  18.684   4.955  0.00  0.00     0.026 C 
HETATM   18  C   UNK N   1      27.390  19.047   3.993  0.00  0.00     0.008 C 
HETATM   19  C   UNK N   1      26.958  20.496   4.216  0.00  0.00     0.000 C 
HETATM   20  C   UNK N   1      26.518  20.707   5.663  0.00  0.00     0.000 C 
HETATM   21  C   UNK N   1      27.645  20.337   6.621  0.00  0.00     0.000 C 
HETATM   22  C   UNK N   1      28.056  18.886   6.406  0.00  0.00     0.008 C 
ENDBRANCH   1  17
BRANCH   1  23
HETATM   23  O   UNK N   1      29.097  16.984   3.360  0.00  0.00    -0.383 OA
HETATM   24  H   UNK N   1      28.822  16.289   2.741  0.00  0.00     0.211 HD
ENDBRANCH   1  23
TORSDOF 5
ENDMDL
MODEL 7
REMARK VINA RESULT:      -6.0      9.086     12.847
REMARK  5 active torsions:
REMARK  status: ('A' for Active; 'I' for Inactive)
REMARK    1  A    between atoms: C_4  and  C_1 
REMARK    2  A    between atoms: C_5  and  C_1 
REMARK    3  A    between atoms: C_6  and  C_1 
REMARK    4  A    between atoms: O_9  and  C_1 
REMARK    5  A    between atoms: N_3  and  C_4 
ROOT
HETATM    1  C   UNK N   1      28.209  17.491   7.063  0.00  0.00     0.115 C 
ENDROOT
BRANCH   1   2
HETATM    2  C   UNK N   1      27.617  16.294   6.259  0.00  0.00     0.315 C 
BRANCH   2   3
HETATM    3  N   UNK N   1      26.167  16.044   6.341  0.00  0.00     0.095 N 
HETATM    4  C   UNK N   1      25.462  16.197   5.063  0.00  0.00     0.300 C 
HETATM    5  C   UNK N   1      24.789  14.893   4.610  0.00  0.00     0.266 C 
HETATM    6  N   UNK N   1      23.889  14.343   5.633  0.00  0.00    -0.071 N 
HETATM    7  C   UNK N   1      24.334  14.552   7.019  0.00  0.00     0.266 C 
HETATM    8  C   UNK N   1      23.763  12.916   5.394  0.00  0.00     0.272 C 
HETATM    9  C   UNK N   1      22.573  14.938   5.478  0.00  0.00     0.272 C 
HETATM   10  C   UNK N   1      25.834  14.841   7.113  0.00  0.00     0.300 C 
ENDBRANCH   2   3
ENDBRANCH   1   2
BRANCH   1  11
HETATM   11  C   UNK N   1      27.769  18.778   6.363  0.00  0.00    -0.022 A 
HETATM   12  C   UNK N   1      27.789  18.905   4.962  0.00  0.00     0.010 A 
HETATM   13  C   UNK N   1      27.400  20.097   4.345  0.00  0.00     0.001 A 
HETATM   14  C   UNK N   1      26.982  21.178   5.122  0.00  0.00     0.000 A 
HETATM   15  C   UNK N   1      26.961  21.070   6.514  0.00  0.00     0.001 A 
HETATM   16  C   UNK N   1      27.358  19.881   7.135  0.00  0.00     0.010 A 
ENDBRANCH   1  11
BRANCH   1  17
HETATM   17  C   UNK N   1      29.762  17.432   7.151  0.00  0.00     0.026 C 
HETATM   18  C   UNK N   1      30.355  17.687   8.535  0.00  0.00     0.008 C 
HETATM   19  C   UNK N   1      31.876  17.790   8.442  0.00  0.00     0.000 C 
HETATM   20  C   UNK N   1      32.463  16.517   7.834  0.00  0.00     0.000 C 
HETATM   21  C   UNK N   1      31.863  16.261   6.455  0.00  0.00     0.000 C 
HETATM   22  C   UNK N   1      30.348  16.141   6.560  0.00  0.00     0.008 C 
ENDBRANCH   1  17
BRANCH   1  23
HETATM   23  O   UNK N   1      27.687  17.534   8.357  0.00  0.00    -0.383 OA
HETATM   24  H   UNK N   1      26.890  17.754   8.865  0.00  0.00     0.211 HD
ENDBRANCH   1  23
TORSDOF 5
ENDMDL
MODEL 8
REMARK VINA RESULT:      -5.9     10.162     13.214
REMARK  5 active torsions:
REMARK  status: ('A' for Active; 'I' for Inactive)
REMARK    1  A    between atoms: C_4  and  C_1 
REMARK    2  A    between atoms: C_5  and  C_1 
REMARK    3  A    between atoms: C_6  and  C_1 
REMARK    4  A    between atoms: O_9  and  C_1 
REMARK    5  A    between atoms: N_3  and  C_4 
ROOT
HETATM    1  C   UNK N   1      28.958  17.289   5.376  0.00  0.00     0.115 C 
ENDROOT
BRANCH   1   2
HETATM    2  C   UNK N   1      28.481  16.596   4.063  0.00  0.00     0.315 C 
BRANCH   2   3
HETATM    3  N   UNK N   1      27.327  15.683   4.133  0.00  0.00     0.095 N 
HETATM    4  C   UNK N   1      26.216  16.056   3.249  0.00  0.00     0.300 C 
HETATM    5  C   UNK N   1      25.915  14.971   2.204  0.00  0.00     0.266 C 
HETATM    6  N   UNK N   1      25.669  13.658   2.814  0.00  0.00    -0.071 N 
HETATM    7  C   UNK N   1      26.467  13.382   4.019  0.00  0.00     0.266 C 
HETATM    8  C   UNK N   1      25.963  12.641   1.819  0.00  0.00     0.272 C 
HETATM    9  C   UNK N   1      24.263  13.550   3.159  0.00  0.00     0.272 C 
HETATM   10  C   UNK N   1      27.712  14.267   4.110  0.00  0.00     0.300 C 
ENDBRANCH   2   3
ENDBRANCH   1   2
BRANCH   1  11
HETATM   11  C   UNK N   1      28.215  18.621   5.488  0.00  0.00    -0.022 A 
HETATM   12  C   UNK N   1      27.942  19.217   6.733  0.00  0.00     0.010 A 
HETATM   13  C   UNK N   1      27.245  20.426   6.812  0.00  0.00     0.001 A 
HETATM   14  C   UNK N   1      26.814  21.057   5.645  0.00  0.00     0.000 A 
HETATM   15  C   UNK N   1      27.072  20.478   4.402  0.00  0.00     0.001 A 
HETATM   16  C   UNK N   1      27.763  19.264   4.320  0.00  0.00     0.010 A 
ENDBRANCH   1  11
BRANCH   1  17
HETATM   17  C   UNK N   1      30.495  17.529   5.390  0.00  0.00     0.026 C 
HETATM   18  C   UNK N   1      31.243  16.946   6.587  0.00  0.00     0.008 C 
HETATM   19  C   UNK N   1      32.697  17.414   6.575  0.00  0.00     0.000 C 
HETATM   20  C   UNK N   1      33.379  17.010   5.269  0.00  0.00     0.000 C 
HETATM   21  C   UNK N   1      32.626  17.587   4.076  0.00  0.00     0.000 C 
HETATM   22  C   UNK N   1      31.183  17.100   4.085  0.00  0.00     0.008 C 
ENDBRANCH   1  17
BRANCH   1  23
HETATM   23  O   UNK N   1      28.610  16.534   6.497  0.00  0.00    -0.383 OA
HETATM   24  H   UNK N   1      28.846  16.367   7.423  0.00  0.00     0.211 HD
ENDBRANCH   1  23
TORSDOF 5
ENDMDL
MODEL 9
REMARK VINA RESULT:      -5.8      7.342     12.340
REMARK  5 active torsions:
REMARK  status: ('A' for Active; 'I' for Inactive)
REMARK    1  A    between atoms: C_4  and  C_1 
REMARK    2  A    between atoms: C_5  and  C_1 
REMARK    3  A    between atoms: C_6  and  C_1 
REMARK    4  A    between atoms: O_9  and  C_1 
REMARK    5  A    between atoms: N_3  and  C_4 
ROOT
HETATM    1  C   UNK N   1      29.078  17.468   6.310  0.00  0.00     0.115 C 
ENDROOT
BRANCH   1   2
HETATM    2  C   UNK N   1      30.427  17.057   5.643  0.00  0.00     0.315 C 
BRANCH   2   3
HETATM    3  N   UNK N   1      31.597  16.837   6.511  0.00  0.00     0.095 N 
HETATM    4  C   UNK N   1      31.703  15.469   7.034  0.00  0.00     0.300 C 
HETATM    5  C   UNK N   1      32.990  14.769   6.575  0.00  0.00     0.266 C 
HETATM    6  N   UNK N   1      34.196  15.541   6.904  0.00  0.00    -0.071 N 
HETATM    7  C   UNK N   1      34.031  17.000   6.826  0.00  0.00     0.266 C 
HETATM    8  C   UNK N   1      35.246  15.141   5.984  0.00  0.00     0.272 C 
HETATM    9  C   UNK N   1      34.628  15.198   8.248  0.00  0.00     0.272 C 
HETATM   10  C   UNK N   1      32.834  17.407   5.963  0.00  0.00     0.300 C 
ENDBRANCH   2   3
ENDBRANCH   1   2
BRANCH   1  11
HETATM   11  C   UNK N   1      28.107  16.299   6.142  0.00  0.00    -0.022 A 
HETATM   12  C   UNK N   1      26.937  16.187   6.915  0.00  0.00     0.010 A 
HETATM   13  C   UNK N   1      26.075  15.099   6.756  0.00  0.00     0.001 A 
HETATM   14  C   UNK N   1      26.370  14.108   5.820  0.00  0.00     0.000 A 
HETATM   15  C   UNK N   1      27.529  14.200   5.048  0.00  0.00     0.001 A 
HETATM   16  C   UNK N   1      28.399  15.284   5.210  0.00  0.00     0.010 A 
ENDBRANCH   1  11
BRANCH   1  17
HETATM   17  C   UNK N   1      28.478  18.758   5.680  0.00  0.00     0.026 C 
HETATM   18  C   UNK N   1      27.617  18.547   4.437  0.00  0.00     0.008 C 
HETATM   19  C   UNK N   1      27.254  19.895   3.816  0.00  0.00     0.000 C 
HETATM   20  C   UNK N   1      26.524  20.772   4.831  0.00  0.00     0.000 C 
HETATM   21  C   UNK N   1      27.383  20.975   6.074  0.00  0.00     0.000 C 
HETATM   22  C   UNK N   1      27.724  19.628   6.697  0.00  0.00     0.008 C 
ENDBRANCH   1  17
BRANCH   1  23
HETATM   23  O   UNK N   1      29.238  17.670   7.682  0.00  0.00    -0.383 OA
HETATM   24  H   UNK N   1      29.871  17.971   8.353  0.00  0.00     0.211 HD
ENDBRANCH   1  23
TORSDOF 5
ENDMDL
