REMARK  7 active torsions:
REMARK  status: ('A' for Active; 'I' for Inactive)
REMARK    1  A    between atoms: C_2  and  C_3 
REMARK       I    between atoms: C_2  and  N_14 
REMARK    2  A    between atoms: C_9  and  N_10 
REMARK    3  A    between atoms: N_14  and  C_15 
REMARK    4  A    between atoms: N_18  and  C_19 
REMARK    5  A    between atoms: C_19  and  C_20 
REMARK    6  A    between atoms: C_20  and  C_21 
REMARK    7  A    between atoms: C_21  and  O_22 
ROOT
HETATM    1  O   UNK N   1       1.295  -1.114   0.286  0.00  0.00    -0.268 OA
HETATM    2  C   UNK N   1       0.244  -1.739   0.338  0.00  0.00     0.254 C 
HETATM    3  N   UNK N   1      -0.943  -1.107   0.544  0.00  0.00    -0.352 N 
HETATM    4  H   UNK N   1      -1.734  -1.692   0.581  0.00  0.00     0.163 HD
ENDROOT
BRANCH   2   5
HETATM    5  C   UNK N   1       0.238  -3.208   0.168  0.00  0.00     0.067 A 
HETATM    6  C   UNK N   1       1.409  -3.969   0.033  0.00  0.00     0.093 A 
HETATM    7  O   UNK N   1       2.659  -3.511   0.034  0.00  0.00    -0.349 OA
HETATM    8  C   UNK N   1       1.369  -5.317  -0.105  0.00  0.00     0.006 A 
HETATM    9  C   UNK N   1       3.575  -4.544  -0.105  0.00  0.00     0.180 A 
HETATM   10  C   UNK N   1       2.743  -5.855  -0.211  0.00  0.00     0.070 A 
HETATM   11  C   UNK N   1       0.157  -6.014  -0.129  0.00  0.00     0.057 A 
HETATM   12  C   UNK N   1      -1.040  -5.285  -0.006  0.00  0.00     0.061 A 
HETATM   13 Cl   UNK N   1      -2.602  -6.086  -0.034  0.00  0.00    -0.082 Cl
HETATM   14  C   UNK N   1      -0.994  -3.890   0.145  0.00  0.00     0.046 A 
BRANCH  11  15
HETATM   15  N   UNK N   1       0.138  -7.418  -0.271  0.00  0.00    -0.397 N 
HETATM   16  H   UNK N   1      -0.716  -7.897  -0.369  0.00  0.00     0.156 HD
HETATM   17  H   UNK N   1       0.985  -7.921  -0.271  0.00  0.00     0.156 HD
ENDBRANCH  11  15
ENDBRANCH   2   5
BRANCH   3  18
HETATM   18  C   UNK N   1      -1.203   0.309   0.718  0.00  0.00     0.088 C 
HETATM   19  C   UNK N   1      -2.121   0.757  -0.417  0.00  0.00     0.055 C 
HETATM   20  C   UNK N   1      -2.017   2.253  -0.639  0.00  0.00     0.274 C 
HETATM   21  N   UNK N   1      -0.650   2.651  -1.022  0.00  0.00     0.088 N 
HETATM   22  C   UNK N   1       0.439   1.869  -0.410  0.00  0.00     0.274 C 
HETATM   23  C   UNK N   1       0.030   1.210   0.906  0.00  0.00     0.055 C 
BRANCH  21  24
HETATM   24  C   UNK N   1      -0.431   4.085  -0.806  0.00  0.00     0.274 C 
BRANCH  24  25
HETATM   25  C   UNK N   1      -0.901   4.572   0.567  0.00  0.00     0.056 C 
BRANCH  25  26
HETATM   26  C   UNK N   1      -2.061   5.546   0.401  0.00  0.00     0.168 C 
BRANCH  26  27
HETATM   27  O   UNK N   1      -3.164   4.901  -0.163  0.00  0.00    -0.396 OA
HETATM   28  C   UNK N   1      -4.257   5.695   0.176  0.00  0.00     0.201 C 
ENDBRANCH  26  27
ENDBRANCH  25  26
ENDBRANCH  24  25
ENDBRANCH  21  24
ENDBRANCH   3  18
TORSDOF 7
