MODEL 1
REMARK VINA RESULT:      -7.2      0.000      0.000
REMARK  5 active torsions:
REMARK  status: ('A' for Active; 'I' for Inactive)
REMARK    1  A    between atoms: C_4  and  C_7 
REMARK    2  A    between atoms: C_7  and  C_9 
REMARK    3  A    between atoms: C_10  and  N_19 
REMARK    4  A    between atoms: C_11  and  C_15 
REMARK    5  A    between atoms: C_15  and  C_16 
REMARK       I    between atoms: C_16  and  N_18 
ROOT
HETATM    1  C   UNK N   1      21.098  14.783   8.047  0.00  0.00     0.042 A 
HETATM    2  C   UNK N   1      20.074  15.511   8.718  0.00  0.00     0.046 A 
HETATM    3  C   UNK N   1      19.824  16.861   8.377  0.00  0.00    -0.022 A 
HETATM    4  C   UNK N   1      20.589  17.468   7.375  0.00  0.00     0.010 A 
HETATM    5  C   UNK N   1      21.591  16.766   6.721  0.00  0.00     0.002 A 
HETATM    6  C   UNK N   1      21.837  15.441   7.055  0.00  0.00     0.018 A 
ENDROOT
BRANCH   1   7
HETATM    7  C   UNK N   1      21.398  13.338   8.365  0.00  0.00     0.194 C 
HETATM    8  O   UNK N   1      20.838  12.460   7.725  0.00  0.00    -0.287 OA
BRANCH   7   9
HETATM    9  C   UNK N   1      22.354  12.916   9.443  0.00  0.00     0.015 A 
HETATM   10  C   UNK N   1      23.738  12.958   9.195  0.00  0.00     0.015 A 
HETATM   11  C   UNK N   1      24.650  12.551  10.174  0.00  0.00     0.001 A 
HETATM   12  C   UNK N   1      24.192  12.092  11.412  0.00  0.00     0.000 A 
HETATM   13  C   UNK N   1      22.823  12.043  11.671  0.00  0.00     0.001 A 
HETATM   14  C   UNK N   1      21.914  12.450  10.693  0.00  0.00     0.015 A 
ENDBRANCH   7   9
ENDBRANCH   1   7
BRANCH   2  15
HETATM   15  N   UNK N   1      19.297  14.901   9.729  0.00  0.00    -0.398 N 
HETATM   16  H   UNK N   1      18.465  14.429   9.499  0.00  0.00     0.156 HD
HETATM   17  H   UNK N   1      19.589  14.950  10.669  0.00  0.00     0.156 HD
ENDBRANCH   2  15
BRANCH   3  18
HETATM   18  C   UNK N   1      18.728  17.620   9.096  0.00  0.00     0.143 C 
BRANCH  18  19
HETATM   19  C   UNK N   1      19.097  18.808   9.957  0.00  0.00     0.219 C 
HETATM   20  O   UNK N   1      20.194  19.321   9.811  0.00  0.00    -0.273 OA
HETATM   21  N   UNK N   1      18.234  19.342  10.845  0.00  0.00    -0.370 N 
HETATM   22  H   UNK N   1      17.386  18.890  11.063  0.00  0.00     0.159 HD
HETATM   23  H   UNK N   1      18.455  20.195  11.284  0.00  0.00     0.159 HD
ENDBRANCH  18  19
ENDBRANCH   3  18
TORSDOF 5
ENDMDL
MODEL 2
REMARK VINA RESULT:      -7.0      9.896     11.879
REMARK  5 active torsions:
REMARK  status: ('A' for Active; 'I' for Inactive)
REMARK    1  A    between atoms: C_4  and  C_7 
REMARK    2  A    between atoms: C_7  and  C_9 
REMARK    3  A    between atoms: C_10  and  N_19 
REMARK    4  A    between atoms: C_11  and  C_15 
REMARK    5  A    between atoms: C_15  and  C_16 
REMARK       I    between atoms: C_16  and  N_18 
ROOT
HETATM    1  C   UNK N   1      30.622  17.285   5.642  0.00  0.00     0.042 A 
HETATM    2  C   UNK N   1      31.557  16.923   6.654  0.00  0.00     0.046 A 
HETATM    3  C   UNK N   1      32.941  16.890   6.360  0.00  0.00    -0.022 A 
HETATM    4  C   UNK N   1      33.377  17.218   5.072  0.00  0.00     0.010 A 
HETATM    5  C   UNK N   1      32.471  17.568   4.081  0.00  0.00     0.002 A 
HETATM    6  C   UNK N   1      31.113  17.600   4.368  0.00  0.00     0.018 A 
ENDROOT
BRANCH   1   7
HETATM    7  C   UNK N   1      29.136  17.347   5.904  0.00  0.00     0.194 C 
HETATM    8  O   UNK N   1      28.555  16.334   6.266  0.00  0.00    -0.287 OA
BRANCH   7   9
HETATM    9  C   UNK N   1      28.324  18.598   5.736  0.00  0.00     0.015 A 
HETATM   10  C   UNK N   1      27.964  19.346   6.870  0.00  0.00     0.015 A 
HETATM   11  C   UNK N   1      27.190  20.504   6.744  0.00  0.00     0.001 A 
HETATM   12  C   UNK N   1      26.761  20.927   5.483  0.00  0.00     0.000 A 
HETATM   13  C   UNK N   1      27.108  20.193   4.350  0.00  0.00     0.001 A 
HETATM   14  C   UNK N   1      27.881  19.039   4.478  0.00  0.00     0.015 A 
ENDBRANCH   7   9
ENDBRANCH   1   7
BRANCH   2  15
HETATM   15  N   UNK N   1      31.122  16.592   7.957  0.00  0.00    -0.398 N 
HETATM   16  H   UNK N   1      30.364  17.072   8.364  0.00  0.00     0.156 HD
HETATM   17  H   UNK N   1      31.578  15.879   8.460  0.00  0.00     0.156 HD
ENDBRANCH   2  15
BRANCH   3  18
HETATM   18  C   UNK N   1      33.923  16.507   7.448  0.00  0.00     0.143 C 
BRANCH  18  19
HETATM   19  C   UNK N   1      34.467  17.583   8.362  0.00  0.00     0.219 C 
HETATM   20  O   UNK N   1      34.848  18.633   7.871  0.00  0.00    -0.273 OA
HETATM   21  N   UNK N   1      34.499  17.433   9.702  0.00  0.00    -0.370 N 
HETATM   22  H   UNK N   1      34.300  16.564  10.120  0.00  0.00     0.159 HD
HETATM   23  H   UNK N   1      34.725  18.204  10.271  0.00  0.00     0.159 HD
ENDBRANCH  18  19
ENDBRANCH   3  18
TORSDOF 5
ENDMDL
MODEL 3
REMARK VINA RESULT:      -6.9      8.620      9.748
REMARK  5 active torsions:
REMARK  status: ('A' for Active; 'I' for Inactive)
REMARK    1  A    between atoms: C_4  and  C_7 
REMARK    2  A    between atoms: C_7  and  C_9 
REMARK    3  A    between atoms: C_10  and  N_19 
REMARK    4  A    between atoms: C_11  and  C_15 
REMARK    5  A    between atoms: C_15  and  C_16 
REMARK       I    between atoms: C_16  and  N_18 
ROOT
HETATM    1  C   UNK N   1      28.602  18.364   6.090  0.00  0.00     0.042 A 
HETATM    2  C   UNK N   1      28.103  18.768   4.818  0.00  0.00     0.046 A 
HETATM    3  C   UNK N   1      27.255  19.895   4.716  0.00  0.00    -0.022 A 
HETATM    4  C   UNK N   1      26.917  20.607   5.872  0.00  0.00     0.010 A 
HETATM    5  C   UNK N   1      27.395  20.216   7.114  0.00  0.00     0.002 A 
HETATM    6  C   UNK N   1      28.227  19.109   7.216  0.00  0.00     0.018 A 
ENDROOT
BRANCH   1   7
HETATM    7  C   UNK N   1      29.519  17.175   6.254  0.00  0.00     0.194 C 
HETATM    8  O   UNK N   1      29.046  16.049   6.204  0.00  0.00    -0.287 OA
BRANCH   7   9
HETATM    9  C   UNK N   1      30.996  17.303   6.487  0.00  0.00     0.015 A 
HETATM   10  C   UNK N   1      31.475  17.509   7.793  0.00  0.00     0.015 A 
HETATM   11  C   UNK N   1      32.845  17.653   8.036  0.00  0.00     0.001 A 
HETATM   12  C   UNK N   1      33.754  17.597   6.977  0.00  0.00     0.000 A 
HETATM   13  C   UNK N   1      33.294  17.396   5.676  0.00  0.00     0.001 A 
HETATM   14  C   UNK N   1      31.927  17.252   5.436  0.00  0.00     0.015 A 
ENDBRANCH   7   9
ENDBRANCH   1   7
BRANCH   2  15
HETATM   15  N   UNK N   1      28.444  18.054   3.648  0.00  0.00    -0.398 N 
HETATM   16  H   UNK N   1      27.944  18.201   2.813  0.00  0.00     0.156 HD
HETATM   17  H   UNK N   1      29.185  17.405   3.667  0.00  0.00     0.156 HD
ENDBRANCH   2  15
BRANCH   3  18
HETATM   18  C   UNK N   1      26.736  20.315   3.356  0.00  0.00     0.143 C 
BRANCH  18  19
HETATM   19  C   UNK N   1      25.265  20.155   3.046  0.00  0.00     0.219 C 
HETATM   20  O   UNK N   1      24.755  20.889   2.216  0.00  0.00    -0.273 OA
HETATM   21  N   UNK N   1      24.513  19.197   3.626  0.00  0.00    -0.370 N 
HETATM   22  H   UNK N   1      24.864  18.660   4.374  0.00  0.00     0.159 HD
HETATM   23  H   UNK N   1      23.599  19.031   3.298  0.00  0.00     0.159 HD
ENDBRANCH  18  19
ENDBRANCH   3  18
TORSDOF 5
ENDMDL
MODEL 4
REMARK VINA RESULT:      -6.9     17.113     18.843
REMARK  5 active torsions:
REMARK  status: ('A' for Active; 'I' for Inactive)
REMARK    1  A    between atoms: C_4  and  C_7 
REMARK    2  A    between atoms: C_7  and  C_9 
REMARK    3  A    between atoms: C_10  and  N_19 
REMARK    4  A    between atoms: C_11  and  C_15 
REMARK    5  A    between atoms: C_15  and  C_16 
REMARK       I    between atoms: C_16  and  N_18 
ROOT
HETATM    1  C   UNK N   1      28.142  23.661  -4.582  0.00  0.00     0.042 A 
HETATM    2  C   UNK N   1      29.453  23.459  -4.063  0.00  0.00     0.046 A 
HETATM    3  C   UNK N   1      30.446  22.851  -4.867  0.00  0.00    -0.022 A 
HETATM    4  C   UNK N   1      30.129  22.459  -6.171  0.00  0.00     0.010 A 
HETATM    5  C   UNK N   1      28.853  22.649  -6.681  0.00  0.00     0.002 A 
HETATM    6  C   UNK N   1      27.876  23.244  -5.893  0.00  0.00     0.018 A 
ENDROOT
BRANCH   1   7
HETATM    7  C   UNK N   1      27.047  24.314  -3.771  0.00  0.00     0.194 C 
HETATM    8  O   UNK N   1      26.693  23.792  -2.725  0.00  0.00    -0.287 OA
BRANCH   7   9
HETATM    9  C   UNK N   1      26.358  25.580  -4.191  0.00  0.00     0.015 A 
HETATM   10  C   UNK N   1      26.491  26.734  -3.398  0.00  0.00     0.015 A 
HETATM   11  C   UNK N   1      25.843  27.921  -3.754  0.00  0.00     0.001 A 
HETATM   12  C   UNK N   1      25.050  27.970  -4.903  0.00  0.00     0.000 A 
HETATM   13  C   UNK N   1      24.907  26.833  -5.697  0.00  0.00     0.001 A 
HETATM   14  C   UNK N   1      25.555  25.649  -5.341  0.00  0.00     0.015 A 
ENDBRANCH   7   9
ENDBRANCH   1   7
BRANCH   2  15
HETATM   15  N   UNK N   1      29.779  23.856  -2.747  0.00  0.00    -0.398 N 
HETATM   16  H   UNK N   1      30.332  24.656  -2.592  0.00  0.00     0.156 HD
HETATM   17  H   UNK N   1      29.453  23.330  -1.981  0.00  0.00     0.156 HD
ENDBRANCH   2  15
BRANCH   3  18
HETATM   18  C   UNK N   1      31.837  22.647  -4.302  0.00  0.00     0.143 C 
BRANCH  18  19
HETATM   19  C   UNK N   1      32.089  21.486  -3.365  0.00  0.00     0.219 C 
HETATM   20  O   UNK N   1      32.125  21.697  -2.164  0.00  0.00    -0.273 OA
HETATM   21  N   UNK N   1      32.228  20.222  -3.814  0.00  0.00    -0.370 N 
HETATM   22  H   UNK N   1      32.309  20.032  -4.777  0.00  0.00     0.159 HD
HETATM   23  H   UNK N   1      32.248  19.477  -3.170  0.00  0.00     0.159 HD
ENDBRANCH  18  19
ENDBRANCH   3  18
TORSDOF 5
ENDMDL
MODEL 5
REMARK VINA RESULT:      -6.8     15.800     17.239
REMARK  5 active torsions:
REMARK  status: ('A' for Active; 'I' for Inactive)
REMARK    1  A    between atoms: C_4  and  C_7 
REMARK    2  A    between atoms: C_7  and  C_9 
REMARK    3  A    between atoms: C_10  and  N_19 
REMARK    4  A    between atoms: C_11  and  C_15 
REMARK    5  A    between atoms: C_15  and  C_16 
REMARK       I    between atoms: C_16  and  N_18 
ROOT
HETATM    1  C   UNK N   1      35.417  11.370  18.511  0.00  0.00     0.042 A 
HETATM    2  C   UNK N   1      35.758  11.271  17.131  0.00  0.00     0.046 A 
HETATM    3  C   UNK N   1      35.817  12.437  16.331  0.00  0.00    -0.022 A 
HETATM    4  C   UNK N   1      35.543  13.680  16.909  0.00  0.00     0.010 A 
HETATM    5  C   UNK N   1      35.207  13.783  18.251  0.00  0.00     0.002 A 
HETATM    6  C   UNK N   1      35.147  12.641  19.037  0.00  0.00     0.018 A 
ENDROOT
BRANCH   1   7
HETATM    7  C   UNK N   1      35.350  10.160  19.412  0.00  0.00     0.194 C 
HETATM    8  O   UNK N   1      36.379   9.553  19.668  0.00  0.00    -0.287 OA
BRANCH   7   9
HETATM    9  C   UNK N   1      34.070   9.652  20.010  0.00  0.00     0.015 A 
HETATM   10  C   UNK N   1      33.691  10.079  21.295  0.00  0.00     0.015 A 
HETATM   11  C   UNK N   1      32.514   9.605  21.885  0.00  0.00     0.001 A 
HETATM   12  C   UNK N   1      31.703   8.696  21.200  0.00  0.00     0.000 A 
HETATM   13  C   UNK N   1      32.068   8.263  19.926  0.00  0.00     0.001 A 
HETATM   14  C   UNK N   1      33.241   8.737  19.339  0.00  0.00     0.015 A 
ENDBRANCH   7   9
ENDBRANCH   1   7
BRANCH   2  15
HETATM   15  N   UNK N   1      36.038  10.017  16.543  0.00  0.00    -0.398 N 
HETATM   16  H   UNK N   1      35.306   9.456  16.199  0.00  0.00     0.156 HD
HETATM   17  H   UNK N   1      36.969   9.703  16.477  0.00  0.00     0.156 HD
ENDBRANCH   2  15
BRANCH   3  18
HETATM   18  C   UNK N   1      36.185  12.315  14.866  0.00  0.00     0.143 C 
BRANCH  18  19
HETATM   19  C   UNK N   1      35.844  13.448  13.924  0.00  0.00     0.219 C 
HETATM   20  O   UNK N   1      34.719  13.503  13.454  0.00  0.00    -0.273 OA
HETATM   21  N   UNK N   1      36.729  14.422  13.627  0.00  0.00    -0.370 N 
HETATM   22  H   UNK N   1      37.672  14.351  13.902  0.00  0.00     0.159 HD
HETATM   23  H   UNK N   1      36.428  15.214  13.126  0.00  0.00     0.159 HD
ENDBRANCH  18  19
ENDBRANCH   3  18
TORSDOF 5
ENDMDL
MODEL 6
REMARK VINA RESULT:      -6.8     17.070     17.816
REMARK  5 active torsions:
REMARK  status: ('A' for Active; 'I' for Inactive)
REMARK    1  A    between atoms: C_4  and  C_7 
REMARK    2  A    between atoms: C_7  and  C_9 
REMARK    3  A    between atoms: C_10  and  N_19 
REMARK    4  A    between atoms: C_11  and  C_15 
REMARK    5  A    between atoms: C_15  and  C_16 
REMARK       I    between atoms: C_16  and  N_18 
ROOT
HETATM    1  C   UNK N   1      29.941  24.380  -3.278  0.00  0.00     0.042 A 
HETATM    2  C   UNK N   1      28.551  24.654  -3.425  0.00  0.00     0.046 A 
HETATM    3  C   UNK N   1      28.127  25.829  -4.092  0.00  0.00    -0.022 A 
HETATM    4  C   UNK N   1      29.085  26.709  -4.604  0.00  0.00     0.010 A 
HETATM    5  C   UNK N   1      30.440  26.451  -4.460  0.00  0.00     0.002 A 
HETATM    6  C   UNK N   1      30.857  25.299  -3.806  0.00  0.00     0.018 A 
ENDROOT
BRANCH   1   7
HETATM    7  C   UNK N   1      30.447  23.137  -2.585  0.00  0.00     0.194 C 
HETATM    8  O   UNK N   1      30.292  23.026  -1.378  0.00  0.00    -0.287 OA
BRANCH   7   9
HETATM    9  C   UNK N   1      31.144  22.021  -3.307  0.00  0.00     0.015 A 
HETATM   10  C   UNK N   1      32.440  21.644  -2.910  0.00  0.00     0.015 A 
HETATM   11  C   UNK N   1      33.121  20.622  -3.578  0.00  0.00     0.001 A 
HETATM   12  C   UNK N   1      32.519  19.965  -4.655  0.00  0.00     0.000 A 
HETATM   13  C   UNK N   1      31.236  20.330  -5.061  0.00  0.00     0.001 A 
HETATM   14  C   UNK N   1      30.557  21.349  -4.392  0.00  0.00     0.015 A 
ENDBRANCH   7   9
ENDBRANCH   1   7
BRANCH   2  15
HETATM   15  N   UNK N   1      27.579  23.766  -2.911  0.00  0.00    -0.398 N 
HETATM   16  H   UNK N   1      27.547  23.569  -1.947  0.00  0.00     0.156 HD
HETATM   17  H   UNK N   1      26.932  23.341  -3.520  0.00  0.00     0.156 HD
ENDBRANCH   2  15
BRANCH   3  18
HETATM   18  C   UNK N   1      26.645  26.104  -4.245  0.00  0.00     0.143 C 
BRANCH  18  19
HETATM   19  C   UNK N   1      26.015  27.215  -3.436  0.00  0.00     0.219 C 
HETATM   20  O   UNK N   1      25.990  27.117  -2.220  0.00  0.00    -0.273 OA
HETATM   21  N   UNK N   1      25.523  28.330  -4.015  0.00  0.00    -0.370 N 
HETATM   22  H   UNK N   1      25.431  28.394  -4.993  0.00  0.00     0.159 HD
HETATM   23  H   UNK N   1      25.250  29.090  -3.451  0.00  0.00     0.159 HD
ENDBRANCH  18  19
ENDBRANCH   3  18
TORSDOF 5
ENDMDL
MODEL 7
REMARK VINA RESULT:      -6.7      9.183     11.241
REMARK  5 active torsions:
REMARK  status: ('A' for Active; 'I' for Inactive)
REMARK    1  A    between atoms: C_4  and  C_7 
REMARK    2  A    between atoms: C_7  and  C_9 
REMARK    3  A    between atoms: C_10  and  N_19 
REMARK    4  A    between atoms: C_11  and  C_15 
REMARK    5  A    between atoms: C_15  and  C_16 
REMARK       I    between atoms: C_16  and  N_18 
ROOT
HETATM    1  C   UNK N   1      29.371  17.455   6.682  0.00  0.00     0.042 A 
HETATM    2  C   UNK N   1      30.735  17.074   6.832  0.00  0.00     0.046 A 
HETATM    3  C   UNK N   1      31.455  17.457   7.988  0.00  0.00    -0.022 A 
HETATM    4  C   UNK N   1      30.813  18.207   8.979  0.00  0.00     0.010 A 
HETATM    5  C   UNK N   1      29.486  18.585   8.838  0.00  0.00     0.002 A 
HETATM    6  C   UNK N   1      28.779  18.211   7.703  0.00  0.00     0.018 A 
ENDROOT
BRANCH   1   7
HETATM    7  C   UNK N   1      28.554  17.064   5.474  0.00  0.00     0.194 C 
HETATM    8  O   UNK N   1      28.647  15.927   5.037  0.00  0.00    -0.287 OA
BRANCH   7   9
HETATM    9  C   UNK N   1      27.630  18.012   4.766  0.00  0.00     0.015 A 
HETATM   10  C   UNK N   1      26.414  17.533   4.247  0.00  0.00     0.015 A 
HETATM   11  C   UNK N   1      25.543  18.389   3.565  0.00  0.00     0.001 A 
HETATM   12  C   UNK N   1      25.878  19.734   3.389  0.00  0.00     0.000 A 
HETATM   13  C   UNK N   1      27.081  20.223   3.896  0.00  0.00     0.001 A 
HETATM   14  C   UNK N   1      27.948  19.367   4.577  0.00  0.00     0.015 A 
ENDBRANCH   7   9
ENDBRANCH   1   7
BRANCH   2  15
HETATM   15  N   UNK N   1      31.388  16.314   5.835  0.00  0.00    -0.398 N 
HETATM   16  H   UNK N   1      32.281  15.937   6.004  0.00  0.00     0.156 HD
HETATM   17  H   UNK N   1      30.947  16.163   4.967  0.00  0.00     0.156 HD
ENDBRANCH   2  15
BRANCH   3  18
HETATM   18  C   UNK N   1      32.904  17.040   8.135  0.00  0.00     0.143 C 
BRANCH  18  19
HETATM   19  C   UNK N   1      33.991  17.954   7.614  0.00  0.00     0.219 C 
HETATM   20  O   UNK N   1      34.164  18.035   6.409  0.00  0.00    -0.273 OA
HETATM   21  N   UNK N   1      34.740  18.715   8.438  0.00  0.00    -0.370 N 
HETATM   22  H   UNK N   1      34.699  18.596   9.415  0.00  0.00     0.159 HD
HETATM   23  H   UNK N   1      35.337  19.399   8.058  0.00  0.00     0.159 HD
ENDBRANCH  18  19
ENDBRANCH   3  18
TORSDOF 5
ENDMDL
MODEL 8
REMARK VINA RESULT:      -6.6      2.473      3.108
REMARK  5 active torsions:
REMARK  status: ('A' for Active; 'I' for Inactive)
REMARK    1  A    between atoms: C_4  and  C_7 
REMARK    2  A    between atoms: C_7  and  C_9 
REMARK    3  A    between atoms: C_10  and  N_19 
REMARK    4  A    between atoms: C_11  and  C_15 
REMARK    5  A    between atoms: C_15  and  C_16 
REMARK       I    between atoms: C_16  and  N_18 
ROOT
HETATM    1  C   UNK N   1      21.090  14.717   8.162  0.00  0.00     0.042 A 
HETATM    2  C   UNK N   1      21.707  15.476   7.127  0.00  0.00     0.046 A 
HETATM    3  C   UNK N   1      21.334  16.825   6.919  0.00  0.00    -0.022 A 
HETATM    4  C   UNK N   1      20.360  17.402   7.741  0.00  0.00     0.010 A 
HETATM    5  C   UNK N   1      19.752  16.667   8.748  0.00  0.00     0.002 A 
HETATM    6  C   UNK N   1      20.117  15.343   8.953  0.00  0.00     0.018 A 
ENDROOT
BRANCH   1   7
HETATM    7  C   UNK N   1      21.459  13.278   8.434  0.00  0.00     0.194 C 
HETATM    8  O   UNK N   1      20.964  12.399   7.744  0.00  0.00    -0.287 OA
BRANCH   7   9
HETATM    9  C   UNK N   1      22.406  12.864   9.522  0.00  0.00     0.015 A 
HETATM   10  C   UNK N   1      23.792  12.929   9.295  0.00  0.00     0.015 A 
HETATM   11  C   UNK N   1      24.696  12.530  10.284  0.00  0.00     0.001 A 
HETATM   12  C   UNK N   1      24.228  12.056  11.512  0.00  0.00     0.000 A 
HETATM   13  C   UNK N   1      22.856  11.984  11.751  0.00  0.00     0.001 A 
HETATM   14  C   UNK N   1      21.955  12.384  10.763  0.00  0.00     0.015 A 
ENDBRANCH   7   9
ENDBRANCH   1   7
BRANCH   2  15
HETATM   15  N   UNK N   1      22.693  14.899   6.295  0.00  0.00    -0.398 N 
HETATM   16  H   UNK N   1      22.494  14.081   5.784  0.00  0.00     0.156 HD
HETATM   17  H   UNK N   1      23.583  15.315   6.227  0.00  0.00     0.156 HD
ENDBRANCH   2  15
BRANCH   3  18
HETATM   18  C   UNK N   1      22.002  17.621   5.816  0.00  0.00     0.143 C 
BRANCH  18  19
HETATM   19  C   UNK N   1      21.142  18.320   4.787  0.00  0.00     0.219 C 
HETATM   20  O   UNK N   1      21.004  19.530   4.860  0.00  0.00    -0.273 OA
HETATM   21  N   UNK N   1      20.564  17.653   3.767  0.00  0.00    -0.370 N 
HETATM   22  H   UNK N   1      20.567  16.668   3.739  0.00  0.00     0.159 HD
HETATM   23  H   UNK N   1      20.131  18.157   3.041  0.00  0.00     0.159 HD
ENDBRANCH  18  19
ENDBRANCH   3  18
TORSDOF 5
ENDMDL
MODEL 9
REMARK VINA RESULT:      -6.5     10.716     13.166
REMARK  5 active torsions:
REMARK  status: ('A' for Active; 'I' for Inactive)
REMARK    1  A    between atoms: C_4  and  C_7 
REMARK    2  A    between atoms: C_7  and  C_9 
REMARK    3  A    between atoms: C_10  and  N_19 
REMARK    4  A    between atoms: C_11  and  C_15 
REMARK    5  A    between atoms: C_15  and  C_16 
REMARK       I    between atoms: C_16  and  N_18 
ROOT
HETATM    1  C   UNK N   1      33.082  16.078   8.694  0.00  0.00     0.042 A 
HETATM    2  C   UNK N   1      34.185  15.985   9.591  0.00  0.00     0.046 A 
HETATM    3  C   UNK N   1      34.714  14.718   9.933  0.00  0.00    -0.022 A 
HETATM    4  C   UNK N   1      34.147  13.565   9.381  0.00  0.00     0.010 A 
HETATM    5  C   UNK N   1      33.069  13.649   8.511  0.00  0.00     0.002 A 
HETATM    6  C   UNK N   1      32.548  14.891   8.175  0.00  0.00     0.018 A 
ENDROOT
BRANCH   1   7
HETATM    7  C   UNK N   1      32.485  17.404   8.288  0.00  0.00     0.194 C 
HETATM    8  O   UNK N   1      33.232  18.316   7.964  0.00  0.00    -0.287 OA
BRANCH   7   9
HETATM    9  C   UNK N   1      31.008  17.668   8.267  0.00  0.00     0.015 A 
HETATM   10  C   UNK N   1      30.269  17.372   7.107  0.00  0.00     0.015 A 
HETATM   11  C   UNK N   1      28.895  17.627   7.053  0.00  0.00     0.001 A 
HETATM   12  C   UNK N   1      28.242  18.186   8.154  0.00  0.00     0.000 A 
HETATM   13  C   UNK N   1      28.962  18.488   9.310  0.00  0.00     0.001 A 
HETATM   14  C   UNK N   1      30.332  18.231   9.362  0.00  0.00     0.015 A 
ENDBRANCH   7   9
ENDBRANCH   1   7
BRANCH   2  15
HETATM   15  N   UNK N   1      34.764  17.147  10.150  0.00  0.00    -0.398 N 
HETATM   16  H   UNK N   1      35.564  17.549   9.741  0.00  0.00     0.156 HD
HETATM   17  H   UNK N   1      34.365  17.556  10.952  0.00  0.00     0.156 HD
ENDBRANCH   2  15
BRANCH   3  18
HETATM   18  C   UNK N   1      35.891  14.636  10.884  0.00  0.00     0.143 C 
BRANCH  18  19
HETATM   19  C   UNK N   1      35.631  14.484  12.367  0.00  0.00     0.219 C 
HETATM   20  O   UNK N   1      34.679  13.815  12.731  0.00  0.00    -0.273 OA
HETATM   21  N   UNK N   1      36.446  15.029  13.294  0.00  0.00    -0.370 N 
HETATM   22  H   UNK N   1      37.157  15.660  13.036  0.00  0.00     0.159 HD
HETATM   23  H   UNK N   1      36.327  14.793  14.242  0.00  0.00     0.159 HD
ENDBRANCH  18  19
ENDBRANCH   3  18
TORSDOF 5
ENDMDL
