MODEL 1
REMARK VINA RESULT:      -7.1      0.000      0.000
REMARK  1 active torsions:
REMARK  status: ('A' for Active; 'I' for Inactive)
REMARK    1  A    between atoms: C_20  and  C_21 
ROOT
HETATM    1  C   UNK N   1      26.312  21.919 -10.742  0.00  0.00     0.309 C 
HETATM    2  N   UNK N   1      27.174  22.996 -10.278  0.00  0.00     0.084 N 
HETATM    3  C   UNK N   1      26.374  24.076  -9.674  0.00  0.00     0.276 C 
HETATM    4  C   UNK N   1      25.789  23.698  -8.307  0.00  0.00     0.065 C 
HETATM    5  C   UNK N   1      26.910  23.229  -7.429  0.00  0.00    -0.062 C 
HETATM    6  C   UNK N   1      27.294  23.830  -6.234  0.00  0.00     0.021 C 
HETATM    7  C   UNK N   1      26.555  25.091  -5.722  0.00  0.00    -0.016 A 
HETATM    8  C   UNK N   1      25.724  25.807  -6.610  0.00  0.00     0.013 A 
HETATM    9  C   UNK N   1      25.029  26.956  -6.234  0.00  0.00     0.001 A 
HETATM   10  C   UNK N   1      25.141  27.436  -4.938  0.00  0.00     0.001 A 
HETATM   11  C   UNK N   1      25.943  26.764  -4.025  0.00  0.00     0.008 A 
HETATM   12  C   UNK N   1      26.647  25.608  -4.390  0.00  0.00    -0.045 A 
HETATM   13  C   UNK N   1      27.455  24.987  -3.323  0.00  0.00     0.060 C 
HETATM   14  C   UNK N   1      28.878  25.024  -3.770  0.00  0.00     0.135 C 
HETATM   15  N   UNK N   1      29.146  23.773  -4.437  0.00  0.00    -0.329 N 
HETATM   16  C   UNK N   1      28.486  23.226  -5.483  0.00  0.00     0.119 A 
HETATM   17  N   UNK N   1      29.048  22.041  -5.825  0.00  0.00    -0.349 N 
ATOM     18  HN  UNK N   1      28.750  21.422  -6.579  1.00  0.00     0.167 HD
HETATM   19  C   UNK N   1      30.075  21.839  -4.978  0.00  0.00     0.122 A 
HETATM   20  C   UNK N   1      30.132  22.909  -4.124  0.00  0.00     0.089 A 
HETATM   21  C   UNK N   1      27.615  22.045  -8.018  0.00  0.00     0.065 C 
HETATM   22  C   UNK N   1      28.199  22.467  -9.366  0.00  0.00     0.276 C 
ENDROOT
BRANCH  20  23
HETATM   23  C   UNK N   1      31.129  23.061  -3.051  0.00  0.00     0.289 C 
HETATM   24  O   UNK N   1      30.828  22.914  -1.878  0.00  0.00    -0.300 OA
ENDBRANCH  20  23
TORSDOF 1
ENDMDL
MODEL 2
REMARK VINA RESULT:      -7.1     21.713     25.580
REMARK  1 active torsions:
REMARK  status: ('A' for Active; 'I' for Inactive)
REMARK    1  A    between atoms: C_20  and  C_21 
ROOT
HETATM    1  C   UNK N   1      38.396   6.574  13.796  0.00  0.00     0.309 C 
HETATM    2  N   UNK N   1      37.142   7.283  13.592  0.00  0.00     0.084 N 
HETATM    3  C   UNK N   1      36.694   7.913  14.846  0.00  0.00     0.276 C 
HETATM    4  C   UNK N   1      37.539   9.130  15.244  0.00  0.00     0.065 C 
HETATM    5  C   UNK N   1      37.572  10.079  14.083  0.00  0.00    -0.062 C 
HETATM    6  C   UNK N   1      37.084  11.382  14.103  0.00  0.00     0.021 C 
HETATM    7  C   UNK N   1      36.434  11.953  15.387  0.00  0.00    -0.016 A 
HETATM    8  C   UNK N   1      36.049  11.065  16.415  0.00  0.00     0.013 A 
HETATM    9  C   UNK N   1      35.451  11.493  17.598  0.00  0.00     0.001 A 
HETATM   10  C   UNK N   1      35.214  12.844  17.801  0.00  0.00     0.001 A 
HETATM   11  C   UNK N   1      35.579  13.758  16.823  0.00  0.00     0.008 A 
HETATM   12  C   UNK N   1      36.181  13.341  15.627  0.00  0.00    -0.045 A 
HETATM   13  C   UNK N   1      36.526  14.415  14.676  0.00  0.00     0.060 C 
HETATM   14  C   UNK N   1      35.743  14.167  13.429  0.00  0.00     0.135 C 
HETATM   15  N   UNK N   1      36.579  13.383  12.552  0.00  0.00    -0.329 N 
HETATM   16  C   UNK N   1      37.177  12.197  12.808  0.00  0.00     0.119 A 
HETATM   17  N   UNK N   1      37.876  11.780  11.724  0.00  0.00    -0.349 N 
ATOM     18  HN  UNK N   1      38.416  10.920  11.644  1.00  0.00     0.167 HD
HETATM   19  C   UNK N   1      37.716  12.721  10.773  0.00  0.00     0.122 A 
HETATM   20  C   UNK N   1      36.917  13.707  11.289  0.00  0.00     0.089 A 
HETATM   21  C   UNK N   1      38.157   9.438  12.862  0.00  0.00     0.065 C 
HETATM   22  C   UNK N   1      37.278   8.245  12.488  0.00  0.00     0.276 C 
ENDROOT
BRANCH  20  23
HETATM   23  C   UNK N   1      36.506  14.913  10.548  0.00  0.00     0.289 C 
HETATM   24  O   UNK N   1      36.936  16.016  10.840  0.00  0.00    -0.300 OA
ENDBRANCH  20  23
TORSDOF 1
ENDMDL
MODEL 3
REMARK VINA RESULT:      -6.9      3.951      5.324
REMARK  1 active torsions:
REMARK  status: ('A' for Active; 'I' for Inactive)
REMARK    1  A    between atoms: C_20  and  C_21 
ROOT
HETATM    1  C   UNK N   1      31.052  29.277 -10.226  0.00  0.00     0.309 C 
HETATM    2  N   UNK N   1      31.044  28.380  -9.080  0.00  0.00     0.084 N 
HETATM    3  C   UNK N   1      30.471  29.051  -7.900  0.00  0.00     0.276 C 
HETATM    4  C   UNK N   1      28.953  29.248  -7.999  0.00  0.00     0.065 C 
HETATM    5  C   UNK N   1      28.324  27.918  -8.287  0.00  0.00    -0.062 C 
HETATM    6  C   UNK N   1      27.409  27.272  -7.461  0.00  0.00     0.021 C 
HETATM    7  C   UNK N   1      26.973  27.918  -6.123  0.00  0.00    -0.016 A 
HETATM    8  C   UNK N   1      27.735  28.983  -5.595  0.00  0.00     0.013 A 
HETATM    9  C   UNK N   1      27.418  29.614  -4.394  0.00  0.00     0.001 A 
HETATM   10  C   UNK N   1      26.314  29.199  -3.666  0.00  0.00     0.001 A 
HETATM   11  C   UNK N   1      25.529  28.158  -4.146  0.00  0.00     0.008 A 
HETATM   12  C   UNK N   1      25.836  27.514  -5.352  0.00  0.00    -0.045 A 
HETATM   13  C   UNK N   1      24.918  26.430  -5.751  0.00  0.00     0.060 C 
HETATM   14  C   UNK N   1      25.718  25.172  -5.806  0.00  0.00     0.135 C 
HETATM   15  N   UNK N   1      26.179  25.021  -7.165  0.00  0.00    -0.329 N 
HETATM   16  C   UNK N   1      26.893  25.899  -7.907  0.00  0.00     0.119 A 
HETATM   17  N   UNK N   1      27.135  25.385  -9.138  0.00  0.00    -0.349 N 
ATOM     18  HN  UNK N   1      27.652  25.835  -9.893  1.00  0.00     0.167 HD
HETATM   19  C   UNK N   1      26.563  24.166  -9.169  0.00  0.00     0.122 A 
HETATM   20  C   UNK N   1      25.975  23.947  -7.952  0.00  0.00     0.089 A 
HETATM   21  C   UNK N   1      28.838  27.329  -9.565  0.00  0.00     0.065 C 
HETATM   22  C   UNK N   1      30.347  27.130  -9.420  0.00  0.00     0.276 C 
ENDROOT
BRANCH  20  23
HETATM   23  C   UNK N   1      25.248  22.717  -7.592  0.00  0.00     0.289 C 
HETATM   24  O   UNK N   1      24.197  22.417  -8.134  0.00  0.00    -0.300 OA
ENDBRANCH  20  23
TORSDOF 1
ENDMDL
MODEL 4
REMARK VINA RESULT:      -6.8     11.468     13.740
REMARK  1 active torsions:
REMARK  status: ('A' for Active; 'I' for Inactive)
REMARK    1  A    between atoms: C_20  and  C_21 
ROOT
HETATM    1  C   UNK N   1      23.699  13.110   6.457  0.00  0.00     0.309 C 
HETATM    2  N   UNK N   1      23.628  14.482   6.937  0.00  0.00     0.084 N 
HETATM    3  C   UNK N   1      24.939  15.142   6.814  0.00  0.00     0.276 C 
HETATM    4  C   UNK N   1      25.315  15.467   5.363  0.00  0.00     0.065 C 
HETATM    5  C   UNK N   1      24.195  16.256   4.753  0.00  0.00    -0.062 C 
HETATM    6  C   UNK N   1      24.308  17.552   4.259  0.00  0.00     0.021 C 
HETATM    7  C   UNK N   1      25.663  18.298   4.325  0.00  0.00    -0.016 A 
HETATM    8  C   UNK N   1      26.682  17.797   5.164  0.00  0.00     0.013 A 
HETATM    9  C   UNK N   1      27.927  18.410   5.289  0.00  0.00     0.001 A 
HETATM   10  C   UNK N   1      28.203  19.562   4.569  0.00  0.00     0.001 A 
HETATM   11  C   UNK N   1      27.236  20.092   3.725  0.00  0.00     0.008 A 
HETATM   12  C   UNK N   1      25.980  19.485   3.590  0.00  0.00    -0.045 A 
HETATM   13  C   UNK N   1      25.047  20.145   2.656  0.00  0.00     0.060 C 
HETATM   14  C   UNK N   1      23.860  20.577   3.450  0.00  0.00     0.135 C 
HETATM   15  N   UNK N   1      22.887  19.515   3.370  0.00  0.00    -0.329 N 
HETATM   16  C   UNK N   1      23.044  18.212   3.695  0.00  0.00     0.119 A 
HETATM   17  N   UNK N   1      21.890  17.533   3.484  0.00  0.00    -0.349 N 
ATOM     18  HN  UNK N   1      21.731  16.539   3.649  1.00  0.00     0.167 HD
HETATM   19  C   UNK N   1      20.995  18.423   3.016  0.00  0.00     0.122 A 
HETATM   20  C   UNK N   1      21.614  19.644   2.948  0.00  0.00     0.089 A 
HETATM   21  C   UNK N   1      22.905  15.494   4.779  0.00  0.00     0.065 C 
HETATM   22  C   UNK N   1      22.556  15.207   6.239  0.00  0.00     0.276 C 
ENDROOT
BRANCH  20  23
HETATM   23  C   UNK N   1      20.959  20.880   2.486  0.00  0.00     0.289 C 
HETATM   24  O   UNK N   1      21.034  21.244   1.324  0.00  0.00    -0.300 OA
ENDBRANCH  20  23
TORSDOF 1
ENDMDL
MODEL 5
REMARK VINA RESULT:      -6.6     10.969     13.820
REMARK  1 active torsions:
REMARK  status: ('A' for Active; 'I' for Inactive)
REMARK    1  A    between atoms: C_20  and  C_21 
ROOT
HETATM    1  C   UNK N   1      24.827  20.194   3.978  0.00  0.00     0.309 C 
HETATM    2  N   UNK N   1      26.202  20.580   4.254  0.00  0.00     0.084 N 
HETATM    3  C   UNK N   1      26.514  20.399   5.682  0.00  0.00     0.276 C 
HETATM    4  C   UNK N   1      26.646  18.925   6.087  0.00  0.00     0.065 C 
HETATM    5  C   UNK N   1      27.643  18.275   5.176  0.00  0.00    -0.062 C 
HETATM    6  C   UNK N   1      28.838  17.692   5.587  0.00  0.00     0.021 C 
HETATM    7  C   UNK N   1      29.234  17.694   7.084  0.00  0.00    -0.016 A 
HETATM    8  C   UNK N   1      28.554  18.554   7.972  0.00  0.00     0.013 A 
HETATM    9  C   UNK N   1      28.852  18.624   9.332  0.00  0.00     0.001 A 
HETATM   10  C   UNK N   1      29.854  17.825   9.860  0.00  0.00     0.001 A 
HETATM   11  C   UNK N   1      30.549  16.957   9.028  0.00  0.00     0.008 A 
HETATM   12  C   UNK N   1      30.260  16.877   7.659  0.00  0.00    -0.045 A 
HETATM   13  C   UNK N   1      31.066  15.910   6.890  0.00  0.00     0.060 C 
HETATM   14  C   UNK N   1      31.824  16.684   5.864  0.00  0.00     0.135 C 
HETATM   15  N   UNK N   1      31.028  16.687   4.661  0.00  0.00    -0.329 N 
HETATM   16  C   UNK N   1      29.749  17.099   4.506  0.00  0.00     0.119 A 
HETATM   17  N   UNK N   1      29.360  16.946   3.216  0.00  0.00    -0.349 N 
ATOM     18  HN  UNK N   1      28.447  17.179   2.826  1.00  0.00     0.167 HD
HETATM   19  C   UNK N   1      30.410  16.428   2.552  0.00  0.00     0.122 A 
HETATM   20  C   UNK N   1      31.436  16.270   3.446  0.00  0.00     0.089 A 
HETATM   21  C   UNK N   1      27.222  18.366   3.741  0.00  0.00     0.065 C 
HETATM   22  C   UNK N   1      27.122  19.846   3.372  0.00  0.00     0.276 C 
ENDROOT
BRANCH  20  23
HETATM   23  C   UNK N   1      32.763  15.732   3.099  0.00  0.00     0.289 C 
HETATM   24  O   UNK N   1      33.494  16.305   2.308  0.00  0.00    -0.300 OA
ENDBRANCH  20  23
TORSDOF 1
ENDMDL
MODEL 6
REMARK VINA RESULT:      -6.5     23.281     26.830
REMARK  1 active torsions:
REMARK  status: ('A' for Active; 'I' for Inactive)
REMARK    1  A    between atoms: C_20  and  C_21 
ROOT
HETATM    1  C   UNK N   1      35.649  13.785  11.185  0.00  0.00     0.309 C 
HETATM    2  N   UNK N   1      36.685  13.547  12.179  0.00  0.00     0.084 N 
HETATM    3  C   UNK N   1      36.292  14.112  13.482  0.00  0.00     0.276 C 
HETATM    4  C   UNK N   1      35.179  13.314  14.172  0.00  0.00     0.065 C 
HETATM    5  C   UNK N   1      35.609  11.880  14.254  0.00  0.00    -0.062 C 
HETATM    6  C   UNK N   1      35.791  11.167  15.435  0.00  0.00     0.021 C 
HETATM    7  C   UNK N   1      35.561  11.853  16.805  0.00  0.00    -0.016 A 
HETATM    8  C   UNK N   1      35.484  13.261  16.863  0.00  0.00     0.013 A 
HETATM    9  C   UNK N   1      35.287  13.958  18.053  0.00  0.00     0.001 A 
HETATM   10  C   UNK N   1      35.156  13.263  19.245  0.00  0.00     0.001 A 
HETATM   11  C   UNK N   1      35.219  11.876  19.241  0.00  0.00     0.008 A 
HETATM   12  C   UNK N   1      35.417  11.162  18.051  0.00  0.00    -0.045 A 
HETATM   13  C   UNK N   1      35.457   9.694  18.184  0.00  0.00     0.060 C 
HETATM   14  C   UNK N   1      36.807   9.246  17.734  0.00  0.00     0.135 C 
HETATM   15  N   UNK N   1      36.703   8.924  16.331  0.00  0.00    -0.329 N 
HETATM   16  C   UNK N   1      36.264   9.713  15.324  0.00  0.00     0.119 A 
HETATM   17  N   UNK N   1      36.324   9.046  14.145  0.00  0.00    -0.349 N 
ATOM     18  HN  UNK N   1      36.056   9.406  13.230  1.00  0.00     0.167 HD
HETATM   19  C   UNK N   1      36.805   7.818  14.418  0.00  0.00     0.122 A 
HETATM   20  C   UNK N   1      37.036   7.748  15.766  0.00  0.00     0.089 A 
HETATM   21  C   UNK N   1      35.872  11.304  12.896  0.00  0.00     0.065 C 
HETATM   22  C   UNK N   1      36.997  12.112  12.250  0.00  0.00     0.276 C 
ENDROOT
BRANCH  20  23
HETATM   23  C   UNK N   1      37.572   6.560  16.454  0.00  0.00     0.289 C 
HETATM   24  O   UNK N   1      37.131   5.444  16.233  0.00  0.00    -0.300 OA
ENDBRANCH  20  23
TORSDOF 1
ENDMDL
MODEL 7
REMARK VINA RESULT:      -6.5     12.362     15.003
REMARK  1 active torsions:
REMARK  status: ('A' for Active; 'I' for Inactive)
REMARK    1  A    between atoms: C_20  and  C_21 
ROOT
HETATM    1  C   UNK N   1      35.285  15.256   5.691  0.00  0.00     0.309 C 
HETATM    2  N   UNK N   1      34.039  14.657   6.147  0.00  0.00     0.084 N 
HETATM    3  C   UNK N   1      33.470  15.434   7.263  0.00  0.00     0.276 C 
HETATM    4  C   UNK N   1      32.883  16.780   6.821  0.00  0.00     0.065 C 
HETATM    5  C   UNK N   1      31.903  16.526   5.715  0.00  0.00    -0.062 C 
HETATM    6  C   UNK N   1      30.546  16.829   5.767  0.00  0.00     0.021 C 
HETATM    7  C   UNK N   1      29.935  17.467   7.039  0.00  0.00    -0.016 A 
HETATM    8  C   UNK N   1      30.674  17.442   8.241  0.00  0.00     0.013 A 
HETATM    9  C   UNK N   1      30.197  17.986   9.432  0.00  0.00     0.001 A 
HETATM   10  C   UNK N   1      28.947  18.584   9.464  0.00  0.00     0.001 A 
HETATM   11  C   UNK N   1      28.182  18.638   8.306  0.00  0.00     0.008 A 
HETATM   12  C   UNK N   1      28.650  18.095   7.102  0.00  0.00    -0.045 A 
HETATM   13  C   UNK N   1      27.744  18.226   5.946  0.00  0.00     0.060 C 
HETATM   14  C   UNK N   1      27.393  16.846   5.500  0.00  0.00     0.135 C 
HETATM   15  N   UNK N   1      28.339  16.478   4.474  0.00  0.00    -0.329 N 
HETATM   16  C   UNK N   1      29.689  16.469   4.547  0.00  0.00     0.119 A 
HETATM   17  N   UNK N   1      30.220  16.056   3.370  0.00  0.00    -0.349 N 
ATOM     18  HN  UNK N   1      31.211  15.954   3.153  1.00  0.00     0.167 HD
HETATM   19  C   UNK N   1      29.187  15.804   2.545  0.00  0.00     0.122 A 
HETATM   20  C   UNK N   1      28.029  16.066   3.229  0.00  0.00     0.089 A 
HETATM   21  C   UNK N   1      32.553  15.853   4.545  0.00  0.00     0.065 C 
HETATM   22  C   UNK N   1      33.106  14.510   5.021  0.00  0.00     0.276 C 
ENDROOT
BRANCH  20  23
HETATM   23  C   UNK N   1      26.677  15.906   2.665  0.00  0.00     0.289 C 
HETATM   24  O   UNK N   1      26.500  15.377   1.580  0.00  0.00    -0.300 OA
ENDBRANCH  20  23
TORSDOF 1
ENDMDL
MODEL 8
REMARK VINA RESULT:      -6.4     13.649     15.392
REMARK  1 active torsions:
REMARK  status: ('A' for Active; 'I' for Inactive)
REMARK    1  A    between atoms: C_20  and  C_21 
ROOT
HETATM    1  C   UNK N   1      30.449  12.534   2.846  0.00  0.00     0.309 C 
HETATM    2  N   UNK N   1      30.965  13.893   2.912  0.00  0.00     0.084 N 
HETATM    3  C   UNK N   1      29.895  14.836   3.282  0.00  0.00     0.276 C 
HETATM    4  C   UNK N   1      29.474  14.720   4.753  0.00  0.00     0.065 C 
HETATM    5  C   UNK N   1      30.700  14.851   5.605  0.00  0.00    -0.062 C 
HETATM    6  C   UNK N   1      30.913  15.852   6.548  0.00  0.00     0.021 C 
HETATM    7  C   UNK N   1      29.846  16.951   6.775  0.00  0.00    -0.016 A 
HETATM    8  C   UNK N   1      28.824  17.124   5.817  0.00  0.00     0.013 A 
HETATM    9  C   UNK N   1      27.830  18.092   5.940  0.00  0.00     0.001 A 
HETATM   10  C   UNK N   1      27.820  18.936   7.040  0.00  0.00     0.001 A 
HETATM   11  C   UNK N   1      28.802  18.804   8.013  0.00  0.00     0.008 A 
HETATM   12  C   UNK N   1      29.808  17.833   7.902  0.00  0.00    -0.045 A 
HETATM   13  C   UNK N   1      30.783  17.794   9.008  0.00  0.00     0.060 C 
HETATM   14  C   UNK N   1      32.123  18.093   8.425  0.00  0.00     0.135 C 
HETATM   15  N   UNK N   1      32.735  16.828   8.095  0.00  0.00    -0.329 N 
HETATM   16  C   UNK N   1      32.244  15.844   7.308  0.00  0.00     0.119 A 
HETATM   17  N   UNK N   1      33.123  14.814   7.242  0.00  0.00    -0.349 N 
ATOM     18  HN  UNK N   1      33.006  13.948   6.717  1.00  0.00     0.167 HD
HETATM   19  C   UNK N   1      34.181  15.156   8.002  0.00  0.00     0.122 A 
HETATM   20  C   UNK N   1      33.937  16.398   8.526  0.00  0.00     0.089 A 
HETATM   21  C   UNK N   1      31.710  13.792   5.287  0.00  0.00     0.065 C 
HETATM   22  C   UNK N   1      32.118  13.953   3.823  0.00  0.00     0.276 C 
ENDROOT
BRANCH  20  23
HETATM   23  C   UNK N   1      34.866  17.122   9.411  0.00  0.00     0.289 C 
HETATM   24  O   UNK N   1      35.677  16.529  10.103  0.00  0.00    -0.300 OA
ENDBRANCH  20  23
TORSDOF 1
ENDMDL
MODEL 9
REMARK VINA RESULT:      -6.4     16.996     20.352
REMARK  1 active torsions:
REMARK  status: ('A' for Active; 'I' for Inactive)
REMARK    1  A    between atoms: C_20  and  C_21 
ROOT
HETATM    1  C   UNK N   1      34.398   9.338   6.798  0.00  0.00     0.309 C 
HETATM    2  N   UNK N   1      33.542  10.205   7.594  0.00  0.00     0.084 N 
HETATM    3  C   UNK N   1      33.983  10.220   8.999  0.00  0.00     0.276 C 
HETATM    4  C   UNK N   1      35.289  10.996   9.212  0.00  0.00     0.065 C 
HETATM    5  C   UNK N   1      35.120  12.367   8.628  0.00  0.00    -0.062 C 
HETATM    6  C   UNK N   1      35.202  13.556   9.348  0.00  0.00     0.021 C 
HETATM    7  C   UNK N   1      35.472  13.529  10.872  0.00  0.00    -0.016 A 
HETATM    8  C   UNK N   1      35.315  12.316  11.576  0.00  0.00     0.013 A 
HETATM    9  C   UNK N   1      35.530  12.206  12.949  0.00  0.00     0.001 A 
HETATM   10  C   UNK N   1      35.916  13.320  13.677  0.00  0.00     0.001 A 
HETATM   11  C   UNK N   1      36.089  14.537  13.030  0.00  0.00     0.008 A 
HETATM   12  C   UNK N   1      35.876  14.661  11.651  0.00  0.00    -0.045 A 
HETATM   13  C   UNK N   1      36.102  16.006  11.087  0.00  0.00     0.060 C 
HETATM   14  C   UNK N   1      34.804  16.469  10.516  0.00  0.00     0.135 C 
HETATM   15  N   UNK N   1      34.796  16.095   9.122  0.00  0.00    -0.329 N 
HETATM   16  C   UNK N   1      34.973  14.866   8.586  0.00  0.00     0.119 A 
HETATM   17  N   UNK N   1      34.889  14.928   7.234  0.00  0.00    -0.349 N 
ATOM     18  HN  UNK N   1      34.982  14.148   6.584  1.00  0.00     0.167 HD
HETATM   19  C   UNK N   1      34.659  16.216   6.917  0.00  0.00     0.122 A 
HETATM   20  C   UNK N   1      34.603  16.932   8.084  0.00  0.00     0.089 A 
HETATM   21  C   UNK N   1      34.802  12.310   7.166  0.00  0.00     0.065 C 
HETATM   22  C   UNK N   1      33.488  11.548   6.999  0.00  0.00     0.276 C 
ENDROOT
BRANCH  20  23
HETATM   23  C   UNK N   1      34.361  18.384   8.154  0.00  0.00     0.289 C 
HETATM   24  O   UNK N   1      35.249  19.162   8.458  0.00  0.00    -0.300 OA
ENDBRANCH  20  23
TORSDOF 1
ENDMDL
