MODEL 1
REMARK VINA RESULT:      -8.0      0.000      0.000
REMARK  8 active torsions:
REMARK  status: ('A' for Active; 'I' for Inactive)
REMARK    1  A    between atoms: C_2  and  N_19 
REMARK    2  A    between atoms: C_2  and  C_20 
REMARK    3  A    between atoms: C_4  and  O_23 
REMARK    4  A    between atoms: C_7  and  O_33 
REMARK    5  A    between atoms: C_8  and  O_32 
REMARK    6  A    between atoms: C_24  and  O_23 
REMARK    7  A    between atoms: C_26  and  O_31 
REMARK    8  A    between atoms: C_27  and  O_30 
ROOT
HETATM    1  C   UNK N   1      21.956  16.428   3.328  0.00  0.00     0.075 C 
HETATM    2  C   UNK N   1      20.750  17.290   3.678  0.00  0.00     0.091 C 
HETATM    3  C   UNK N   1      20.210  16.992   5.086  0.00  0.00     0.080 C 
HETATM    4  C   UNK N   1      23.017  16.232   4.413  0.00  0.00     0.163 C 
HETATM    5  C   UNK N   1      22.428  15.926   5.766  0.00  0.00     0.014 A 
HETATM    6  C   UNK N   1      21.080  16.207   6.046  0.00  0.00    -0.010 A 
HETATM    7  C   UNK N   1      20.492  15.699   7.218  0.00  0.00     0.088 A 
HETATM    8  C   UNK N   1      23.215  15.237   6.708  0.00  0.00     0.090 A 
HETATM    9  C   UNK N   1      22.630  14.718   7.883  0.00  0.00     0.066 A 
HETATM   10  C   UNK N   1      21.250  14.907   8.115  0.00  0.00     0.066 A 
HETATM   11  C   UNK N   1      20.597  14.215   9.274  0.00  0.00     0.197 A 
HETATM   12  C   UNK N   1      23.441  13.901   8.840  0.00  0.00     0.197 A 
HETATM   13  C   UNK N   1      22.770  13.159   9.927  0.00  0.00     0.029 A 
HETATM   14  C   UNK N   1      21.388  13.297  10.128  0.00  0.00     0.029 A 
HETATM   15  C   UNK N   1      20.757  12.545  11.131  0.00  0.00     0.016 A 
HETATM   16  C   UNK N   1      21.497  11.666  11.927  0.00  0.00     0.001 A 
HETATM   17  C   UNK N   1      22.874  11.542  11.736  0.00  0.00     0.001 A 
HETATM   18  C   UNK N   1      23.510  12.286  10.739  0.00  0.00     0.016 A 
HETATM   19  O   UNK N   1      24.650  13.801   8.705  0.00  0.00    -0.286 OA
HETATM   20  O   UNK N   1      19.398  14.333   9.474  0.00  0.00    -0.286 OA
ENDROOT
BRANCH   4  21
HETATM   21  O   UNK N   1      23.974  17.274   4.447  0.00  0.00    -0.351 OA
BRANCH  21  22
HETATM   22  C   UNK N   1      24.792  17.162   3.297  0.00  0.00     0.263 C 
HETATM   23  C   UNK N   1      25.808  16.016   3.412  0.00  0.00     0.095 C 
HETATM   24  C   UNK N   1      27.228  16.564   3.320  0.00  0.00     0.153 C 
HETATM   25  C   UNK N   1      27.366  17.754   4.266  0.00  0.00     0.170 C 
HETATM   26  C   UNK N   1      26.262  18.790   4.001  0.00  0.00     0.205 C 
HETATM   27  O   UNK N   1      25.395  18.399   2.955  0.00  0.00    -0.359 OA
BRANCH  24  28
HETATM   28  O   UNK N   1      28.148  15.568   3.645  0.00  0.00    -0.393 OA
HETATM   29  H   UNK N   1      28.208  14.600   3.669  0.00  0.00     0.210 HD
ENDBRANCH  24  28
BRANCH  25  30
HETATM   30  O   UNK N   1      28.619  18.347   4.131  0.00  0.00    -0.391 OA
HETATM   31  H   UNK N   1      29.302  17.957   3.563  0.00  0.00     0.210 HD
ENDBRANCH  25  30
ENDBRANCH  21  22
ENDBRANCH   4  21
BRANCH   8  32
HETATM   32  O   UNK N   1      24.515  15.010   6.441  0.00  0.00    -0.359 OA
HETATM   33  H   UNK N   1      24.927  15.324   5.660  0.00  0.00     0.217 HD
ENDBRANCH   8  32
BRANCH   2  34
HETATM   34  N   UNK N   1      19.691  16.906   2.757  0.00  0.00    -0.415 N 
HETATM   35  H   UNK N   1      19.359  17.325   1.889  0.00  0.00     0.151 HD
HETATM   36  H   UNK N   1      19.189  16.061   3.030  0.00  0.00     0.151 HD
ENDBRANCH   2  34
BRANCH   2  37
HETATM   37  C   UNK N   1      21.070  18.760   3.479  0.00  0.00     0.150 C 
HETATM   38  O   UNK N   1      21.451  19.441   4.416  0.00  0.00    -0.296 OA
HETATM   39  C   UNK N   1      20.957  19.395   2.124  0.00  0.00     0.093 C 
ENDBRANCH   2  37
BRANCH   7  40
HETATM   40  O   UNK N   1      19.185  15.927   7.446  0.00  0.00    -0.359 OA
HETATM   41  H   UNK N   1      18.597  16.173   6.759  0.00  0.00     0.217 HD
ENDBRANCH   7  40
TORSDOF 8
ENDMDL
MODEL 2
REMARK VINA RESULT:      -8.0      7.505     10.695
REMARK  8 active torsions:
REMARK  status: ('A' for Active; 'I' for Inactive)
REMARK    1  A    between atoms: C_2  and  N_19 
REMARK    2  A    between atoms: C_2  and  C_20 
REMARK    3  A    between atoms: C_4  and  O_23 
REMARK    4  A    between atoms: C_7  and  O_33 
REMARK    5  A    between atoms: C_8  and  O_32 
REMARK    6  A    between atoms: C_24  and  O_23 
REMARK    7  A    between atoms: C_26  and  O_31 
REMARK    8  A    between atoms: C_27  and  O_30 
ROOT
HETATM    1  C   UNK N   1      34.184  15.131   7.376  0.00  0.00     0.075 C 
HETATM    2  C   UNK N   1      33.733  14.828   8.800  0.00  0.00     0.091 C 
HETATM    3  C   UNK N   1      32.403  15.516   9.148  0.00  0.00     0.080 C 
HETATM    4  C   UNK N   1      33.117  15.096   6.280  0.00  0.00     0.163 C 
HETATM    5  C   UNK N   1      31.844  15.801   6.672  0.00  0.00     0.014 A 
HETATM    6  C   UNK N   1      31.557  16.073   8.021  0.00  0.00    -0.010 A 
HETATM    7  C   UNK N   1      30.495  16.935   8.347  0.00  0.00     0.088 A 
HETATM    8  C   UNK N   1      31.002  16.296   5.659  0.00  0.00     0.090 A 
HETATM    9  C   UNK N   1      29.939  17.167   5.978  0.00  0.00     0.066 A 
HETATM   10  C   UNK N   1      29.714  17.528   7.324  0.00  0.00     0.066 A 
HETATM   11  C   UNK N   1      28.695  18.580   7.643  0.00  0.00     0.197 A 
HETATM   12  C   UNK N   1      29.102  17.774   4.895  0.00  0.00     0.197 A 
HETATM   13  C   UNK N   1      28.162  18.867   5.216  0.00  0.00     0.029 A 
HETATM   14  C   UNK N   1      27.977  19.271   6.547  0.00  0.00     0.029 A 
HETATM   15  C   UNK N   1      27.120  20.346   6.830  0.00  0.00     0.016 A 
HETATM   16  C   UNK N   1      26.454  21.011   5.796  0.00  0.00     0.001 A 
HETATM   17  C   UNK N   1      26.627  20.597   4.475  0.00  0.00     0.001 A 
HETATM   18  C   UNK N   1      27.479  19.529   4.184  0.00  0.00     0.016 A 
HETATM   19  O   UNK N   1      29.221  17.408   3.736  0.00  0.00    -0.286 OA
HETATM   20  O   UNK N   1      28.509  18.935   8.797  0.00  0.00    -0.286 OA
ENDROOT
BRANCH   4  21
HETATM   21  O   UNK N   1      32.896  13.798   5.762  0.00  0.00    -0.351 OA
BRANCH  21  22
HETATM   22  C   UNK N   1      33.989  13.461   4.928  0.00  0.00     0.263 C 
HETATM   23  C   UNK N   1      34.357  14.594   3.960  0.00  0.00     0.095 C 
HETATM   24  C   UNK N   1      34.215  14.119   2.519  0.00  0.00     0.153 C 
HETATM   25  C   UNK N   1      32.862  13.432   2.352  0.00  0.00     0.170 C 
HETATM   26  C   UNK N   1      32.676  12.332   3.409  0.00  0.00     0.205 C 
HETATM   27  O   UNK N   1      33.791  12.220   4.271  0.00  0.00    -0.359 OA
BRANCH  24  28
HETATM   28  O   UNK N   1      34.329  15.199   1.645  0.00  0.00    -0.393 OA
HETATM   29  H   UNK N   1      34.439  15.370   0.696  0.00  0.00     0.210 HD
ENDBRANCH  24  28
BRANCH  25  30
HETATM   30  O   UNK N   1      32.740  12.890   1.074  0.00  0.00    -0.391 OA
HETATM   31  H   UNK N   1      33.508  12.526   0.606  0.00  0.00     0.210 HD
ENDBRANCH  25  30
ENDBRANCH  21  22
ENDBRANCH   4  21
BRANCH   8  32
HETATM   32  O   UNK N   1      31.269  15.993   4.374  0.00  0.00    -0.359 OA
HETATM   33  H   UNK N   1      31.861  15.307   4.135  0.00  0.00     0.217 HD
ENDBRANCH   8  32
BRANCH   2  34
HETATM   34  N   UNK N   1      34.729  15.421   9.678  0.00  0.00    -0.415 N 
HETATM   35  H   UNK N   1      35.664  15.785   9.499  0.00  0.00     0.151 HD
HETATM   36  H   UNK N   1      34.438  15.484  10.654  0.00  0.00     0.151 HD
ENDBRANCH   2  34
BRANCH   2  37
HETATM   37  C   UNK N   1      33.691  13.330   9.037  0.00  0.00     0.150 C 
HETATM   38  O   UNK N   1      32.662  12.703   8.846  0.00  0.00    -0.296 OA
HETATM   39  C   UNK N   1      34.916  12.587   9.481  0.00  0.00     0.093 C 
ENDBRANCH   2  37
BRANCH   7  40
HETATM   40  O   UNK N   1      30.267  17.232   9.639  0.00  0.00    -0.359 OA
HETATM   41  H   UNK N   1      30.023  16.578  10.264  0.00  0.00     0.217 HD
ENDBRANCH   7  40
TORSDOF 8
ENDMDL
MODEL 3
REMARK VINA RESULT:      -7.8     12.663     15.517
REMARK  8 active torsions:
REMARK  status: ('A' for Active; 'I' for Inactive)
REMARK    1  A    between atoms: C_2  and  N_19 
REMARK    2  A    between atoms: C_2  and  C_20 
REMARK    3  A    between atoms: C_4  and  O_23 
REMARK    4  A    between atoms: C_7  and  O_33 
REMARK    5  A    between atoms: C_8  and  O_32 
REMARK    6  A    between atoms: C_24  and  O_23 
REMARK    7  A    between atoms: C_26  and  O_31 
REMARK    8  A    between atoms: C_27  and  O_30 
ROOT
HETATM    1  C   UNK N   1      37.999  13.641   9.989  0.00  0.00     0.075 C 
HETATM    2  C   UNK N   1      38.302  12.239   9.474  0.00  0.00     0.091 C 
HETATM    3  C   UNK N   1      38.124  11.168  10.562  0.00  0.00     0.080 C 
HETATM    4  C   UNK N   1      36.769  13.808  10.884  0.00  0.00     0.163 C 
HETATM    5  C   UNK N   1      36.658  12.740  11.941  0.00  0.00     0.014 A 
HETATM    6  C   UNK N   1      37.370  11.534  11.825  0.00  0.00    -0.010 A 
HETATM    7  C   UNK N   1      37.444  10.660  12.924  0.00  0.00     0.088 A 
HETATM    8  C   UNK N   1      35.929  13.018  13.112  0.00  0.00     0.090 A 
HETATM    9  C   UNK N   1      36.005  12.149  14.222  0.00  0.00     0.066 A 
HETATM   10  C   UNK N   1      36.806  10.989  14.145  0.00  0.00     0.066 A 
HETATM   11  C   UNK N   1      37.018  10.159  15.375  0.00  0.00     0.197 A 
HETATM   12  C   UNK N   1      35.309  12.490  15.503  0.00  0.00     0.197 A 
HETATM   13  C   UNK N   1      35.594  11.710  16.725  0.00  0.00     0.029 A 
HETATM   14  C   UNK N   1      36.437  10.590  16.668  0.00  0.00     0.029 A 
HETATM   15  C   UNK N   1      36.740   9.891  17.847  0.00  0.00     0.016 A 
HETATM   16  C   UNK N   1      36.206  10.306  19.071  0.00  0.00     0.001 A 
HETATM   17  C   UNK N   1      35.356  11.411  19.124  0.00  0.00     0.001 A 
HETATM   18  C   UNK N   1      35.050  12.112  17.955  0.00  0.00     0.016 A 
HETATM   19  O   UNK N   1      34.542  13.437  15.564  0.00  0.00    -0.286 OA
HETATM   20  O   UNK N   1      37.737   9.172  15.342  0.00  0.00    -0.286 OA
ENDROOT
BRANCH   4  21
HETATM   21  O   UNK N   1      35.571  13.992  10.153  0.00  0.00    -0.351 OA
BRANCH  21  22
HETATM   22  C   UNK N   1      35.688  15.187   9.403  0.00  0.00     0.263 C 
HETATM   23  C   UNK N   1      34.653  16.242   9.820  0.00  0.00     0.095 C 
HETATM   24  C   UNK N   1      33.759  16.596   8.636  0.00  0.00     0.153 C 
HETATM   25  C   UNK N   1      33.262  15.307   7.985  0.00  0.00     0.170 C 
HETATM   26  C   UNK N   1      34.440  14.381   7.643  0.00  0.00     0.205 C 
HETATM   27  O   UNK N   1      35.687  14.938   8.007  0.00  0.00    -0.359 OA
BRANCH  24  28
HETATM   28  O   UNK N   1      32.686  17.377   9.063  0.00  0.00    -0.393 OA
HETATM   29  H   UNK N   1      31.855  17.282   9.553  0.00  0.00     0.210 HD
ENDBRANCH  24  28
BRANCH  25  30
HETATM   30  O   UNK N   1      32.528  15.590   6.835  0.00  0.00    -0.391 OA
HETATM   31  H   UNK N   1      31.558  15.619   6.850  0.00  0.00     0.210 HD
ENDBRANCH  25  30
ENDBRANCH  21  22
ENDBRANCH   4  21
BRANCH   8  32
HETATM   32  O   UNK N   1      35.221  14.160  13.193  0.00  0.00    -0.359 OA
HETATM   33  H   UNK N   1      35.558  14.928  13.611  0.00  0.00     0.217 HD
ENDBRANCH   8  32
BRANCH   2  34
HETATM   34  N   UNK N   1      39.716  12.227   9.132  0.00  0.00    -0.415 N 
HETATM   35  H   UNK N   1      40.396  12.979   9.021  0.00  0.00     0.151 HD
HETATM   36  H   UNK N   1      40.098  11.295   8.974  0.00  0.00     0.151 HD
ENDBRANCH   2  34
BRANCH   2  37
HETATM   37  C   UNK N   1      37.488  11.942   8.229  0.00  0.00     0.150 C 
HETATM   38  O   UNK N   1      37.805  12.424   7.154  0.00  0.00    -0.296 OA
HETATM   39  C   UNK N   1      36.301  11.026   8.287  0.00  0.00     0.093 C 
ENDBRANCH   2  37
BRANCH   7  40
HETATM   40  O   UNK N   1      38.176   9.536  12.818  0.00  0.00    -0.359 OA
HETATM   41  H   UNK N   1      37.784   8.685  12.822  0.00  0.00     0.217 HD
ENDBRANCH   7  40
TORSDOF 8
ENDMDL
MODEL 4
REMARK VINA RESULT:      -7.6      8.796     11.755
REMARK  8 active torsions:
REMARK  status: ('A' for Active; 'I' for Inactive)
REMARK    1  A    between atoms: C_2  and  N_19 
REMARK    2  A    between atoms: C_2  and  C_20 
REMARK    3  A    between atoms: C_4  and  O_23 
REMARK    4  A    between atoms: C_7  and  O_33 
REMARK    5  A    between atoms: C_8  and  O_32 
REMARK    6  A    between atoms: C_24  and  O_23 
REMARK    7  A    between atoms: C_26  and  O_31 
REMARK    8  A    between atoms: C_27  and  O_30 
ROOT
HETATM    1  C   UNK N   1      32.852  16.130   5.439  0.00  0.00     0.075 C 
HETATM    2  C   UNK N   1      32.717  14.889   4.566  0.00  0.00     0.091 C 
HETATM    3  C   UNK N   1      33.327  13.642   5.227  0.00  0.00     0.080 C 
HETATM    4  C   UNK N   1      32.567  15.970   6.934  0.00  0.00     0.163 C 
HETATM    5  C   UNK N   1      33.204  14.741   7.529  0.00  0.00     0.014 A 
HETATM    6  C   UNK N   1      33.640  13.686   6.709  0.00  0.00    -0.010 A 
HETATM    7  C   UNK N   1      34.442  12.667   7.252  0.00  0.00     0.088 A 
HETATM    8  C   UNK N   1      33.473  14.717   8.910  0.00  0.00     0.090 A 
HETATM    9  C   UNK N   1      34.283  13.701   9.461  0.00  0.00     0.066 A 
HETATM   10  C   UNK N   1      34.811  12.698   8.619  0.00  0.00     0.066 A 
HETATM   11  C   UNK N   1      35.803  11.720   9.173  0.00  0.00     0.197 A 
HETATM   12  C   UNK N   1      34.652  13.726  10.912  0.00  0.00     0.197 A 
HETATM   13  C   UNK N   1      35.692  12.810  11.423  0.00  0.00     0.029 A 
HETATM   14  C   UNK N   1      36.264  11.848  10.576  0.00  0.00     0.029 A 
HETATM   15  C   UNK N   1      37.288  11.020  11.062  0.00  0.00     0.016 A 
HETATM   16  C   UNK N   1      37.736  11.150  12.379  0.00  0.00     0.001 A 
HETATM   17  C   UNK N   1      37.156  12.096  13.225  0.00  0.00     0.001 A 
HETATM   18  C   UNK N   1      36.136  12.924  12.749  0.00  0.00     0.016 A 
HETATM   19  O   UNK N   1      34.137  14.529  11.673  0.00  0.00    -0.286 OA
HETATM   20  O   UNK N   1      36.302  10.867   8.455  0.00  0.00    -0.286 OA
ENDROOT
BRANCH   4  21
HETATM   21  O   UNK N   1      31.193  16.092   7.253  0.00  0.00    -0.351 OA
BRANCH  21  22
HETATM   22  C   UNK N   1      30.868  17.470   7.292  0.00  0.00     0.263 C 
HETATM   23  C   UNK N   1      31.036  18.070   8.696  0.00  0.00     0.095 C 
HETATM   24  C   UNK N   1      29.704  18.617   9.195  0.00  0.00     0.153 C 
HETATM   25  C   UNK N   1      28.621  17.562   8.981  0.00  0.00     0.170 C 
HETATM   26  C   UNK N   1      28.609  17.083   7.520  0.00  0.00     0.205 C 
HETATM   27  O   UNK N   1      29.591  17.728   6.734  0.00  0.00    -0.359 OA
BRANCH  24  28
HETATM   28  O   UNK N   1      29.800  18.956  10.544  0.00  0.00    -0.393 OA
HETATM   29  H   UNK N   1      30.361  18.768  11.312  0.00  0.00     0.210 HD
ENDBRANCH  24  28
BRANCH  25  30
HETATM   30  O   UNK N   1      27.369  18.065   9.327  0.00  0.00    -0.391 OA
HETATM   31  H   UNK N   1      27.269  18.959   9.692  0.00  0.00     0.210 HD
ENDBRANCH  25  30
ENDBRANCH  21  22
ENDBRANCH   4  21
BRANCH   8  32
HETATM   32  O   UNK N   1      33.015  15.716   9.688  0.00  0.00    -0.359 OA
HETATM   33  H   UNK N   1      33.373  16.581   9.652  0.00  0.00     0.217 HD
ENDBRANCH   8  32
BRANCH   2  34
HETATM   34  N   UNK N   1      33.516  15.138   3.376  0.00  0.00    -0.415 N 
HETATM   35  H   UNK N   1      34.452  15.524   3.253  0.00  0.00     0.151 HD
HETATM   36  H   UNK N   1      33.055  14.880   2.503  0.00  0.00     0.151 HD
ENDBRANCH   2  34
BRANCH   2  37
HETATM   37  C   UNK N   1      31.271  14.681   4.158  0.00  0.00     0.150 C 
HETATM   38  O   UNK N   1      30.777  15.353   3.268  0.00  0.00    -0.296 OA
HETATM   39  C   UNK N   1      30.431  13.626   4.816  0.00  0.00     0.093 C 
ENDBRANCH   2  37
BRANCH   7  40
HETATM   40  O   UNK N   1      34.899  11.693   6.444  0.00  0.00    -0.359 OA
HETATM   41  H   UNK N   1      35.516  11.865   5.759  0.00  0.00     0.217 HD
ENDBRANCH   7  40
TORSDOF 8
ENDMDL
MODEL 5
REMARK VINA RESULT:      -7.5     12.196     14.998
REMARK  8 active torsions:
REMARK  status: ('A' for Active; 'I' for Inactive)
REMARK    1  A    between atoms: C_2  and  N_19 
REMARK    2  A    between atoms: C_2  and  C_20 
REMARK    3  A    between atoms: C_4  and  O_23 
REMARK    4  A    between atoms: C_7  and  O_33 
REMARK    5  A    between atoms: C_8  and  O_32 
REMARK    6  A    between atoms: C_24  and  O_23 
REMARK    7  A    between atoms: C_26  and  O_31 
REMARK    8  A    between atoms: C_27  and  O_30 
ROOT
HETATM    1  C   UNK N   1      36.488  11.220  10.035  0.00  0.00     0.075 C 
HETATM    2  C   UNK N   1      36.106   9.749   9.938  0.00  0.00     0.091 C 
HETATM    3  C   UNK N   1      35.780   9.140  11.312  0.00  0.00     0.080 C 
HETATM    4  C   UNK N   1      35.652  12.102  10.964  0.00  0.00     0.163 C 
HETATM    5  C   UNK N   1      35.379  11.460  12.300  0.00  0.00     0.014 A 
HETATM    6  C   UNK N   1      35.527  10.074  12.478  0.00  0.00    -0.010 A 
HETATM    7  C   UNK N   1      35.505   9.532  13.775  0.00  0.00     0.088 A 
HETATM    8  C   UNK N   1      35.095  12.286  13.404  0.00  0.00     0.090 A 
HETATM    9  C   UNK N   1      35.078  11.750  14.710  0.00  0.00     0.066 A 
HETATM   10  C   UNK N   1      35.333  10.374  14.901  0.00  0.00     0.066 A 
HETATM   11  C   UNK N   1      35.480   9.840  16.294  0.00  0.00     0.197 A 
HETATM   12  C   UNK N   1      34.874  12.641  15.895  0.00  0.00     0.197 A 
HETATM   13  C   UNK N   1      35.103  12.118  17.257  0.00  0.00     0.029 A 
HETATM   14  C   UNK N   1      35.415  10.764  17.451  0.00  0.00     0.029 A 
HETATM   15  C   UNK N   1      35.682  10.294  18.746  0.00  0.00     0.016 A 
HETATM   16  C   UNK N   1      35.638  11.166  19.837  0.00  0.00     0.001 A 
HETATM   17  C   UNK N   1      35.313  12.509  19.645  0.00  0.00     0.001 A 
HETATM   18  C   UNK N   1      35.045  12.985  18.359  0.00  0.00     0.016 A 
HETATM   19  O   UNK N   1      34.563  13.813  15.749  0.00  0.00    -0.286 OA
HETATM   20  O   UNK N   1      35.738   8.661  16.483  0.00  0.00    -0.286 OA
ENDROOT
BRANCH   4  21
HETATM   21  O   UNK N   1      34.485  12.611  10.345  0.00  0.00    -0.351 OA
BRANCH  21  22
HETATM   22  C   UNK N   1      34.879  13.561   9.371  0.00  0.00     0.263 C 
HETATM   23  C   UNK N   1      35.269  14.909   9.993  0.00  0.00     0.095 C 
HETATM   24  C   UNK N   1      34.361  16.013   9.464  0.00  0.00     0.153 C 
HETATM   25  C   UNK N   1      32.908  15.557   9.572  0.00  0.00     0.170 C 
HETATM   26  C   UNK N   1      32.714  14.191   8.895  0.00  0.00     0.205 C 
HETATM   27  O   UNK N   1      33.915  13.690   8.340  0.00  0.00    -0.359 OA
BRANCH  24  28
HETATM   28  O   UNK N   1      34.563  17.187  10.187  0.00  0.00    -0.393 OA
HETATM   29  H   UNK N   1      34.851  18.102  10.041  0.00  0.00     0.210 HD
ENDBRANCH  24  28
BRANCH  25  30
HETATM   30  O   UNK N   1      32.054  16.497   8.999  0.00  0.00    -0.391 OA
HETATM   31  H   UNK N   1      31.436  17.013   9.542  0.00  0.00     0.210 HD
ENDBRANCH  25  30
ENDBRANCH  21  22
ENDBRANCH   4  21
BRANCH   8  32
HETATM   32  O   UNK N   1      34.918  13.606  13.211  0.00  0.00    -0.359 OA
HETATM   33  H   UNK N   1      35.638  14.201  13.134  0.00  0.00     0.217 HD
ENDBRANCH   8  32
BRANCH   2  34
HETATM   34  N   UNK N   1      37.291   9.049   9.466  0.00  0.00    -0.415 N 
HETATM   35  H   UNK N   1      38.282   9.170   9.677  0.00  0.00     0.151 HD
HETATM   36  H   UNK N   1      37.096   8.301   8.801  0.00  0.00     0.151 HD
ENDBRANCH   2  34
BRANCH   2  37
HETATM   37  C   UNK N   1      34.984   9.554   8.936  0.00  0.00     0.150 C 
HETATM   38  O   UNK N   1      35.105   9.948   7.788  0.00  0.00    -0.296 OA
HETATM   39  C   UNK N   1      33.719   8.849   9.327  0.00  0.00     0.093 C 
ENDBRANCH   2  37
BRANCH   7  40
HETATM   40  O   UNK N   1      35.705   8.211  13.935  0.00  0.00    -0.359 OA
HETATM   41  H   UNK N   1      35.037   7.643  14.267  0.00  0.00     0.217 HD
ENDBRANCH   7  40
TORSDOF 8
ENDMDL
MODEL 6
REMARK VINA RESULT:      -7.5     14.431     16.916
REMARK  8 active torsions:
REMARK  status: ('A' for Active; 'I' for Inactive)
REMARK    1  A    between atoms: C_2  and  N_19 
REMARK    2  A    between atoms: C_2  and  C_20 
REMARK    3  A    between atoms: C_4  and  O_23 
REMARK    4  A    between atoms: C_7  and  O_33 
REMARK    5  A    between atoms: C_8  and  O_32 
REMARK    6  A    between atoms: C_24  and  O_23 
REMARK    7  A    between atoms: C_26  and  O_31 
REMARK    8  A    between atoms: C_27  and  O_30 
ROOT
HETATM    1  C   UNK N   1      34.453  20.297  -6.106  0.00  0.00     0.075 C 
HETATM    2  C   UNK N   1      34.655  19.889  -4.652  0.00  0.00     0.091 C 
HETATM    3  C   UNK N   1      33.549  20.435  -3.735  0.00  0.00     0.080 C 
HETATM    4  C   UNK N   1      33.031  20.215  -6.666  0.00  0.00     0.163 C 
HETATM    5  C   UNK N   1      31.994  20.781  -5.731  0.00  0.00     0.014 A 
HETATM    6  C   UNK N   1      32.277  20.963  -4.366  0.00  0.00    -0.010 A 
HETATM    7  C   UNK N   1      31.394  21.709  -3.565  0.00  0.00     0.088 A 
HETATM    8  C   UNK N   1      30.777  21.243  -6.266  0.00  0.00     0.090 A 
HETATM    9  C   UNK N   1      29.889  21.998  -5.470  0.00  0.00     0.066 A 
HETATM   10  C   UNK N   1      30.222  22.275  -4.126  0.00  0.00     0.066 A 
HETATM   11  C   UNK N   1      29.363  23.213  -3.333  0.00  0.00     0.197 A 
HETATM   12  C   UNK N   1      28.641  22.575  -6.061  0.00  0.00     0.197 A 
HETATM   13  C   UNK N   1      27.851  23.562  -5.296  0.00  0.00     0.029 A 
HETATM   14  C   UNK N   1      28.211  23.885  -3.979  0.00  0.00     0.029 A 
HETATM   15  C   UNK N   1      27.483  24.863  -3.283  0.00  0.00     0.016 A 
HETATM   16  C   UNK N   1      26.406  25.510  -3.896  0.00  0.00     0.001 A 
HETATM   17  C   UNK N   1      26.040  25.176  -5.200  0.00  0.00     0.001 A 
HETATM   18  C   UNK N   1      26.760  24.204  -5.899  0.00  0.00     0.016 A 
HETATM   19  O   UNK N   1      28.290  22.275  -7.192  0.00  0.00    -0.286 OA
HETATM   20  O   UNK N   1      29.651  23.496  -2.180  0.00  0.00    -0.286 OA
ENDROOT
BRANCH   4  21
HETATM   21  O   UNK N   1      32.698  18.927  -7.150  0.00  0.00    -0.351 OA
BRANCH  21  22
HETATM   22  C   UNK N   1      32.971  18.891  -8.539  0.00  0.00     0.263 C 
HETATM   23  C   UNK N   1      31.758  18.432  -9.360  0.00  0.00     0.095 C 
HETATM   24  C   UNK N   1      32.097  17.159 -10.129  0.00  0.00     0.153 C 
HETATM   25  C   UNK N   1      32.750  16.160  -9.176  0.00  0.00     0.170 C 
HETATM   26  C   UNK N   1      33.939  16.803  -8.445  0.00  0.00     0.205 C 
HETATM   27  O   UNK N   1      34.144  18.149  -8.828  0.00  0.00    -0.359 OA
BRANCH  24  28
HETATM   28  O   UNK N   1      30.943  16.618 -10.694  0.00  0.00    -0.393 OA
HETATM   29  H   UNK N   1      29.982  16.647 -10.573  0.00  0.00     0.210 HD
ENDBRANCH  24  28
BRANCH  25  30
HETATM   30  O   UNK N   1      33.171  15.026  -9.866  0.00  0.00    -0.391 OA
HETATM   31  H   UNK N   1      32.574  14.550 -10.465  0.00  0.00     0.210 HD
ENDBRANCH  25  30
ENDBRANCH  21  22
ENDBRANCH   4  21
BRANCH   8  32
HETATM   32  O   UNK N   1      30.505  21.026  -7.566  0.00  0.00    -0.359 OA
HETATM   33  H   UNK N   1      31.066  21.331  -8.252  0.00  0.00     0.217 HD
ENDBRANCH   8  32
BRANCH   2  34
HETATM   34  N   UNK N   1      35.886  20.529  -4.216  0.00  0.00    -0.415 N 
HETATM   35  H   UNK N   1      36.092  21.137  -3.423  0.00  0.00     0.151 HD
HETATM   36  H   UNK N   1      36.690  20.336  -4.812  0.00  0.00     0.151 HD
ENDBRANCH   2  34
BRANCH   2  37
HETATM   37  C   UNK N   1      34.812  18.384  -4.539  0.00  0.00     0.150 C 
HETATM   38  O   UNK N   1      34.064  17.737  -3.825  0.00  0.00    -0.296 OA
HETATM   39  C   UNK N   1      35.866  17.660  -5.323  0.00  0.00     0.093 C 
ENDBRANCH   2  37
BRANCH   7  40
HETATM   40  O   UNK N   1      31.705  21.924  -2.274  0.00  0.00    -0.359 OA
HETATM   41  H   UNK N   1      31.875  22.783  -1.940  0.00  0.00     0.217 HD
ENDBRANCH   7  40
TORSDOF 8
ENDMDL
MODEL 7
REMARK VINA RESULT:      -7.2      7.940     11.945
REMARK  8 active torsions:
REMARK  status: ('A' for Active; 'I' for Inactive)
REMARK    1  A    between atoms: C_2  and  N_19 
REMARK    2  A    between atoms: C_2  and  C_20 
REMARK    3  A    between atoms: C_4  and  O_23 
REMARK    4  A    between atoms: C_7  and  O_33 
REMARK    5  A    between atoms: C_8  and  O_32 
REMARK    6  A    between atoms: C_24  and  O_23 
REMARK    7  A    between atoms: C_26  and  O_31 
REMARK    8  A    between atoms: C_27  and  O_30 
ROOT
HETATM    1  C   UNK N   1      33.425  12.576   7.509  0.00  0.00     0.075 C 
HETATM    2  C   UNK N   1      34.067  12.646   6.129  0.00  0.00     0.091 C 
HETATM    3  C   UNK N   1      33.431  13.730   5.244  0.00  0.00     0.080 C 
HETATM    4  C   UNK N   1      33.120  13.903   8.208  0.00  0.00     0.163 C 
HETATM    5  C   UNK N   1      32.481  14.918   7.296  0.00  0.00     0.014 A 
HETATM    6  C   UNK N   1      32.558  14.781   5.899  0.00  0.00    -0.010 A 
HETATM    7  C   UNK N   1      31.760  15.595   5.075  0.00  0.00     0.088 A 
HETATM    8  C   UNK N   1      31.698  15.941   7.862  0.00  0.00     0.090 A 
HETATM    9  C   UNK N   1      30.890  16.757   7.042  0.00  0.00     0.066 A 
HETATM   10  C   UNK N   1      30.883  16.550   5.645  0.00  0.00     0.066 A 
HETATM   11  C   UNK N   1      29.903  17.301   4.795  0.00  0.00     0.197 A 
HETATM   12  C   UNK N   1      29.981  17.781   7.647  0.00  0.00     0.197 A 
HETATM   13  C   UNK N   1      28.966  18.451   6.810  0.00  0.00     0.029 A 
HETATM   14  C   UNK N   1      28.915  18.206   5.429  0.00  0.00     0.029 A 
HETATM   15  C   UNK N   1      27.912  18.810   4.656  0.00  0.00     0.016 A 
HETATM   16  C   UNK N   1      26.968  19.650   5.254  0.00  0.00     0.001 A 
HETATM   17  C   UNK N   1      27.029  19.905   6.625  0.00  0.00     0.001 A 
HETATM   18  C   UNK N   1      28.025  19.308   7.401  0.00  0.00     0.016 A 
HETATM   19  O   UNK N   1      30.036  18.037   8.840  0.00  0.00    -0.286 OA
HETATM   20  O   UNK N   1      29.853  17.113   3.590  0.00  0.00    -0.286 OA
ENDROOT
BRANCH   4  21
HETATM   21  O   UNK N   1      34.225  14.419   8.926  0.00  0.00    -0.351 OA
BRANCH  21  22
HETATM   22  C   UNK N   1      34.195  13.879  10.235  0.00  0.00     0.263 C 
HETATM   23  C   UNK N   1      34.674  14.884  11.292  0.00  0.00     0.095 C 
HETATM   24  C   UNK N   1      35.899  14.339  12.017  0.00  0.00     0.153 C 
HETATM   25  C   UNK N   1      36.905  13.835  10.985  0.00  0.00     0.170 C 
HETATM   26  C   UNK N   1      36.242  12.844  10.016  0.00  0.00     0.205 C 
HETATM   27  O   UNK N   1      34.874  12.637  10.310  0.00  0.00    -0.359 OA
BRANCH  24  28
HETATM   28  O   UNK N   1      36.466  15.332  12.814  0.00  0.00    -0.393 OA
HETATM   29  H   UNK N   1      36.334  16.269  13.028  0.00  0.00     0.210 HD
ENDBRANCH  24  28
BRANCH  25  30
HETATM   30  O   UNK N   1      37.993  13.232  11.613  0.00  0.00    -0.391 OA
HETATM   31  H   UNK N   1      37.871  12.500  12.239  0.00  0.00     0.210 HD
ENDBRANCH  25  30
ENDBRANCH  21  22
ENDBRANCH   4  21
BRANCH   8  32
HETATM   32  O   UNK N   1      31.667  16.083   9.201  0.00  0.00    -0.359 OA
HETATM   33  H   UNK N   1      31.568  15.352   9.778  0.00  0.00     0.217 HD
ENDBRANCH   8  32
BRANCH   2  34
HETATM   34  N   UNK N   1      33.774  11.379   5.478  0.00  0.00    -0.415 N 
HETATM   35  H   UNK N   1      33.075  10.661   5.669  0.00  0.00     0.151 HD
HETATM   36  H   UNK N   1      34.379  11.169   4.684  0.00  0.00     0.151 HD
ENDBRANCH   2  34
BRANCH   2  37
HETATM   37  C   UNK N   1      35.571  12.805   6.249  0.00  0.00     0.150 C 
HETATM   38  O   UNK N   1      36.269  11.857   6.569  0.00  0.00    -0.296 OA
HETATM   39  C   UNK N   1      36.232  14.117   5.947  0.00  0.00     0.093 C 
ENDBRANCH   2  37
BRANCH   7  40
HETATM   40  O   UNK N   1      31.801  15.415   3.742  0.00  0.00    -0.359 OA
HETATM   41  H   UNK N   1      32.107  16.082   3.160  0.00  0.00     0.217 HD
ENDBRANCH   7  40
TORSDOF 8
ENDMDL
MODEL 8
REMARK VINA RESULT:      -7.1      5.992      8.693
REMARK  8 active torsions:
REMARK  status: ('A' for Active; 'I' for Inactive)
REMARK    1  A    between atoms: C_2  and  N_19 
REMARK    2  A    between atoms: C_2  and  C_20 
REMARK    3  A    between atoms: C_4  and  O_23 
REMARK    4  A    between atoms: C_7  and  O_33 
REMARK    5  A    between atoms: C_8  and  O_32 
REMARK    6  A    between atoms: C_24  and  O_23 
REMARK    7  A    between atoms: C_26  and  O_31 
REMARK    8  A    between atoms: C_27  and  O_30 
ROOT
HETATM    1  C   UNK N   1      29.530  18.127   6.855  0.00  0.00     0.075 C 
HETATM    2  C   UNK N   1      28.221  18.046   7.631  0.00  0.00     0.091 C 
HETATM    3  C   UNK N   1      27.303  16.929   7.109  0.00  0.00     0.080 C 
HETATM    4  C   UNK N   1      30.225  16.808   6.513  0.00  0.00     0.163 C 
HETATM    5  C   UNK N   1      29.278  15.759   5.990  0.00  0.00     0.014 A 
HETATM    6  C   UNK N   1      27.893  15.870   6.200  0.00  0.00    -0.010 A 
HETATM    7  C   UNK N   1      27.013  15.020   5.506  0.00  0.00     0.088 A 
HETATM    8  C   UNK N   1      29.788  14.728   5.178  0.00  0.00     0.090 A 
HETATM    9  C   UNK N   1      28.910  13.877   4.473  0.00  0.00     0.066 A 
HETATM   10  C   UNK N   1      27.516  14.055   4.599  0.00  0.00     0.066 A 
HETATM   11  C   UNK N   1      26.591  13.264   3.724  0.00  0.00     0.197 A 
HETATM   12  C   UNK N   1      29.447  12.843   3.533  0.00  0.00     0.197 A 
HETATM   13  C   UNK N   1      28.530  12.131   2.620  0.00  0.00     0.029 A 
HETATM   14  C   UNK N   1      27.145  12.347   2.700  0.00  0.00     0.029 A 
HETATM   15  C   UNK N   1      26.291  11.704   1.791  0.00  0.00     0.016 A 
HETATM   16  C   UNK N   1      26.813  10.852   0.813  0.00  0.00     0.001 A 
HETATM   17  C   UNK N   1      28.188  10.626   0.744  0.00  0.00     0.001 A 
HETATM   18  C   UNK N   1      29.045  11.263   1.645  0.00  0.00     0.016 A 
HETATM   19  O   UNK N   1      30.645  12.612   3.476  0.00  0.00    -0.286 OA
HETATM   20  O   UNK N   1      25.382  13.427   3.789  0.00  0.00    -0.286 OA
ENDROOT
BRANCH   4  21
HETATM   21  O   UNK N   1      31.059  16.334   7.554  0.00  0.00    -0.351 OA
BRANCH  21  22
HETATM   22  C   UNK N   1      32.210  17.156   7.609  0.00  0.00     0.263 C 
HETATM   23  C   UNK N   1      33.165  16.903   6.433  0.00  0.00     0.095 C 
HETATM   24  C   UNK N   1      34.521  16.437   6.951  0.00  0.00     0.153 C 
HETATM   25  C   UNK N   1      34.308  15.317   7.967  0.00  0.00     0.170 C 
HETATM   26  C   UNK N   1      33.323  15.756   9.061  0.00  0.00     0.205 C 
HETATM   27  O   UNK N   1      32.856  17.077   8.868  0.00  0.00    -0.359 OA
BRANCH  24  28
HETATM   28  O   UNK N   1      35.312  15.995   5.891  0.00  0.00    -0.393 OA
HETATM   29  H   UNK N   1      36.249  15.865   5.676  0.00  0.00     0.210 HD
ENDBRANCH  24  28
BRANCH  25  30
HETATM   30  O   UNK N   1      35.520  14.937   8.541  0.00  0.00    -0.391 OA
HETATM   31  H   UNK N   1      36.058  15.568   9.045  0.00  0.00     0.210 HD
ENDBRANCH  25  30
ENDBRANCH  21  22
ENDBRANCH   4  21
BRANCH   8  32
HETATM   32  O   UNK N   1      31.119  14.613   5.019  0.00  0.00    -0.359 OA
HETATM   33  H   UNK N   1      31.730  15.044   5.584  0.00  0.00     0.217 HD
ENDBRANCH   8  32
BRANCH   2  34
HETATM   34  N   UNK N   1      27.516  19.292   7.374  0.00  0.00    -0.415 N 
HETATM   35  H   UNK N   1      26.575  19.483   7.031  0.00  0.00     0.151 HD
HETATM   36  H   UNK N   1      28.064  20.129   7.573  0.00  0.00     0.151 HD
ENDBRANCH   2  34
BRANCH   2  37
HETATM   37  C   UNK N   1      28.491  17.927   9.119  0.00  0.00     0.150 C 
HETATM   38  O   UNK N   1      27.812  17.188   9.813  0.00  0.00    -0.296 OA
HETATM   39  C   UNK N   1      29.614  18.688   9.760  0.00  0.00     0.093 C 
ENDBRANCH   2  37
BRANCH   7  40
HETATM   40  O   UNK N   1      25.687  15.175   5.673  0.00  0.00    -0.359 OA
HETATM   41  H   UNK N   1      25.208  14.696   6.321  0.00  0.00     0.217 HD
ENDBRANCH   7  40
TORSDOF 8
ENDMDL
MODEL 9
REMARK VINA RESULT:      -7.1     10.459     14.242
REMARK  8 active torsions:
REMARK  status: ('A' for Active; 'I' for Inactive)
REMARK    1  A    between atoms: C_2  and  N_19 
REMARK    2  A    between atoms: C_2  and  C_20 
REMARK    3  A    between atoms: C_4  and  O_23 
REMARK    4  A    between atoms: C_7  and  O_33 
REMARK    5  A    between atoms: C_8  and  O_32 
REMARK    6  A    between atoms: C_24  and  O_23 
REMARK    7  A    between atoms: C_26  and  O_31 
REMARK    8  A    between atoms: C_27  and  O_30 
ROOT
HETATM    1  C   UNK N   1      37.380  14.180  10.867  0.00  0.00     0.075 C 
HETATM    2  C   UNK N   1      36.398  13.715  11.935  0.00  0.00     0.091 C 
HETATM    3  C   UNK N   1      34.937  14.000  11.547  0.00  0.00     0.080 C 
HETATM    4  C   UNK N   1      37.017  13.894   9.408  0.00  0.00     0.163 C 
HETATM    5  C   UNK N   1      35.580  14.210   9.084  0.00  0.00     0.014 A 
HETATM    6  C   UNK N   1      34.623  14.344  10.105  0.00  0.00    -0.010 A 
HETATM    7  C   UNK N   1      33.354  14.871   9.806  0.00  0.00     0.088 A 
HETATM    8  C   UNK N   1      35.231  14.492   7.750  0.00  0.00     0.090 A 
HETATM    9  C   UNK N   1      33.962  15.027   7.443  0.00  0.00     0.066 A 
HETATM   10  C   UNK N   1      33.036  15.265   8.482  0.00  0.00     0.066 A 
HETATM   11  C   UNK N   1      31.758  15.986   8.179  0.00  0.00     0.197 A 
HETATM   12  C   UNK N   1      33.622  15.421   6.039  0.00  0.00     0.197 A 
HETATM   13  C   UNK N   1      32.398  16.203   5.770  0.00  0.00     0.029 A 
HETATM   14  C   UNK N   1      31.502  16.493   6.810  0.00  0.00     0.029 A 
HETATM   15  C   UNK N   1      30.371  17.282   6.548  0.00  0.00     0.016 A 
HETATM   16  C   UNK N   1      30.136  17.776   5.262  0.00  0.00     0.001 A 
HETATM   17  C   UNK N   1      31.020  17.473   4.225  0.00  0.00     0.001 A 
HETATM   18  C   UNK N   1      32.148  16.689   4.477  0.00  0.00     0.016 A 
HETATM   19  O   UNK N   1      34.370  15.143   5.115  0.00  0.00    -0.286 OA
HETATM   20  O   UNK N   1      30.958  16.236   9.068  0.00  0.00    -0.286 OA
ENDROOT
BRANCH   4  21
HETATM   21  O   UNK N   1      37.412  12.604   8.981  0.00  0.00    -0.351 OA
BRANCH  21  22
HETATM   22  C   UNK N   1      38.816  12.609   8.796  0.00  0.00     0.263 C 
HETATM   23  C   UNK N   1      39.315  13.905   8.142  0.00  0.00     0.095 C 
HETATM   24  C   UNK N   1      40.002  13.593   6.817  0.00  0.00     0.153 C 
HETATM   25  C   UNK N   1      39.107  12.664   5.999  0.00  0.00     0.170 C 
HETATM   26  C   UNK N   1      38.711  11.428   6.821  0.00  0.00     0.205 C 
HETATM   27  O   UNK N   1      39.265  11.445   8.122  0.00  0.00    -0.359 OA
BRANCH  24  28
HETATM   28  O   UNK N   1      40.254  14.773   6.119  0.00  0.00    -0.393 OA
HETATM   29  H   UNK N   1      40.328  15.085   5.203  0.00  0.00     0.210 HD
ENDBRANCH  24  28
BRANCH  25  30
HETATM   30  O   UNK N   1      39.748  12.271   4.827  0.00  0.00    -0.391 OA
HETATM   31  H   UNK N   1      39.354  11.611   4.234  0.00  0.00     0.210 HD
ENDBRANCH  25  30
ENDBRANCH  21  22
ENDBRANCH   4  21
BRANCH   8  32
HETATM   32  O   UNK N   1      36.147  14.320   6.779  0.00  0.00    -0.359 OA
HETATM   33  H   UNK N   1      36.976  13.914   6.940  0.00  0.00     0.217 HD
ENDBRANCH   8  32
BRANCH   2  34
HETATM   34  N   UNK N   1      36.661  14.526  13.113  0.00  0.00    -0.415 N 
HETATM   35  H   UNK N   1      36.583  15.529  13.280  0.00  0.00     0.151 HD
HETATM   36  H   UNK N   1      36.984  13.994  13.921  0.00  0.00     0.151 HD
ENDBRANCH   2  34
BRANCH   2  37
HETATM   37  C   UNK N   1      36.632  12.255  12.275  0.00  0.00     0.150 C 
HETATM   38  O   UNK N   1      37.744  11.866  12.592  0.00  0.00    -0.296 OA
HETATM   39  C   UNK N   1      35.501  11.270  12.258  0.00  0.00     0.093 C 
ENDBRANCH   2  37
BRANCH   7  40
HETATM   40  O   UNK N   1      32.468  15.049  10.803  0.00  0.00    -0.359 OA
HETATM   41  H   UNK N   1      32.124  15.894  11.017  0.00  0.00     0.217 HD
ENDBRANCH   7  40
TORSDOF 8
ENDMDL
