REMARK  25 active torsions:
REMARK  status: ('A' for Active; 'I' for Inactive)
REMARK    1  A    between atoms: O_5  and  H_132 
REMARK    2  A    between atoms: O_17  and  C_64 
REMARK    3  A    between atoms: C_86  and  O_19 
REMARK    4  A    between atoms: O_22  and  HO_23 
REMARK    5  A    between atoms: N_37  and  C_98 
REMARK    6  A    between atoms: C_44  and  C_45 
REMARK    7  A    between atoms: C_46  and  C_48 
REMARK    8  A    between atoms: C_51  and  C_53 
REMARK    9  A    between atoms: C_67  and  C_71 
REMARK   10  A    between atoms: C_67  and  C_72 
REMARK   11  A    between atoms: C_74  and  C_78 
REMARK   12  A    between atoms: C_77  and  C_89 
REMARK   13  A    between atoms: C_79  and  C_87 
REMARK   14  A    between atoms: C_81  and  C_83 
REMARK   15  A    between atoms: C_91  and  C_94 
REMARK   16  A    between atoms: C_100  and  C_102 
REMARK   17  A    between atoms: C_101  and  C_103 
REMARK   18  A    between atoms: C_105  and  C_112 
REMARK   19  A    between atoms: C_109  and  C_113 
REMARK   20  A    between atoms: C_109  and  C_114 
REMARK   21  A    between atoms: C_111  and  C_115 
REMARK   22  A    between atoms: C_116  and  C_119 
REMARK   23  A    between atoms: C_121  and  C_122 
REMARK   24  A    between atoms: C_126  and  C_127 
REMARK   25  A    between atoms: C_126  and  C_129 
ROOT
HETATM    1 Cl   UNK N   1       4.823  -1.310  -0.000  0.00  0.00    -0.081 Cl
HETATM    2 Cl   UNK N   1       8.879   4.235   0.000  0.00  0.00    -0.081 Cl
HETATM    3  O   UNK N   1       9.382  -1.635  -0.000  0.00  0.00    -0.341 OA
HETATM    4  O   UNK N   1       8.280  -1.310   0.000  0.00  0.00    -0.341 OA
HETATM    5  O   UNK N   1       7.781  -4.144   0.000  0.00  0.00    -0.391 OA
HETATM    6  O   UNK N   1       4.708   7.968  -0.000  0.00  0.00    -0.348 OA
HETATM    7  O   UNK N   1       8.817  -4.432  -0.000  0.00  0.00    -0.390 OA
HETATM    8  O   UNK N   1       4.828   6.723   0.000  0.00  0.00    -0.348 OA
HETATM    9  O   UNK N   1       6.866   9.214   0.000  0.00  0.00    -0.390 OA
HETATM   10  O   UNK N   1       5.428  10.044   0.000  0.00  0.00    -0.390 OA
HETATM   11  O   UNK N   1       6.866   7.553   0.000  0.00  0.00    -0.388 OA
HETATM   12  O   UNK N   1      10.768  -3.340  -0.000  0.00  0.00    -0.330 OA
HETATM   13  O   UNK N   1      11.018  -2.523   0.000  0.00  0.00    -0.262 OA
HETATM   14  O   UNK N   1       3.389  10.044  -0.000  0.00  0.00    -0.398 OA
HETATM   15  O   UNK N   1       5.261  -2.475  -0.000  0.00  0.00    -0.274 OA
HETATM   16  O   UNK N   1       6.852   0.120   0.000  0.00  0.00    -0.310 OA
HETATM   17  O   UNK N   1       9.709  -0.480   0.000  0.00  0.00    -0.312 OA
HETATM   18  O   UNK N   1       1.960   6.723  -0.000  0.00  0.00    -0.361 OA
HETATM   19  O   UNK N   1       6.137   5.713  -0.000  0.00  0.00    -0.360 OA
HETATM   20  O   UNK N   1       7.555   3.238  -0.000  0.00  0.00    -0.271 OA
HETATM   21  O   UNK N   1       1.960   1.992  -0.000  0.00  0.00    -0.375 OA
HETATM   22  O   UNK N   1       4.699   2.188  -0.000  0.00  0.00    -0.271 OA
HETATM   23  O   UNK N   1       4.579   3.181   0.000  0.00  0.00    -0.375 OA
ATOM     24  HO  UNK N   1       3.664   2.924   0.000  1.00  0.00     0.212 HD
HETATM   25  O   UNK N   1       9.699   1.765   0.000  0.00  0.00    -0.271 OA
HETATM   26  O   UNK N   1      11.253   3.238  -0.000  0.00  0.00    -0.271 OA
HETATM   27  O   UNK N   1      10.902   6.151  -0.000  0.00  0.00    -0.308 OA
HETATM   28  O   UNK N   1       8.990   5.485  -0.000  0.00  0.00    -0.359 OA
HETATM   29  O   UNK N   1      14.062   2.948  -0.000  0.00  0.00    -0.375 OA
ATOM     30  HO  UNK N   1      13.503   3.717   0.000  1.00  0.00     0.212 HD
HETATM   31  O   UNK N   1      12.567   7.550   0.000  0.00  0.00    -0.358 OA
HETATM   32  N   UNK N   1       6.613  -1.983   0.000  0.00  0.00    -0.349 N 
HETATM   33  N   UNK N   1       3.279   3.232   0.000  0.00  0.00    -0.383 N 
HETATM   34  N   UNK N   1       6.252   2.595   0.000  0.00  0.00    -0.342 N 
HETATM   35  N   UNK N   1       8.395   2.408  -0.000  0.00  0.00    -0.342 N 
HETATM   36  N   UNK N   1       4.108   2.408  -0.000  0.00  0.00    -0.347 N 
HETATM   37  N   UNK N   1       4.945   4.724  -0.000  0.00  0.00    -0.395 N 
HETATM   38  N   UNK N   1      10.538   2.595   0.000  0.00  0.00    -0.342 N 
HETATM   39  N   UNK N   1      13.282   2.408   0.000  0.00  0.00    -0.382 N 
HETATM   40  N   UNK N   1       1.984   4.529  -0.000  0.00  0.00     0.080 N 
HETATM   41  N   UNK N   1      13.366   3.873  -0.000  0.00  0.00    -0.416 N 
HETATM   42  C   UNK N   1       7.431  -2.127  -0.000  0.00  0.00     0.170 A 
HETATM   43  C   UNK N   1       8.315  -2.907  -0.000  0.00  0.00     0.177 A 
HETATM   44  C   UNK N   1       8.533  -3.652   0.000  0.00  0.00     0.188 A 
HETATM   45  C   UNK N   1       7.964  -1.491   0.000  0.00  0.00     0.287 A 
HETATM   46  C   UNK N   1       9.666  -3.015   0.000  0.00  0.00     0.255 A 
HETATM   47  C   UNK N   1       6.147   8.799   0.000  0.00  0.00     0.183 A 
HETATM   48  C   UNK N   1       5.428   9.214   0.000  0.00  0.00     0.180 A 
HETATM   49  C   UNK N   1       6.147   7.368  -0.000  0.00  0.00     0.204 A 
HETATM   50  C   UNK N   1       4.108   8.799   0.000  0.00  0.00     0.179 A 
HETATM   51  C   UNK N   1       4.828   7.553   0.000  0.00  0.00     0.292 A 
HETATM   52  C   UNK N   1      10.484  -2.560  -0.000  0.00  0.00     0.288 A 
HETATM   53  C   UNK N   1       6.079  -2.619   0.000  0.00  0.00     0.218 A 
HETATM   54  C   UNK N   1       3.389   8.614  -0.000  0.00  0.00     0.198 A 
HETATM   55  C   UNK N   1       6.363  -3.399  -0.000  0.00  0.00     0.103 A 
HETATM   56  C   UNK N   1       7.681  -0.480  -0.000  0.00  0.00     0.238 A 
HETATM   57  C   UNK N   1       5.829  -4.635  -0.000  0.00  0.00     0.009 A 
HETATM   58  C   UNK N   1       6.113  -5.416   0.000  0.00  0.00     0.000 A 
HETATM   59  C   UNK N   1       5.580  -5.452   0.000  0.00  0.00     0.000 A 
HETATM   60  C   UNK N   1       4.708   6.307  -0.000  0.00  0.00     0.163 A 
HETATM   61  C   UNK N   1       7.566  -0.067   0.000  0.00  0.00     0.089 A 
HETATM   62  C   UNK N   1       8.395  -0.067  -0.000  0.00  0.00     0.089 A 
HETATM   63  C   UNK N   1       4.108   5.482   0.000  0.00  0.00     0.085 A 
HETATM   64  C   UNK N   1       6.463  -6.832  -0.000  0.00  0.00     0.000 A 
HETATM   65  C   UNK N   1       7.681   1.770  -0.000  0.00  0.00    -0.021 A 
HETATM   66  C   UNK N   1       3.994   4.470   0.000  0.00  0.00    -0.040 A 
HETATM   67  C   UNK N   1       5.330  -6.869   0.000  0.00  0.00     0.000 A 
HETATM   68  C   UNK N   1       7.681   1.995   0.000  0.00  0.00     0.210 A 
HETATM   69  C   UNK N   1       7.566   0.758  -0.000  0.00  0.00     0.045 A 
HETATM   70  C   UNK N   1       8.395   0.758   0.000  0.00  0.00     0.045 A 
HETATM   71  C   UNK N   1       3.994   3.645  -0.000  0.00  0.00     0.157 A 
HETATM   72  C   UNK N   1       5.614  -7.649   0.000  0.00  0.00     0.000 A 
HETATM   73  C   UNK N   1       5.423   4.470  -0.000  0.00  0.00    -0.013 A 
HETATM   74  C   UNK N   1       3.394   6.720   0.000  0.00  0.00     0.042 A 
HETATM   75  C   UNK N   1       6.137   2.408  -0.000  0.00  0.00     0.210 A 
HETATM   76  C   UNK N   1       3.394   2.595   0.000  0.00  0.00     0.166 A 
HETATM   77  C   UNK N   1       6.137   3.832   0.000  0.00  0.00    -0.026 A 
HETATM   78  C   UNK N   1       2.679   4.882  -0.000  0.00  0.00     0.042 A 
HETATM   79  C   UNK N   1       5.423   4.245   0.000  0.00  0.00     0.020 A 
HETATM   80  C   UNK N   1       2.679   6.307  -0.000  0.00  0.00     0.064 A 
HETATM   81  C   UNK N   1       7.566   2.408   0.000  0.00  0.00     0.246 A 
HETATM   82  C   UNK N   1       3.394   1.170  -0.000  0.00  0.00     0.178 A 
HETATM   83  C   UNK N   1       3.279   2.408   0.000  0.00  0.00     0.239 A 
HETATM   84  C   UNK N   1       6.137   5.482   0.000  0.00  0.00     0.072 A 
HETATM   85  C   UNK N   1       5.423   2.595   0.000  0.00  0.00     0.245 A 
HETATM   86  C   UNK N   1       4.181   4.510  -0.000  0.00  0.00     0.240 A 
HETATM   87  C   UNK N   1       6.252   4.245  -0.000  0.00  0.00     0.012 A 
HETATM   88  C   UNK N   1       4.708   0.758  -0.000  0.00  0.00    -0.026 A 
HETATM   89  C   UNK N   1       5.537  -0.067  -0.000  0.00  0.00     0.097 A 
HETATM   90  C   UNK N   1       6.252   5.070   0.000  0.00  0.00     0.038 A 
HETATM   91  C   UNK N   1      10.424  -0.067   0.000  0.00  0.00     0.075 A 
HETATM   92  C   UNK N   1       9.709   2.595  -0.000  0.00  0.00     0.246 A 
HETATM   93  C   UNK N   1       9.824   3.007  -0.000  0.00  0.00     0.212 A 
HETATM   94  C   UNK N   1       4.708  -0.067  -0.000  0.00  0.00     0.036 A 
HETATM   95  C   UNK N   1       5.423   1.170   0.000  0.00  0.00     0.012 A 
HETATM   96  C   UNK N   1       4.823  -0.480   0.000  0.00  0.00     0.068 A 
HETATM   97  C   UNK N   1       5.537   0.758  -0.000  0.00  0.00     0.039 A 
HETATM   98  C   UNK N   1       3.722   5.873   0.000  0.00  0.00     0.118 A 
HETATM   99  C   UNK N   1      12.567   1.995  -0.000  0.00  0.00     0.175 A 
HETATM  100  C   UNK N   1      12.567   1.170   0.000  0.00  0.00     0.073 A 
HETATM  101  C   UNK N   1      10.424   0.758   0.000  0.00  0.00     0.038 A 
HETATM  102  C   UNK N   1      11.138  -0.480  -0.000  0.00  0.00     0.038 A 
HETATM  103  C   UNK N   1      11.853   0.758  -0.000  0.00  0.00    -0.056 A 
HETATM  104  C   UNK N   1       9.824   3.232   0.000  0.00  0.00     0.001 A 
HETATM  105  C   UNK N   1       3.535   5.608   0.000  0.00  0.00     0.049 A 
HETATM  106  C   UNK N   1      11.853   2.408   0.000  0.00  0.00     0.241 A 
HETATM  107  C   UNK N   1      11.138   1.170  -0.000  0.00  0.00     0.010 A 
HETATM  108  C   UNK N   1      11.853  -0.067   0.000  0.00  0.00     0.010 A 
HETATM  109  C   UNK N   1       2.771   4.194   0.000  0.00  0.00     0.273 A 
HETATM  110  C   UNK N   1      10.538   4.245  -0.000  0.00  0.00     0.049 A 
HETATM  111  C   UNK N   1       9.109   4.245  -0.000  0.00  0.00     0.076 A 
HETATM  112  C   UNK N   1      12.681   3.232   0.000  0.00  0.00     0.237 A 
HETATM  113  C   UNK N   1      10.538   4.470   0.000  0.00  0.00     0.079 A 
HETATM  114  C   UNK N   1      12.567   4.245  -0.000  0.00  0.00     0.136 A 
HETATM  115  C   UNK N   1       9.109   5.070   0.000  0.00  0.00     0.090 A 
HETATM  116  C   UNK N   1       9.824   5.482  -0.000  0.00  0.00     0.075 A 
HETATM  117  C   UNK N   1      11.967   5.070  -0.000  0.00  0.00     0.060 A 
HETATM  118  C   UNK N   1       1.361   4.479   0.000  0.00  0.00     0.309 A 
HETATM  119  C   UNK N   1       1.820   3.115   0.000  0.00  0.00     0.309 A 
HETATM  120  C   UNK N   1      11.253   6.307  -0.000  0.00  0.00     0.106 A 
HETATM  121  C   UNK N   1      11.853   5.482   0.000  0.00  0.00     0.024 A 
HETATM  122  C   UNK N   1      12.681   5.482  -0.000  0.00  0.00    -0.013 A 
HETATM  123  C   UNK N   1      11.967   6.720   0.000  0.00  0.00     0.099 A 
HETATM  124  C   UNK N   1      12.681   6.307   0.000  0.00  0.00     0.036 A 
HETATM  125  C   UNK N   1      13.943   4.469   0.000  0.00  0.00     0.140 A 
HETATM  126  H   UNK N   1       6.817  -4.256   0.000  0.00  0.00     0.210 HD
HETATM  127  H   UNK N   1       8.193  -5.175  -0.000  0.00  0.00     0.210 HD
HETATM  128  H   UNK N   1       7.706   8.729   0.000  0.00  0.00     0.210 HD
HETATM  129  H   UNK N   1       6.268  10.529  -0.000  0.00  0.00     0.210 HD
HETATM  130  H   UNK N   1       7.545   6.860   0.000  0.00  0.00     0.210 HD
HETATM  131  H   UNK N   1      10.166  -4.058  -0.000  0.00  0.00     0.220 HD
HETATM  132  H   UNK N   1       4.229  10.529  -0.000  0.00  0.00     0.209 HD
HETATM  133  H   UNK N   1       1.960   7.659  -0.000  0.00  0.00     0.217 HD
HETATM  134  H   UNK N   1       6.949   6.181  -0.000  0.00  0.00     0.217 HD
HETATM  135  H   UNK N   1       9.641   6.159  -0.000  0.00  0.00     0.217 HD
HETATM  136  H   UNK N   1      13.499   7.455  -0.000  0.00  0.00     0.217 HD
HETATM  137  H   UNK N   1       6.276  -1.058   0.000  0.00  0.00     0.163 HD
HETATM  138  H   UNK N   1       2.427   3.725   0.000  0.00  0.00     0.156 HD
HETATM  139  H   UNK N   1       5.832   3.485   0.000  0.00  0.00     0.163 HD
HETATM  140  H   UNK N   1       8.073   3.338   0.000  0.00  0.00     0.163 HD
HETATM  141  H   UNK N   1       4.052   1.425  -0.000  0.00  0.00     0.163 HD
HETATM  142  H   UNK N   1       5.901   4.489  -0.000  0.00  0.00     0.155 HD
HETATM  143  H   UNK N   1      10.217   1.664   0.000  0.00  0.00     0.163 HD
HETATM  144  H   UNK N   1      14.245   2.203   0.000  0.00  0.00     0.156 HD
HETATM  145  H   UNK N   1      13.551   2.870  -0.000  0.00  0.00     0.153 HD
ENDROOT
BRANCH  72 146
HETATM  146  C   UNK N   1       5.080  -8.885  -0.000  0.00  0.00     0.004 A 
HETATM  147  C   UNK N   1       5.964  -9.666   0.000  0.00  0.00    -0.023 A 
HETATM  148  C   UNK N   1       4.830 -10.302  -0.000  0.00  0.00     0.009 A 
HETATM  149  C   UNK N   1       6.782  -9.810   0.000  0.00  0.00     0.009 C 
ENDBRANCH  72 146
BRANCH  82 150
HETATM  150  O   UNK N   1       2.807   0.583   0.000  0.00  0.00    -0.389 OA
HETATM  151  H   UNK N   1       1.870   0.834   0.000  0.00  0.00     0.210 HD
ATOM    152  HO  UNK N   1       1.960   1.042   0.000  1.00  0.00     0.212 HD
BRANCH 152 153
ENDBRANCH 152 153
ENDBRANCH  82 150
TORSDOF 25
