REMARK  6 active torsions:
REMARK  status: ('A' for Active; 'I' for Inactive)
REMARK    1  A    between atoms: C_2  and  O_4 
REMARK    2  A    between atoms: O_4  and  C_5 
REMARK    3  A    between atoms: N_11  and  C_13 
REMARK    4  A    between atoms: C_13  and  C_14 
REMARK    5  A    between atoms: C_13  and  C_19 
REMARK    6  A    between atoms: C_14  and  C_16 
ROOT
HETATM    1  C   UNK N   1      -2.295  -0.232  -0.176  0.00  0.00     0.121 A 
HETATM    2  C   UNK N   1      -1.357  -1.202  -0.560  0.00  0.00     0.055 A 
HETATM    3  C   UNK N   1      -0.024  -0.705  -0.498  0.00  0.00    -0.014 A 
HETATM    4  C   UNK N   1       0.070   0.618  -0.078  0.00  0.00    -0.005 A 
HETATM    5  C   UNK N   1       1.356   1.359   0.046  0.00  0.00     0.077 C 
HETATM    6  C   UNK N   1       2.466   0.520  -0.601  0.00  0.00     0.279 C 
HETATM    7  N   UNK N   1       2.391  -0.888  -0.168  0.00  0.00     0.109 N 
HETATM    8  C   UNK N   1       1.216  -1.478  -0.847  0.00  0.00     0.313 C 
HETATM    9  S   UNK N   1      -1.460   1.158   0.220  0.00  0.00    -0.069 SA
ENDROOT
BRANCH   7  10
HETATM   10  C   UNK N   1       3.617  -1.607  -0.587  0.00  0.00     0.328 C 
BRANCH  10  11
HETATM   11  C   UNK N   1       4.922  -0.937  -0.136  0.00  0.00     0.169 C 
HETATM   12  O   UNK N   1       5.980  -1.342  -0.599  0.00  0.00    -0.295 OA
BRANCH  11  13
HETATM   13  C   UNK N   1       4.930   0.215   0.847  0.00  0.00     0.058 A 
HETATM   14  C   UNK N   1       5.443   1.467   0.151  0.00  0.00     0.013 A 
HETATM   15  C   UNK N   1       6.331   0.739   1.132  0.00  0.00     0.013 A 
ENDBRANCH  11  13
ENDBRANCH  10  11
BRANCH  10  16
HETATM   16  C   UNK N   1       3.653  -3.100  -0.232  0.00  0.00     0.021 A 
HETATM   17  C   UNK N   1       4.662  -3.880  -0.825  0.00  0.00     0.013 A 
HETATM   18  C   UNK N   1       4.771  -5.246  -0.562  0.00  0.00     0.001 A 
HETATM   19  C   UNK N   1       3.863  -5.864   0.294  0.00  0.00     0.003 A 
HETATM   20  C   UNK N   1       2.852  -5.114   0.895  0.00  0.00     0.043 A 
HETATM   21  C   UNK N   1       2.739  -3.741   0.646  0.00  0.00     0.125 A 
HETATM   22  F   UNK N   1       1.751  -3.061   1.275  0.00  0.00    -0.205 F 
ENDBRANCH  10  16
ENDBRANCH   7  10
BRANCH   1  23
HETATM   23  O   UNK N   1      -3.637  -0.436  -0.150  0.00  0.00    -0.272 OA
BRANCH  23  24
HETATM   24  C   UNK N   1      -4.589   0.504   0.100  0.00  0.00     0.260 C 
HETATM   25  C   UNK N   1      -6.018   0.091   0.162  0.00  0.00     0.126 C 
HETATM   26  O   UNK N   1      -4.302   1.681   0.250  0.00  0.00    -0.265 OA
ENDBRANCH  23  24
ENDBRANCH   1  23
TORSDOF 6
