MODEL 1
REMARK VINA RESULT:      -9.4      0.000      0.000
REMARK  4 active torsions:
REMARK  status: ('A' for Active; 'I' for Inactive)
REMARK    1  A    between atoms: C_9  and  O_2 
REMARK       I    between atoms: N_5  and  C_13 
REMARK    2  A    between atoms: N_6  and  C_22 
REMARK       I    between atoms: N_6  and  C_25 
REMARK    3  A    between atoms: C_13  and  C_16 
REMARK    4  A    between atoms: C_25  and  C_26 
ROOT
HETATM    1  C   UNK N   1      35.975  13.663   9.673  0.00  0.00     0.038 A 
HETATM    2  C   UNK N   1      37.275  13.576  10.247  0.00  0.00    -0.044 A 
HETATM    3  C   UNK N   1      34.908  13.072  10.375  0.00  0.00     0.020 A 
HETATM    4  C   UNK N   1      37.447  12.950  11.471  0.00  0.00     0.037 A 
HETATM    5  C   UNK N   1      36.373  12.372  12.153  0.00  0.00     0.035 A 
HETATM    6  C   UNK N   1      35.097  12.452  11.608  0.00  0.00     0.030 A 
HETATM    7  C   UNK N   1      38.497  14.152   9.611  0.00  0.00     0.049 C 
ENDROOT
BRANCH   1   8
HETATM    8  C   UNK N   1      35.760  14.265   8.304  0.00  0.00     0.259 C 
HETATM    9  O   UNK N   1      36.157  13.619   7.349  0.00  0.00    -0.267 OA
HETATM   10  N   UNK N   1      35.091  15.466   8.088  0.00  0.00    -0.313 N 
HETATM   11  C   UNK N   1      34.850  16.350   9.212  0.00  0.00     0.133 C 
HETATM   12  C   UNK N   1      34.586  15.818   6.762  0.00  0.00     0.046 A 
HETATM   13  C   UNK N   1      33.367  16.588   9.409  0.00  0.00     0.023 C 
HETATM   14  C   UNK N   1      32.916  17.845   8.675  0.00  0.00     0.038 C 
HETATM   15  C   UNK N   1      33.747  18.193   7.436  0.00  0.00     0.153 C 
HETATM   16  C   UNK N   1      33.913  17.055   6.470  0.00  0.00    -0.001 A 
HETATM   17  C   UNK N   1      33.342  17.248   5.204  0.00  0.00     0.035 A 
HETATM   18  C   UNK N   1      33.413  16.264   4.222  0.00  0.00     0.034 A 
HETATM   19 Cl   UNK N   1      32.645  16.506   2.670  0.00  0.00    -0.084 Cl
HETATM   20  C   UNK N   1      34.074  15.076   4.479  0.00  0.00     0.026 A 
HETATM   21  C   UNK N   1      34.642  14.862   5.725  0.00  0.00     0.032 A 
BRANCH  15  22
HETATM   22  O   UNK N   1      34.980  18.748   7.782  0.00  0.00    -0.391 OA
HETATM   23  H   UNK N   1      35.580  19.470   8.028  0.00  0.00     0.210 HD
ENDBRANCH  15  22
ENDBRANCH   1   8
BRANCH   5  24
HETATM   24  N   UNK N   1      36.526  11.932  13.490  0.00  0.00    -0.323 N 
HETATM   25  C   UNK N   1      36.564  12.766  14.562  0.00  0.00     0.256 C 
HETATM   26  O   UNK N   1      36.825  13.952  14.420  0.00  0.00    -0.267 OA
HETATM   27  H   UNK N   1      36.609  10.965  13.652  0.00  0.00     0.169 HD
BRANCH  25  28
HETATM   28  C   UNK N   1      36.097  12.246  15.867  0.00  0.00     0.038 A 
HETATM   29  C   UNK N   1      36.430  10.952  16.343  0.00  0.00    -0.046 A 
HETATM   30  C   UNK N   1      36.066  10.580  17.640  0.00  0.00     0.007 A 
HETATM   31  C   UNK N   1      37.215   9.974  15.533  0.00  0.00     0.049 C 
HETATM   32  C   UNK N   1      35.373  11.467  18.466  0.00  0.00     0.001 A 
HETATM   33  C   UNK N   1      35.033  12.735  17.999  0.00  0.00     0.001 A 
HETATM   34  C   UNK N   1      35.400  13.122  16.714  0.00  0.00     0.017 A 
ENDBRANCH  25  28
ENDBRANCH   5  24
TORSDOF 4
ENDMDL
MODEL 2
REMARK VINA RESULT:      -9.2      1.504      2.238
REMARK  4 active torsions:
REMARK  status: ('A' for Active; 'I' for Inactive)
REMARK    1  A    between atoms: C_9  and  O_2 
REMARK       I    between atoms: N_5  and  C_13 
REMARK    2  A    between atoms: N_6  and  C_22 
REMARK       I    between atoms: N_6  and  C_25 
REMARK    3  A    between atoms: C_13  and  C_16 
REMARK    4  A    between atoms: C_25  and  C_26 
ROOT
HETATM    1  C   UNK N   1      35.798  14.101  10.791  0.00  0.00     0.038 A 
HETATM    2  C   UNK N   1      35.305  12.815  11.151  0.00  0.00    -0.044 A 
HETATM    3  C   UNK N   1      36.246  14.944  11.825  0.00  0.00     0.020 A 
HETATM    4  C   UNK N   1      35.306  12.424  12.481  0.00  0.00     0.037 A 
HETATM    5  C   UNK N   1      35.759  13.275  13.492  0.00  0.00     0.035 A 
HETATM    6  C   UNK N   1      36.247  14.532  13.156  0.00  0.00     0.030 A 
HETATM    7  C   UNK N   1      34.793  11.821  10.161  0.00  0.00     0.049 C 
ENDROOT
BRANCH   1   8
HETATM    8  C   UNK N   1      35.737  14.594   9.365  0.00  0.00     0.259 C 
HETATM    9  O   UNK N   1      36.673  14.301   8.640  0.00  0.00    -0.267 OA
HETATM   10  N   UNK N   1      34.658  15.298   8.839  0.00  0.00    -0.313 N 
HETATM   11  C   UNK N   1      33.677  15.864   9.746  0.00  0.00     0.133 C 
HETATM   12  C   UNK N   1      34.475  15.427   7.394  0.00  0.00     0.046 A 
HETATM   13  C   UNK N   1      32.298  15.301   9.475  0.00  0.00     0.023 C 
HETATM   14  C   UNK N   1      31.524  16.198   8.515  0.00  0.00     0.038 C 
HETATM   15  C   UNK N   1      32.398  16.997   7.544  0.00  0.00     0.153 C 
HETATM   16  C   UNK N   1      33.398  16.165   6.792  0.00  0.00    -0.001 A 
HETATM   17  C   UNK N   1      33.222  16.119   5.401  0.00  0.00     0.035 A 
HETATM   18  C   UNK N   1      34.072  15.372   4.591  0.00  0.00     0.034 A 
HETATM   19 Cl   UNK N   1      33.799  15.286   2.866  0.00  0.00    -0.084 Cl
HETATM   20  C   UNK N   1      35.126  14.672   5.152  0.00  0.00     0.026 A 
HETATM   21  C   UNK N   1      35.315  14.699   6.525  0.00  0.00     0.032 A 
BRANCH  15  22
HETATM   22  O   UNK N   1      33.013  18.079   8.176  0.00  0.00    -0.391 OA
HETATM   23  H   UNK N   1      33.567  18.503   8.850  0.00  0.00     0.210 HD
ENDBRANCH  15  22
ENDBRANCH   1   8
BRANCH   5  24
HETATM   24  N   UNK N   1      35.956  12.786  14.806  0.00  0.00    -0.323 N 
HETATM   25  C   UNK N   1      34.946  12.498  15.667  0.00  0.00     0.256 C 
HETATM   26  O   UNK N   1      33.830  12.970  15.500  0.00  0.00    -0.267 OA
HETATM   27  H   UNK N   1      36.881  12.647  15.113  0.00  0.00     0.169 HD
BRANCH  25  28
HETATM   28  C   UNK N   1      35.180  11.455  16.691  0.00  0.00     0.038 A 
HETATM   29  C   UNK N   1      35.302  11.747  18.074  0.00  0.00    -0.046 A 
HETATM   30  C   UNK N   1      35.387  10.700  18.995  0.00  0.00     0.007 A 
HETATM   31  C   UNK N   1      35.285  13.143  18.605  0.00  0.00     0.049 C 
HETATM   32  C   UNK N   1      35.359   9.372  18.566  0.00  0.00     0.001 A 
HETATM   33  C   UNK N   1      35.250   9.079  17.209  0.00  0.00     0.001 A 
HETATM   34  C   UNK N   1      35.153  10.112  16.281  0.00  0.00     0.017 A 
ENDBRANCH  25  28
ENDBRANCH   5  24
TORSDOF 4
ENDMDL
MODEL 3
REMARK VINA RESULT:      -9.2      3.514     10.047
REMARK  4 active torsions:
REMARK  status: ('A' for Active; 'I' for Inactive)
REMARK    1  A    between atoms: C_9  and  O_2 
REMARK       I    between atoms: N_5  and  C_13 
REMARK    2  A    between atoms: N_6  and  C_22 
REMARK       I    between atoms: N_6  and  C_25 
REMARK    3  A    between atoms: C_13  and  C_16 
REMARK    4  A    between atoms: C_25  and  C_26 
ROOT
HETATM    1  C   UNK N   1      35.865  14.300  11.695  0.00  0.00     0.038 A 
HETATM    2  C   UNK N   1      36.806  13.944  10.689  0.00  0.00    -0.044 A 
HETATM    3  C   UNK N   1      34.735  15.043  11.303  0.00  0.00     0.020 A 
HETATM    4  C   UNK N   1      36.576  14.307   9.371  0.00  0.00     0.037 A 
HETATM    5  C   UNK N   1      35.447  15.042   9.002  0.00  0.00     0.035 A 
HETATM    6  C   UNK N   1      34.516  15.393   9.973  0.00  0.00     0.030 A 
HETATM    7  C   UNK N   1      38.050  13.165  10.962  0.00  0.00     0.049 C 
ENDROOT
BRANCH   1   8
HETATM    8  C   UNK N   1      36.120  13.995  13.152  0.00  0.00     0.259 C 
HETATM    9  O   UNK N   1      36.540  14.909  13.842  0.00  0.00    -0.267 OA
HETATM   10  N   UNK N   1      35.847  12.764  13.740  0.00  0.00    -0.313 N 
HETATM   11  C   UNK N   1      35.597  11.616  12.889  0.00  0.00     0.133 C 
HETATM   12  C   UNK N   1      35.756  12.627  15.193  0.00  0.00     0.046 A 
HETATM   13  C   UNK N   1      34.219  11.040  13.141  0.00  0.00     0.023 C 
HETATM   14  C   UNK N   1      34.280   9.918  14.171  0.00  0.00     0.038 C 
HETATM   15  C   UNK N   1      35.425  10.040  15.181  0.00  0.00     0.153 C 
HETATM   16  C   UNK N   1      35.505  11.378  15.859  0.00  0.00    -0.001 A 
HETATM   17  C   UNK N   1      35.297  11.364  17.247  0.00  0.00     0.035 A 
HETATM   18  C   UNK N   1      35.330  12.539  17.993  0.00  0.00     0.034 A 
HETATM   19 Cl   UNK N   1      35.013  12.504  19.711  0.00  0.00    -0.084 Cl
HETATM   20  C   UNK N   1      35.590  13.747  17.370  0.00  0.00     0.026 A 
HETATM   21  C   UNK N   1      35.793  13.784  15.999  0.00  0.00     0.032 A 
BRANCH  15  22
HETATM   22  O   UNK N   1      36.652   9.686  14.614  0.00  0.00    -0.391 OA
HETATM   23  H   UNK N   1      37.513   9.240  14.593  0.00  0.00     0.210 HD
ENDBRANCH  15  22
ENDBRANCH   1   8
BRANCH   5  24
HETATM   24  N   UNK N   1      35.118  15.214   7.636  0.00  0.00    -0.323 N 
HETATM   25  C   UNK N   1      33.941  14.819   7.084  0.00  0.00     0.256 C 
HETATM   26  O   UNK N   1      33.243  13.982   7.637  0.00  0.00    -0.267 OA
HETATM   27  H   UNK N   1      35.782  15.646   7.052  0.00  0.00     0.169 HD
BRANCH  25  28
HETATM   28  C   UNK N   1      33.440  15.563   5.906  0.00  0.00     0.038 A 
HETATM   29  C   UNK N   1      32.734  16.789   6.013  0.00  0.00    -0.046 A 
HETATM   30  C   UNK N   1      32.410  17.501   4.855  0.00  0.00     0.007 A 
HETATM   31  C   UNK N   1      32.367  17.394   7.328  0.00  0.00     0.049 C 
HETATM   32  C   UNK N   1      32.768  17.013   3.597  0.00  0.00     0.001 A 
HETATM   33  C   UNK N   1      33.452  15.805   3.486  0.00  0.00     0.001 A 
HETATM   34  C   UNK N   1      33.791  15.091   4.631  0.00  0.00     0.017 A 
ENDBRANCH  25  28
ENDBRANCH   5  24
TORSDOF 4
ENDMDL
MODEL 4
REMARK VINA RESULT:      -9.1      6.556      9.961
REMARK  4 active torsions:
REMARK  status: ('A' for Active; 'I' for Inactive)
REMARK    1  A    between atoms: C_9  and  O_2 
REMARK       I    between atoms: N_5  and  C_13 
REMARK    2  A    between atoms: N_6  and  C_22 
REMARK       I    between atoms: N_6  and  C_25 
REMARK    3  A    between atoms: C_13  and  C_16 
REMARK    4  A    between atoms: C_25  and  C_26 
ROOT
HETATM    1  C   UNK N   1      28.996  17.847   5.569  0.00  0.00     0.038 A 
HETATM    2  C   UNK N   1      29.514  17.592   6.870  0.00  0.00    -0.044 A 
HETATM    3  C   UNK N   1      29.821  17.552   4.467  0.00  0.00     0.020 A 
HETATM    4  C   UNK N   1      30.779  17.045   7.014  0.00  0.00     0.037 A 
HETATM    5  C   UNK N   1      31.580  16.757   5.906  0.00  0.00     0.035 A 
HETATM    6  C   UNK N   1      31.088  16.996   4.629  0.00  0.00     0.030 A 
HETATM    7  C   UNK N   1      28.753  17.861   8.127  0.00  0.00     0.049 C 
ENDROOT
BRANCH   1   8
HETATM    8  C   UNK N   1      27.657  18.517   5.374  0.00  0.00     0.259 C 
HETATM    9  O   UNK N   1      27.652  19.735   5.323  0.00  0.00    -0.267 OA
HETATM   10  N   UNK N   1      26.466  17.820   5.193  0.00  0.00    -0.313 N 
HETATM   11  C   UNK N   1      26.425  16.404   5.506  0.00  0.00     0.133 C 
HETATM   12  C   UNK N   1      25.282  18.480   4.646  0.00  0.00     0.046 A 
HETATM   13  C   UNK N   1      26.051  15.588   4.286  0.00  0.00     0.023 C 
HETATM   14  C   UNK N   1      24.547  15.342   4.237  0.00  0.00     0.038 C 
HETATM   15  C   UNK N   1      23.701  16.424   4.914  0.00  0.00     0.153 C 
HETATM   16  C   UNK N   1      24.018  17.821   4.463  0.00  0.00    -0.001 A 
HETATM   17  C   UNK N   1      22.977  18.494   3.805  0.00  0.00     0.035 A 
HETATM   18  C   UNK N   1      23.146  19.789   3.324  0.00  0.00     0.034 A 
HETATM   19 Cl   UNK N   1      21.853  20.586   2.457  0.00  0.00    -0.084 Cl
HETATM   20  C   UNK N   1      24.350  20.445   3.509  0.00  0.00     0.026 A 
HETATM   21  C   UNK N   1      25.393  19.798   4.153  0.00  0.00     0.032 A 
BRANCH  15  22
HETATM   22  O   UNK N   1      23.748  16.319   6.306  0.00  0.00    -0.391 OA
HETATM   23  H   UNK N   1      24.136  16.048   7.153  0.00  0.00     0.210 HD
ENDBRANCH  15  22
ENDBRANCH   1   8
BRANCH   5  24
HETATM   24  N   UNK N   1      32.769  16.004   6.058  0.00  0.00    -0.323 N 
HETATM   25  C   UNK N   1      33.977  16.548   6.362  0.00  0.00     0.256 C 
HETATM   26  O   UNK N   1      34.190  17.737   6.176  0.00  0.00    -0.267 OA
HETATM   27  H   UNK N   1      32.718  15.029   5.936  0.00  0.00     0.169 HD
BRANCH  25  28
HETATM   28  C   UNK N   1      34.953  15.711   7.096  0.00  0.00     0.038 A 
HETATM   29  C   UNK N   1      35.012  15.661   8.512  0.00  0.00    -0.046 A 
HETATM   30  C   UNK N   1      35.867  14.748   9.135  0.00  0.00     0.007 A 
HETATM   31  C   UNK N   1      34.147  16.510   9.384  0.00  0.00     0.049 C 
HETATM   32  C   UNK N   1      36.667  13.892   8.376  0.00  0.00     0.001 A 
HETATM   33  C   UNK N   1      36.620  13.944   6.985  0.00  0.00     0.001 A 
HETATM   34  C   UNK N   1      35.765  14.840   6.352  0.00  0.00     0.017 A 
ENDBRANCH  25  28
ENDBRANCH   5  24
TORSDOF 4
ENDMDL
MODEL 5
REMARK VINA RESULT:      -8.5      8.167     13.356
REMARK  4 active torsions:
REMARK  status: ('A' for Active; 'I' for Inactive)
REMARK    1  A    between atoms: C_9  and  O_2 
REMARK       I    between atoms: N_5  and  C_13 
REMARK    2  A    between atoms: N_6  and  C_22 
REMARK       I    between atoms: N_6  and  C_25 
REMARK    3  A    between atoms: C_13  and  C_16 
REMARK    4  A    between atoms: C_25  and  C_26 
ROOT
HETATM    1  C   UNK N   1      27.780  17.600   5.911  0.00  0.00     0.038 A 
HETATM    2  C   UNK N   1      27.166  18.788   5.422  0.00  0.00    -0.044 A 
HETATM    3  C   UNK N   1      27.016  16.418   5.906  0.00  0.00     0.020 A 
HETATM    4  C   UNK N   1      25.869  18.743   4.937  0.00  0.00     0.037 A 
HETATM    5  C   UNK N   1      25.128  17.557   4.937  0.00  0.00     0.035 A 
HETATM    6  C   UNK N   1      25.716  16.389   5.407  0.00  0.00     0.030 A 
HETATM    7  C   UNK N   1      27.854  20.112   5.374  0.00  0.00     0.049 C 
ENDROOT
BRANCH   1   8
HETATM    8  C   UNK N   1      29.160  17.625   6.523  0.00  0.00     0.259 C 
HETATM    9  O   UNK N   1      29.235  17.927   7.702  0.00  0.00    -0.267 OA
HETATM   10  N   UNK N   1      30.314  17.268   5.833  0.00  0.00    -0.313 N 
HETATM   11  C   UNK N   1      30.266  17.159   4.387  0.00  0.00     0.133 C 
HETATM   12  C   UNK N   1      31.551  16.950   6.547  0.00  0.00     0.046 A 
HETATM   13  C   UNK N   1      30.631  15.761   3.934  0.00  0.00     0.023 C 
HETATM   14  C   UNK N   1      32.120  15.664   3.618  0.00  0.00     0.038 C 
HETATM   15  C   UNK N   1      33.004  16.636   4.405  0.00  0.00     0.153 C 
HETATM   16  C   UNK N   1      32.781  16.603   5.890  0.00  0.00    -0.001 A 
HETATM   17  C   UNK N   1      33.878  16.180   6.655  0.00  0.00     0.035 A 
HETATM   18  C   UNK N   1      33.798  16.091   8.042  0.00  0.00     0.034 A 
HETATM   19 Cl   UNK N   1      35.160  15.508   8.970  0.00  0.00    -0.084 Cl
HETATM   20  C   UNK N   1      32.628  16.441   8.692  0.00  0.00     0.026 A 
HETATM   21  C   UNK N   1      31.530  16.857   7.955  0.00  0.00     0.032 A 
BRANCH  15  22
HETATM   22  O   UNK N   1      32.907  17.937   3.907  0.00  0.00    -0.391 OA
HETATM   23  H   UNK N   1      32.478  18.665   3.430  0.00  0.00     0.210 HD
ENDBRANCH  15  22
ENDBRANCH   1   8
BRANCH   5  24
HETATM   24  N   UNK N   1      23.896  17.481   4.244  0.00  0.00    -0.323 N 
HETATM   25  C   UNK N   1      22.705  17.866   4.772  0.00  0.00     0.256 C 
HETATM   26  O   UNK N   1      22.563  17.966   5.982  0.00  0.00    -0.267 OA
HETATM   27  H   UNK N   1      23.904  17.128   3.326  0.00  0.00     0.169 HD
BRANCH  25  28
HETATM   28  C   UNK N   1      21.653  18.341   3.845  0.00  0.00     0.038 A 
HETATM   29  C   UNK N   1      20.550  17.539   3.457  0.00  0.00    -0.046 A 
HETATM   30  C   UNK N   1      19.527  18.100   2.687  0.00  0.00     0.007 A 
HETATM   31  C   UNK N   1      20.396  16.118   3.889  0.00  0.00     0.049 C 
HETATM   32  C   UNK N   1      19.587  19.437   2.292  0.00  0.00     0.001 A 
HETATM   33  C   UNK N   1      20.674  20.227   2.661  0.00  0.00     0.001 A 
HETATM   34  C   UNK N   1      21.694  19.684   3.438  0.00  0.00     0.017 A 
ENDBRANCH  25  28
ENDBRANCH   5  24
TORSDOF 4
ENDMDL
MODEL 6
REMARK VINA RESULT:      -8.5      8.455     13.561
REMARK  4 active torsions:
REMARK  status: ('A' for Active; 'I' for Inactive)
REMARK    1  A    between atoms: C_9  and  O_2 
REMARK       I    between atoms: N_5  and  C_13 
REMARK    2  A    between atoms: N_6  and  C_22 
REMARK       I    between atoms: N_6  and  C_25 
REMARK    3  A    between atoms: C_13  and  C_16 
REMARK    4  A    between atoms: C_25  and  C_26 
ROOT
HETATM    1  C   UNK N   1      27.554  15.644   4.936  0.00  0.00     0.038 A 
HETATM    2  C   UNK N   1      27.018  16.706   4.156  0.00  0.00    -0.044 A 
HETATM    3  C   UNK N   1      26.745  14.511   5.145  0.00  0.00     0.020 A 
HETATM    4  C   UNK N   1      25.751  16.587   3.608  0.00  0.00     0.037 A 
HETATM    5  C   UNK N   1      24.965  15.452   3.824  0.00  0.00     0.035 A 
HETATM    6  C   UNK N   1      25.476  14.404   4.581  0.00  0.00     0.030 A 
HETATM    7  C   UNK N   1      27.760  17.967   3.859  0.00  0.00     0.049 C 
ENDROOT
BRANCH   1   8
HETATM    8  C   UNK N   1      28.897  15.770   5.617  0.00  0.00     0.259 C 
HETATM    9  O   UNK N   1      29.839  15.205   5.086  0.00  0.00    -0.267 OA
HETATM   10  N   UNK N   1      29.112  16.533   6.760  0.00  0.00    -0.313 N 
HETATM   11  C   UNK N   1      27.969  16.987   7.529  0.00  0.00     0.133 C 
HETATM   12  C   UNK N   1      30.462  16.924   7.162  0.00  0.00     0.046 A 
HETATM   13  C   UNK N   1      27.931  18.499   7.606  0.00  0.00     0.023 C 
HETATM   14  C   UNK N   1      28.630  18.996   8.867  0.00  0.00     0.038 C 
HETATM   15  C   UNK N   1      29.739  18.076   9.386  0.00  0.00     0.153 C 
HETATM   16  C   UNK N   1      30.750  17.686   8.346  0.00  0.00    -0.001 A 
HETATM   17  C   UNK N   1      32.059  18.133   8.579  0.00  0.00     0.035 A 
HETATM   18  C   UNK N   1      33.088  17.852   7.684  0.00  0.00     0.034 A 
HETATM   19 Cl   UNK N   1      34.699  18.467   7.967  0.00  0.00    -0.084 Cl
HETATM   20  C   UNK N   1      32.832  17.102   6.549  0.00  0.00     0.026 A 
HETATM   21  C   UNK N   1      31.545  16.654   6.297  0.00  0.00     0.032 A 
BRANCH  15  22
HETATM   22  O   UNK N   1      29.216  16.953  10.030  0.00  0.00    -0.391 OA
HETATM   23  H   UNK N   1      29.138  16.003  10.214  0.00  0.00     0.210 HD
ENDBRANCH  15  22
ENDBRANCH   1   8
BRANCH   5  24
HETATM   24  N   UNK N   1      23.773  15.254   3.087  0.00  0.00    -0.323 N 
HETATM   25  C   UNK N   1      22.532  15.532   3.563  0.00  0.00     0.256 C 
HETATM   26  O   UNK N   1      22.333  15.631   4.766  0.00  0.00    -0.267 OA
HETATM   27  H   UNK N   1      23.849  14.893   2.174  0.00  0.00     0.169 HD
BRANCH  25  28
HETATM   28  C   UNK N   1      21.477  15.897   2.590  0.00  0.00     0.038 A 
HETATM   29  C   UNK N   1      20.983  17.219   2.452  0.00  0.00    -0.046 A 
HETATM   30  C   UNK N   1      20.086  17.515   1.422  0.00  0.00     0.007 A 
HETATM   31  C   UNK N   1      21.427  18.341   3.332  0.00  0.00     0.049 C 
HETATM   32  C   UNK N   1      19.669  16.521   0.535  0.00  0.00     0.001 A 
HETATM   33  C   UNK N   1      20.143  15.218   0.673  0.00  0.00     0.001 A 
HETATM   34  C   UNK N   1      21.046  14.912   1.687  0.00  0.00     0.017 A 
ENDBRANCH  25  28
ENDBRANCH   5  24
TORSDOF 4
ENDMDL
MODEL 7
REMARK VINA RESULT:      -8.3      4.460      7.096
REMARK  4 active torsions:
REMARK  status: ('A' for Active; 'I' for Inactive)
REMARK    1  A    between atoms: C_9  and  O_2 
REMARK       I    between atoms: N_5  and  C_13 
REMARK    2  A    between atoms: N_6  and  C_22 
REMARK       I    between atoms: N_6  and  C_25 
REMARK    3  A    between atoms: C_13  and  C_16 
REMARK    4  A    between atoms: C_25  and  C_26 
ROOT
HETATM    1  C   UNK N   1      31.331  16.651   7.063  0.00  0.00     0.038 A 
HETATM    2  C   UNK N   1      32.481  16.737   6.228  0.00  0.00    -0.044 A 
HETATM    3  C   UNK N   1      31.420  15.859   8.223  0.00  0.00     0.020 A 
HETATM    4  C   UNK N   1      33.644  16.074   6.588  0.00  0.00     0.037 A 
HETATM    5  C   UNK N   1      33.713  15.295   7.746  0.00  0.00     0.035 A 
HETATM    6  C   UNK N   1      32.599  15.205   8.573  0.00  0.00     0.030 A 
HETATM    7  C   UNK N   1      32.527  17.534   4.967  0.00  0.00     0.049 C 
ENDROOT
BRANCH   1   8
HETATM    8  C   UNK N   1      30.022  17.290   6.663  0.00  0.00     0.259 C 
HETATM    9  O   UNK N   1      29.725  18.334   7.221  0.00  0.00    -0.267 OA
HETATM   10  N   UNK N   1      29.190  16.785   5.669  0.00  0.00    -0.313 N 
HETATM   11  C   UNK N   1      29.404  15.432   5.192  0.00  0.00     0.133 C 
HETATM   12  C   UNK N   1      28.148  17.614   5.066  0.00  0.00     0.046 A 
HETATM   13  C   UNK N   1      29.703  15.419   3.708  0.00  0.00     0.023 C 
HETATM   14  C   UNK N   1      28.428  15.210   2.898  0.00  0.00     0.038 C 
HETATM   15  C   UNK N   1      27.152  15.721   3.575  0.00  0.00     0.153 C 
HETATM   16  C   UNK N   1      27.240  17.141   4.057  0.00  0.00    -0.001 A 
HETATM   17  C   UNK N   1      26.363  18.044   3.438  0.00  0.00     0.035 A 
HETATM   18  C   UNK N   1      26.354  19.393   3.783  0.00  0.00     0.034 A 
HETATM   19 Cl   UNK N   1      25.291  20.509   2.959  0.00  0.00    -0.084 Cl
HETATM   20  C   UNK N   1      27.207  19.861   4.767  0.00  0.00     0.026 A 
HETATM   21  C   UNK N   1      28.085  18.987   5.388  0.00  0.00     0.032 A 
BRANCH  15  22
HETATM   22  O   UNK N   1      26.732  14.865   4.595  0.00  0.00    -0.391 OA
HETATM   23  H   UNK N   1      26.575  14.000   5.006  0.00  0.00     0.210 HD
ENDBRANCH  15  22
ENDBRANCH   1   8
BRANCH   5  24
HETATM   24  N   UNK N   1      34.958  14.808   8.210  0.00  0.00    -0.323 N 
HETATM   25  C   UNK N   1      35.659  15.369   9.230  0.00  0.00     0.256 C 
HETATM   26  O   UNK N   1      35.444  16.522   9.575  0.00  0.00    -0.267 OA
HETATM   27  H   UNK N   1      35.339  14.016   7.767  0.00  0.00     0.169 HD
BRANCH  25  28
HETATM   28  C   UNK N   1      36.546  14.494  10.029  0.00  0.00     0.038 A 
HETATM   29  C   UNK N   1      36.132  13.874  11.235  0.00  0.00    -0.046 A 
HETATM   30  C   UNK N   1      36.977  12.955  11.864  0.00  0.00     0.007 A 
HETATM   31  C   UNK N   1      34.790  14.114  11.844  0.00  0.00     0.049 C 
HETATM   32  C   UNK N   1      38.225  12.650  11.320  0.00  0.00     0.001 A 
HETATM   33  C   UNK N   1      38.642  13.264  10.141  0.00  0.00     0.001 A 
HETATM   34  C   UNK N   1      37.806  14.172   9.498  0.00  0.00     0.017 A 
ENDBRANCH  25  28
ENDBRANCH   5  24
TORSDOF 4
ENDMDL
MODEL 8
REMARK VINA RESULT:      -8.2      9.478     12.763
REMARK  4 active torsions:
REMARK  status: ('A' for Active; 'I' for Inactive)
REMARK    1  A    between atoms: C_9  and  O_2 
REMARK       I    between atoms: N_5  and  C_13 
REMARK    2  A    between atoms: N_6  and  C_22 
REMARK       I    between atoms: N_6  and  C_25 
REMARK    3  A    between atoms: C_13  and  C_16 
REMARK    4  A    between atoms: C_25  and  C_26 
ROOT
HETATM    1  C   UNK N   1      25.693  15.838   3.683  0.00  0.00     0.038 A 
HETATM    2  C   UNK N   1      25.822  15.175   4.936  0.00  0.00    -0.044 A 
HETATM    3  C   UNK N   1      26.567  16.908   3.415  0.00  0.00     0.020 A 
HETATM    4  C   UNK N   1      26.805  15.573   5.828  0.00  0.00     0.037 A 
HETATM    5  C   UNK N   1      27.665  16.636   5.541  0.00  0.00     0.035 A 
HETATM    6  C   UNK N   1      27.554  17.291   4.320  0.00  0.00     0.030 A 
HETATM    7  C   UNK N   1      24.960  14.030   5.355  0.00  0.00     0.049 C 
ENDROOT
BRANCH   1   8
HETATM    8  C   UNK N   1      24.584  15.487   2.720  0.00  0.00     0.259 C 
HETATM    9  O   UNK N   1      24.884  14.794   1.762  0.00  0.00    -0.267 OA
HETATM   10  N   UNK N   1      23.256  15.861   2.905  0.00  0.00    -0.313 N 
HETATM   11  C   UNK N   1      22.942  16.884   3.885  0.00  0.00     0.133 C 
HETATM   12  C   UNK N   1      22.178  15.201   2.169  0.00  0.00     0.046 A 
HETATM   13  C   UNK N   1      22.011  16.348   4.952  0.00  0.00     0.023 C 
HETATM   14  C   UNK N   1      20.556  16.631   4.595  0.00  0.00     0.038 C 
HETATM   15  C   UNK N   1      20.275  16.726   3.092  0.00  0.00     0.153 C 
HETATM   16  C   UNK N   1      20.793  15.562   2.297  0.00  0.00    -0.001 A 
HETATM   17  C   UNK N   1      19.815  14.785   1.658  0.00  0.00     0.035 A 
HETATM   18  C   UNK N   1      20.161  13.669   0.901  0.00  0.00     0.034 A 
HETATM   19 Cl   UNK N   1      18.922  12.683   0.160  0.00  0.00    -0.084 Cl
HETATM   20  C   UNK N   1      21.492  13.320   0.751  0.00  0.00     0.026 A 
HETATM   21  C   UNK N   1      22.474  14.071   1.378  0.00  0.00     0.032 A 
BRANCH  15  22
HETATM   22  O   UNK N   1      20.718  17.939   2.561  0.00  0.00    -0.391 OA
HETATM   23  H   UNK N   1      21.176  18.794   2.588  0.00  0.00     0.210 HD
ENDBRANCH  15  22
ENDBRANCH   1   8
BRANCH   5  24
HETATM   24  N   UNK N   1      28.792  16.887   6.359  0.00  0.00    -0.323 N 
HETATM   25  C   UNK N   1      29.963  16.203   6.268  0.00  0.00     0.256 C 
HETATM   26  O   UNK N   1      30.003  15.106   5.730  0.00  0.00    -0.267 OA
HETATM   27  H   UNK N   1      28.724  17.600   7.035  0.00  0.00     0.169 HD
BRANCH  25  28
HETATM   28  C   UNK N   1      31.209  16.899   6.661  0.00  0.00     0.038 A 
HETATM   29  C   UNK N   1      31.444  17.371   7.978  0.00  0.00    -0.046 A 
HETATM   30  C   UNK N   1      32.696  17.897   8.309  0.00  0.00     0.007 A 
HETATM   31  C   UNK N   1      30.420  17.278   9.061  0.00  0.00     0.049 C 
HETATM   32  C   UNK N   1      33.712  17.966   7.354  0.00  0.00     0.001 A 
HETATM   33  C   UNK N   1      33.483  17.514   6.056  0.00  0.00     0.001 A 
HETATM   34  C   UNK N   1      32.245  16.977   5.717  0.00  0.00     0.017 A 
ENDBRANCH  25  28
ENDBRANCH   5  24
TORSDOF 4
ENDMDL
MODEL 9
REMARK VINA RESULT:      -7.8      3.671     10.232
REMARK  4 active torsions:
REMARK  status: ('A' for Active; 'I' for Inactive)
REMARK    1  A    between atoms: C_9  and  O_2 
REMARK       I    between atoms: N_5  and  C_13 
REMARK    2  A    between atoms: N_6  and  C_22 
REMARK       I    between atoms: N_6  and  C_25 
REMARK    3  A    between atoms: C_13  and  C_16 
REMARK    4  A    between atoms: C_25  and  C_26 
ROOT
HETATM    1  C   UNK N   1      35.101  13.181  11.342  0.00  0.00     0.038 A 
HETATM    2  C   UNK N   1      34.569  12.216  10.441  0.00  0.00    -0.044 A 
HETATM    3  C   UNK N   1      35.526  14.412  10.808  0.00  0.00     0.020 A 
HETATM    4  C   UNK N   1      34.459  12.519   9.093  0.00  0.00     0.037 A 
HETATM    5  C   UNK N   1      34.884  13.749   8.583  0.00  0.00     0.035 A 
HETATM    6  C   UNK N   1      35.402  14.703   9.451  0.00  0.00     0.030 A 
HETATM    7  C   UNK N   1      34.086  10.869  10.867  0.00  0.00     0.049 C 
ENDROOT
BRANCH   1   8
HETATM    8  C   UNK N   1      35.312  12.859  12.802  0.00  0.00     0.259 C 
HETATM    9  O   UNK N   1      34.544  13.375  13.598  0.00  0.00    -0.267 OA
HETATM   10  N   UNK N   1      36.282  11.975  13.263  0.00  0.00    -0.313 N 
HETATM   11  C   UNK N   1      37.346  11.565  12.366  0.00  0.00     0.133 C 
HETATM   12  C   UNK N   1      36.212  11.416  14.613  0.00  0.00     0.046 A 
HETATM   13  C   UNK N   1      37.343  10.064  12.167  0.00  0.00     0.023 C 
HETATM   14  C   UNK N   1      38.286   9.384  13.154  0.00  0.00     0.038 C 
HETATM   15  C   UNK N   1      38.480  10.137  14.474  0.00  0.00     0.153 C 
HETATM   16  C   UNK N   1      37.197  10.520  15.155  0.00  0.00    -0.001 A 
HETATM   17  C   UNK N   1      36.977   9.926  16.406  0.00  0.00     0.035 A 
HETATM   18  C   UNK N   1      35.820  10.187  17.135  0.00  0.00     0.034 A 
HETATM   19 Cl   UNK N   1      35.542   9.391  18.666  0.00  0.00    -0.084 Cl
HETATM   20  C   UNK N   1      34.871  11.062  16.637  0.00  0.00     0.026 A 
HETATM   21  C   UNK N   1      35.066  11.656  15.400  0.00  0.00     0.032 A 
BRANCH  15  22
HETATM   22  O   UNK N   1      39.321  11.241  14.318  0.00  0.00    -0.391 OA
HETATM   23  H   UNK N   1      39.519  12.184  14.203  0.00  0.00     0.210 HD
ENDBRANCH  15  22
ENDBRANCH   1   8
BRANCH   5  24
HETATM   24  N   UNK N   1      34.568  14.122   7.255  0.00  0.00    -0.323 N 
HETATM   25  C   UNK N   1      33.305  14.367   6.818  0.00  0.00     0.256 C 
HETATM   26  O   UNK N   1      32.338  13.941   7.433  0.00  0.00    -0.267 OA
HETATM   27  H   UNK N   1      35.307  14.210   6.611  0.00  0.00     0.169 HD
BRANCH  25  28
HETATM   28  C   UNK N   1      33.129  15.315   5.694  0.00  0.00     0.038 A 
HETATM   29  C   UNK N   1      33.116  16.722   5.871  0.00  0.00    -0.046 A 
HETATM   30  C   UNK N   1      33.080  17.557   4.750  0.00  0.00     0.007 A 
HETATM   31  C   UNK N   1      33.200  17.366   7.215  0.00  0.00     0.049 C 
HETATM   32  C   UNK N   1      33.050  17.018   3.463  0.00  0.00     0.001 A 
HETATM   33  C   UNK N   1      33.051  15.636   3.285  0.00  0.00     0.001 A 
HETATM   34  C   UNK N   1      33.098  14.794   4.391  0.00  0.00     0.017 A 
ENDBRANCH  25  28
ENDBRANCH   5  24
TORSDOF 4
ENDMDL
