REMARK  16 active torsions:
REMARK  status: ('A' for Active; 'I' for Inactive)
REMARK    1  A    between atoms: O_105  and  C_65 
REMARK    2  A    between atoms: C_65  and  O_114 
REMARK    3  A    between atoms: O_106  and  C_66 
REMARK    4  A    between atoms: C_66  and  O_113 
REMARK    5  A    between atoms: O_107  and  C_67 
REMARK    6  A    between atoms: C_67  and  O_116 
REMARK    7  A    between atoms: O_108  and  C_68 
REMARK    8  A    between atoms: C_68  and  O_115 
REMARK    9  A    between atoms: O_109  and  C_69 
REMARK   10  A    between atoms: C_69  and  O_118 
REMARK   11  A    between atoms: O_110  and  C_70 
REMARK   12  A    between atoms: C_70  and  O_117 
REMARK   13  A    between atoms: O_111  and  C_71 
REMARK   14  A    between atoms: C_71  and  O_120 
REMARK   15  A    between atoms: O_112  and  C_72 
REMARK   16  A    between atoms: C_72  and  O_119 
ROOT
HETATM    1  C   UNK N   1      -0.247   1.219   0.000  0.00  0.00     0.120 A 
HETATM    2  C   UNK N   1       1.795   0.094   0.000  0.00  0.00     0.120 A 
HETATM    3  C   UNK N   1      -6.123   4.976   0.000  0.00  0.00     0.120 A 
HETATM    4  C   UNK N   1       1.574   2.747   0.000  0.00  0.00     0.120 A 
HETATM    5  C   UNK N   1      -1.578  -2.726   0.000  0.00  0.00     0.120 A 
HETATM    6  C   UNK N   1       6.123  -4.976   0.000  0.00  0.00     0.120 A 
HETATM    7  C   UNK N   1      -1.930  -0.065   0.000  0.00  0.00     0.120 A 
HETATM    8  C   UNK N   1       0.275  -1.088   0.000  0.00  0.00     0.120 A 
HETATM    9  C   UNK N   1      -0.996   1.435   0.000  0.00  0.00     0.084 A 
HETATM   10  C   UNK N   1       1.569   0.840   0.000  0.00  0.00     0.084 A 
HETATM   11  C   UNK N   1      -5.817   4.193   0.000  0.00  0.00     0.084 A 
HETATM   12  C   UNK N   1       2.099   2.110   0.000  0.00  0.00     0.084 A 
HETATM   13  C   UNK N   1      -2.103  -2.095   0.000  0.00  0.00     0.084 A 
HETATM   14  C   UNK N   1       5.817  -4.193   0.000  0.00  0.00     0.084 A 
HETATM   15  C   UNK N   1      -1.570  -0.773   0.000  0.00  0.00     0.084 A 
HETATM   16  C   UNK N   1       0.901  -1.488   0.000  0.00  0.00     0.084 A 
HETATM   17  C   UNK N   1      -0.991   2.954   0.000  0.00  0.00     0.108 A 
HETATM   18  C   UNK N   1       1.471   2.251   0.000  0.00  0.00     0.108 A 
HETATM   19  C   UNK N   1      -4.554   3.338   0.000  0.00  0.00     0.108 A 
HETATM   20  C   UNK N   1       3.042   0.924   0.000  0.00  0.00     0.108 A 
HETATM   21  C   UNK N   1      -3.002  -0.900   0.000  0.00  0.00     0.108 A 
HETATM   22  C   UNK N   1       4.554  -3.338   0.000  0.00  0.00     0.108 A 
HETATM   23  C   UNK N   1      -1.479  -2.227   0.000  0.00  0.00     0.108 A 
HETATM   24  C   UNK N   1       0.993  -3.012   0.000  0.00  0.00     0.108 A 
HETATM   25  C   UNK N   1      -0.325   3.413   0.000  0.00  0.00     0.165 A 
HETATM   26  C   UNK N   1       2.184   2.644   0.000  0.00  0.00     0.165 A 
HETATM   27  C   UNK N   1      -3.752   3.062   0.000  0.00  0.00     0.165 A 
HETATM   28  C   UNK N   1       3.413   0.325   0.000  0.00  0.00     0.165 A 
HETATM   29  C   UNK N   1      -3.413  -0.325   0.000  0.00  0.00     0.165 A 
HETATM   30  C   UNK N   1       3.752  -3.062   0.000  0.00  0.00     0.165 A 
HETATM   31  C   UNK N   1      -2.184  -2.644   0.000  0.00  0.00     0.165 A 
HETATM   32  C   UNK N   1       0.325  -3.413   0.000  0.00  0.00     0.165 A 
HETATM   33  C   UNK N   1      -0.427   0.289   0.000  0.00  0.00     0.140 A 
HETATM   34  C   UNK N   1       2.481  -0.291   0.000  0.00  0.00     0.140 A 
HETATM   35  C   UNK N   1      -6.955   5.097   0.000  0.00  0.00     0.140 A 
HETATM   36  C   UNK N   1       0.865   2.293   0.000  0.00  0.00     0.140 A 
HETATM   37  C   UNK N   1      -0.876  -2.274   0.000  0.00  0.00     0.140 A 
HETATM   38  C   UNK N   1       6.955  -5.097   0.000  0.00  0.00     0.140 A 
HETATM   39  C   UNK N   1      -2.559   0.526   0.000  0.00  0.00     0.140 A 
HETATM   40  C   UNK N   1       0.496  -0.259   0.000  0.00  0.00     0.140 A 
HETATM   41  C   UNK N   1      -0.488   4.818   0.000  0.00  0.00     0.183 A 
HETATM   42  C   UNK N   1      -2.644   2.184   0.000  0.00  0.00     0.183 A 
HETATM   43  C   UNK N   1       3.062   3.752   0.000  0.00  0.00     0.183 A 
HETATM   44  C   UNK N   1      -4.818  -0.488   0.000  0.00  0.00     0.183 A 
HETATM   45  C   UNK N   1       4.818   0.488   0.000  0.00  0.00     0.183 A 
HETATM   46  C   UNK N   1      -3.062  -3.752   0.000  0.00  0.00     0.183 A 
HETATM   47  C   UNK N   1       2.644  -2.184   0.000  0.00  0.00     0.183 A 
HETATM   48  C   UNK N   1       0.488  -4.818   0.000  0.00  0.00     0.183 A 
HETATM   49  C   UNK N   1       0.328   4.912   0.000  0.00  0.00     0.204 A 
HETATM   50  C   UNK N   1      -2.138   2.821   0.000  0.00  0.00     0.204 A 
HETATM   51  C   UNK N   1       3.706   3.241   0.000  0.00  0.00     0.204 A 
HETATM   52  C   UNK N   1      -4.912   0.328   0.000  0.00  0.00     0.204 A 
HETATM   53  C   UNK N   1       4.912  -0.328   0.000  0.00  0.00     0.204 A 
HETATM   54  C   UNK N   1      -3.706  -3.241   0.000  0.00  0.00     0.204 A 
HETATM   55  C   UNK N   1       2.138  -2.821   0.000  0.00  0.00     0.204 A 
HETATM   56  C   UNK N   1      -0.328  -4.912   0.000  0.00  0.00     0.204 A 
HETATM   57  C   UNK N   1      -0.831   4.066   0.000  0.00  0.00     0.185 A 
HETATM   58  C   UNK N   1       2.287   3.462   0.000  0.00  0.00     0.185 A 
HETATM   59  C   UNK N   1      -3.462   2.287   0.000  0.00  0.00     0.185 A 
HETATM   60  C   UNK N   1       4.066   0.831   0.000  0.00  0.00     0.185 A 
HETATM   61  C   UNK N   1      -4.066  -0.831   0.000  0.00  0.00     0.185 A 
HETATM   62  C   UNK N   1       3.462  -2.287   0.000  0.00  0.00     0.185 A 
HETATM   63  C   UNK N   1      -2.287  -3.462   0.000  0.00  0.00     0.185 A 
HETATM   64  C   UNK N   1       0.831  -4.066   0.000  0.00  0.00     0.185 A 
HETATM   65  C   UNK N   1       0.833   4.252   0.000  0.00  0.00     0.292 A 
HETATM   66  C   UNK N   1      -2.418   3.596   0.000  0.00  0.00     0.292 A 
HETATM   67  C   UNK N   1       3.596   2.418   0.000  0.00  0.00     0.292 A 
HETATM   68  C   UNK N   1      -4.252   0.833   0.000  0.00  0.00     0.292 A 
HETATM   69  C   UNK N   1       4.252  -0.833   0.000  0.00  0.00     0.292 A 
HETATM   70  C   UNK N   1      -3.596  -2.418   0.000  0.00  0.00     0.292 A 
HETATM   71  C   UNK N   1       2.418  -3.596   0.000  0.00  0.00     0.292 A 
HETATM   72  C   UNK N   1      -0.833  -4.252   0.000  0.00  0.00     0.292 A 
HETATM   73  O   UNK N   1      -0.064  -0.399   0.000  0.00  0.00    -0.650 OA
HETATM   74  O   UNK N   1      -1.163  -0.013   0.000  0.00  0.00    -0.776 OA
HETATM   75  O   UNK N   1       3.192  -0.125   0.000  0.00  0.00    -0.650 OA
HETATM   76  O   UNK N   1       2.513  -1.022   0.000  0.00  0.00    -0.776 OA
HETATM   77  O   UNK N   1      -7.523   4.487   0.000  0.00  0.00    -0.650 OA
HETATM   78  O   UNK N   1      -7.240   5.877   0.000  0.00  0.00    -0.776 OA
HETATM   79  O   UNK N   1       0.656   1.465   0.000  0.00  0.00    -0.650 OA
HETATM   80  O   UNK N   1       0.297   2.832   0.000  0.00  0.00    -0.776 OA
HETATM   81  O   UNK N   1      -0.705  -1.453   0.000  0.00  0.00    -0.650 OA
HETATM   82  O   UNK N   1      -0.327  -2.828   0.000  0.00  0.00    -0.776 OA
HETATM   83  O   UNK N   1       7.523  -4.487   0.000  0.00  0.00    -0.650 OA
HETATM   84  O   UNK N   1       7.240  -5.877   0.000  0.00  0.00    -0.776 OA
HETATM   85  O   UNK N   1      -3.187   0.123   0.000  0.00  0.00    -0.650 OA
HETATM   86  O   UNK N   1      -2.648   1.355   0.000  0.00  0.00    -0.776 OA
HETATM   87  O   UNK N   1       0.167   0.402   0.000  0.00  0.00    -0.650 OA
HETATM   88  O   UNK N   1       1.212  -0.011   0.000  0.00  0.00    -0.776 OA
HETATM   89  O   UNK N   1      -0.863   5.577   0.000  0.00  0.00    -0.390 OA
HETATM   90  O   UNK N   1      -2.160   1.811   0.000  0.00  0.00    -0.390 OA
HETATM   91  O   UNK N   1       3.344   4.550   0.000  0.00  0.00    -0.390 OA
HETATM   92  O   UNK N   1      -5.574  -0.873   0.000  0.00  0.00    -0.390 OA
HETATM   93  O   UNK N   1       5.574   0.873   0.000  0.00  0.00    -0.390 OA
HETATM   94  O   UNK N   1      -3.344  -4.550   0.000  0.00  0.00    -0.390 OA
HETATM   95  O   UNK N   1       2.818  -1.479   0.000  0.00  0.00    -0.390 OA
HETATM   96  O   UNK N   1       0.863  -5.577   0.000  0.00  0.00    -0.390 OA
HETATM   97  O   UNK N   1       0.640   5.697   0.000  0.00  0.00    -0.388 OA
HETATM   98  O   UNK N   1      -1.814   3.436   0.000  0.00  0.00    -0.388 OA
HETATM   99  O   UNK N   1       4.481   3.579   0.000  0.00  0.00    -0.388 OA
HETATM  100  O   UNK N   1      -5.711   0.611   0.000  0.00  0.00    -0.388 OA
HETATM  101  O   UNK N   1       5.711  -0.611   0.000  0.00  0.00    -0.388 OA
HETATM  102  O   UNK N   1      -4.482  -3.574   0.000  0.00  0.00    -0.388 OA
HETATM  103  O   UNK N   1       1.841  -3.447   0.000  0.00  0.00    -0.388 OA
HETATM  104  O   UNK N   1      -0.640  -5.697   0.000  0.00  0.00    -0.388 OA
HETATM  105  O   UNK N   1       0.483   3.507   0.000  0.00  0.00    -0.350 OA
HETATM  106  O   UNK N   1      -3.241   3.706   0.000  0.00  0.00    -0.350 OA
HETATM  107  O   UNK N   1       2.821   2.138   0.000  0.00  0.00    -0.350 OA
HETATM  108  O   UNK N   1      -3.507   0.483   0.000  0.00  0.00    -0.350 OA
HETATM  109  O   UNK N   1       3.507  -0.483   0.000  0.00  0.00    -0.350 OA
HETATM  110  O   UNK N   1      -2.821  -2.138   0.000  0.00  0.00    -0.350 OA
HETATM  111  O   UNK N   1       3.241  -3.706   0.000  0.00  0.00    -0.350 OA
HETATM  112  O   UNK N   1      -0.483  -3.507   0.000  0.00  0.00    -0.350 OA
HETATM  113  O   UNK N   1      -1.668   3.974   0.000  0.00  0.00    -0.348 OA
HETATM  114  O   UNK N   1       1.631   3.990   0.000  0.00  0.00    -0.348 OA
HETATM  115  O   UNK N   1      -3.990   1.631   0.000  0.00  0.00    -0.348 OA
HETATM  116  O   UNK N   1       3.974   1.668   0.000  0.00  0.00    -0.348 OA
HETATM  117  O   UNK N   1      -3.974  -1.668   0.000  0.00  0.00    -0.348 OA
HETATM  118  O   UNK N   1       3.990  -1.631   0.000  0.00  0.00    -0.348 OA
HETATM  119  O   UNK N   1      -1.631  -3.990   0.000  0.00  0.00    -0.348 OA
HETATM  120  O   UNK N   1       1.668  -3.974   0.000  0.00  0.00    -0.348 OA
HETATM  121  S   UNK N   1      -1.072   2.191   0.000  0.00  0.00    -0.166 SA
HETATM  122  S   UNK N   1       1.181   1.559   0.000  0.00  0.00    -0.166 SA
HETATM  123  S   UNK N   1      -4.991   4.055   0.000  0.00  0.00    -0.166 SA
HETATM  124  S   UNK N   1       2.657   1.572   0.000  0.00  0.00    -0.166 SA
HETATM  125  S   UNK N   1      -2.662  -1.567   0.000  0.00  0.00    -0.166 SA
HETATM  126  S   UNK N   1       4.991  -4.055   0.000  0.00  0.00    -0.166 SA
HETATM  127  S   UNK N   1      -1.226  -1.521   0.000  0.00  0.00    -0.166 SA
HETATM  128  S   UNK N   1       0.941  -2.255   0.000  0.00  0.00    -0.166 SA
HETATM  129  H   UNK N   1      -1.905   0.560   0.000  0.00  0.00     0.167 HD
HETATM  130  H   UNK N   1       1.723  -1.526   0.000  0.00  0.00     0.167 HD
HETATM  131  H   UNK N   1      -6.639   6.595   0.000  0.00  0.00     0.167 HD
HETATM  132  H   UNK N   1       0.517   3.743   0.000  0.00  0.00     0.167 HD
HETATM  133  H   UNK N   1      -0.574  -3.732   0.000  0.00  0.00     0.167 HD
HETATM  134  H   UNK N   1       6.639  -6.596   0.000  0.00  0.00     0.167 HD
HETATM  135  H   UNK N   1      -1.892   1.908   0.000  0.00  0.00     0.167 HD
HETATM  136  H   UNK N   1       1.921  -0.624   0.000  0.00  0.00     0.167 HD
HETATM  137  H   UNK N   1      -0.325   6.384   0.000  0.00  0.00     0.210 HD
HETATM  138  H   UNK N   1      -2.289   0.850   0.000  0.00  0.00     0.210 HD
HETATM  139  H   UNK N   1       4.298   4.728   0.000  0.00  0.00     0.210 HD
HETATM  140  H   UNK N   1      -6.387  -0.344   0.000  0.00  0.00     0.210 HD
HETATM  141  H   UNK N   1       6.388   0.345   0.000  0.00  0.00     0.210 HD
HETATM  142  H   UNK N   1      -4.297  -4.728   0.000  0.00  0.00     0.210 HD
HETATM  143  H   UNK N   1       3.750  -1.210   0.000  0.00  0.00     0.210 HD
HETATM  144  H   UNK N   1       0.324  -6.384   0.000  0.00  0.00     0.210 HD
HETATM  145  H   UNK N   1       1.600   5.837   0.000  0.00  0.00     0.210 HD
HETATM  146  H   UNK N   1      -0.844   3.472   0.000  0.00  0.00     0.210 HD
HETATM  147  H   UNK N   1       5.261   3.002   0.000  0.00  0.00     0.210 HD
HETATM  148  H   UNK N   1      -5.888   1.564   0.000  0.00  0.00     0.210 HD
HETATM  149  H   UNK N   1       5.888  -1.564   0.000  0.00  0.00     0.210 HD
HETATM  150  H   UNK N   1      -5.258  -2.992   0.000  0.00  0.00     0.210 HD
HETATM  151  H   UNK N   1       0.875  -3.527   0.000  0.00  0.00     0.210 HD
HETATM  152  H   UNK N   1      -1.600  -5.837   0.000  0.00  0.00     0.210 HD
ENDROOT
TORSDOF 16
