MODEL 1
REMARK VINA RESULT:      -8.9      0.000      0.000
REMARK  4 active torsions:
REMARK  status: ('A' for Active; 'I' for Inactive)
REMARK    1  A    between atoms: N_1  and  C_2 
REMARK    2  A    between atoms: C_7  and  C_13 
REMARK    3  A    between atoms: C_15  and  C_16 
REMARK    4  A    between atoms: C_26  and  N_27 
ROOT
HETATM    1  C   UNK N   1      34.834  13.393  11.838  0.00  0.00     0.015 C 
HETATM    2  C   UNK N   1      34.523  14.551  11.258  0.00  0.00     0.030 C 
ENDROOT
BRANCH   2   3
HETATM    3  C   UNK N   1      34.029  14.741   9.902  0.00  0.00     0.034 A 
HETATM    4  N   UNK N   1      34.280  15.919   9.243  0.00  0.00    -0.351 N 
HETATM    5  C   UNK N   1      33.817  16.110   7.968  0.00  0.00     0.044 A 
HETATM    6  C   UNK N   1      35.033  16.984   9.913  0.00  0.00     0.156 C 
HETATM    7  C   UNK N   1      33.086  15.086   7.329  0.00  0.00    -0.007 A 
HETATM    8  C   UNK N   1      34.034  17.320   7.286  0.00  0.00     0.033 A 
HETATM    9  C   UNK N   1      32.857  13.884   7.985  0.00  0.00     0.016 A 
HETATM   10  C   UNK N   1      32.563  15.283   6.058  0.00  0.00     0.043 A 
HETATM   11  C   UNK N   1      33.327  13.709   9.275  0.00  0.00     0.030 A 
HETATM   12  C   UNK N   1      32.746  16.501   5.393  0.00  0.00     0.030 A 
HETATM   13  C   UNK N   1      33.499  17.514   6.011  0.00  0.00     0.031 A 
BRANCH  12  14
HETATM   14  N   UNK N   1      32.128  16.719   4.127  0.00  0.00    -0.390 N 
HETATM   15  C   UNK N   1      32.882  16.570   2.907  0.00  0.00     0.149 C 
HETATM   16  C   UNK N   1      30.716  16.987   4.030  0.00  0.00     0.149 C 
ENDBRANCH  12  14
ENDBRANCH   2   3
BRANCH   1  17
HETATM   17  C   UNK N   1      35.486  13.463  13.150  0.00  0.00    -0.011 A 
HETATM   18  C   UNK N   1      35.184  12.670  14.245  0.00  0.00     0.023 A 
HETATM   19  N   UNK N   1      35.822  13.143  15.331  0.00  0.00    -0.319 N 
HETATM   20  C   UNK N   1      34.284  11.470  14.238  0.00  0.00     0.069 C 
HETATM   21  C   UNK N   1      36.565  14.197  14.922  0.00  0.00     0.014 A 
HETATM   22  C   UNK N   1      36.374  14.434  13.564  0.00  0.00     0.038 A 
HETATM   23  C   UNK N   1      37.374  15.081  15.808  0.00  0.00     0.068 C 
BRANCH  19  24
HETATM   24  C   UNK N   1      35.640  12.631  16.673  0.00  0.00     0.039 A 
HETATM   25  C   UNK N   1      35.950  11.306  16.997  0.00  0.00     0.030 A 
HETATM   26  C   UNK N   1      35.770  10.847  18.307  0.00  0.00     0.002 A 
HETATM   27  C   UNK N   1      35.318  11.716  19.306  0.00  0.00     0.000 A 
HETATM   28  C   UNK N   1      35.035  13.045  18.996  0.00  0.00     0.002 A 
HETATM   29  C   UNK N   1      35.187  13.492  17.689  0.00  0.00     0.030 A 
ENDBRANCH  19  24
ENDBRANCH   1  17
TORSDOF 4
ENDMDL
MODEL 2
REMARK VINA RESULT:      -8.3      5.842     10.659
REMARK  4 active torsions:
REMARK  status: ('A' for Active; 'I' for Inactive)
REMARK    1  A    between atoms: N_1  and  C_2 
REMARK    2  A    between atoms: C_7  and  C_13 
REMARK    3  A    between atoms: C_15  and  C_16 
REMARK    4  A    between atoms: C_26  and  N_27 
ROOT
HETATM    1  C   UNK N   1      28.536  18.129   5.849  0.00  0.00     0.015 C 
HETATM    2  C   UNK N   1      28.141  18.357   4.597  0.00  0.00     0.030 C 
ENDROOT
BRANCH   2   3
HETATM    3  C   UNK N   1      26.840  18.854   4.173  0.00  0.00     0.034 A 
HETATM    4  N   UNK N   1      25.713  18.105   4.410  0.00  0.00    -0.351 N 
HETATM    5  C   UNK N   1      24.484  18.561   4.011  0.00  0.00     0.044 A 
HETATM    6  C   UNK N   1      25.828  16.805   5.078  0.00  0.00     0.156 C 
HETATM    7  C   UNK N   1      24.379  19.810   3.362  0.00  0.00    -0.007 A 
HETATM    8  C   UNK N   1      23.322  17.798   4.215  0.00  0.00     0.033 A 
HETATM    9  C   UNK N   1      25.514  20.578   3.148  0.00  0.00     0.016 A 
HETATM   10  C   UNK N   1      23.149  20.262   2.903  0.00  0.00     0.043 A 
HETATM   11  C   UNK N   1      26.750  20.101   3.552  0.00  0.00     0.030 A 
HETATM   12  C   UNK N   1      21.996  19.485   3.071  0.00  0.00     0.030 A 
HETATM   13  C   UNK N   1      22.089  18.255   3.744  0.00  0.00     0.031 A 
BRANCH  12  14
HETATM   14  N   UNK N   1      20.758  19.923   2.517  0.00  0.00    -0.390 N 
HETATM   15  C   UNK N   1      20.720  21.010   1.571  0.00  0.00     0.149 C 
HETATM   16  C   UNK N   1      19.532  19.222   2.804  0.00  0.00     0.149 C 
ENDBRANCH  12  14
ENDBRANCH   2   3
BRANCH   1  17
HETATM   17  C   UNK N   1      29.828  17.455   6.024  0.00  0.00    -0.011 A 
HETATM   18  C   UNK N   1      30.487  17.273   7.228  0.00  0.00     0.023 A 
HETATM   19  N   UNK N   1      31.729  16.811   6.993  0.00  0.00    -0.319 N 
HETATM   20  C   UNK N   1      29.922  17.550   8.588  0.00  0.00     0.069 C 
HETATM   21  C   UNK N   1      31.842  16.648   5.655  0.00  0.00     0.014 A 
HETATM   22  C   UNK N   1      30.675  17.049   5.012  0.00  0.00     0.038 A 
HETATM   23  C   UNK N   1      33.078  16.231   4.935  0.00  0.00     0.068 C 
BRANCH  19  24
HETATM   24  C   UNK N   1      32.737  16.622   8.016  0.00  0.00     0.039 A 
HETATM   25  C   UNK N   1      32.840  15.422   8.727  0.00  0.00     0.030 A 
HETATM   26  C   UNK N   1      33.833  15.272   9.703  0.00  0.00     0.002 A 
HETATM   27  C   UNK N   1      34.748  16.301   9.945  0.00  0.00     0.000 A 
HETATM   28  C   UNK N   1      34.669  17.488   9.220  0.00  0.00     0.002 A 
HETATM   29  C   UNK N   1      33.665  17.647   8.272  0.00  0.00     0.030 A 
ENDBRANCH  19  24
ENDBRANCH   1  17
TORSDOF 4
ENDMDL
MODEL 3
REMARK VINA RESULT:      -8.0      2.356     11.111
REMARK  4 active torsions:
REMARK  status: ('A' for Active; 'I' for Inactive)
REMARK    1  A    between atoms: N_1  and  C_2 
REMARK    2  A    between atoms: C_7  and  C_13 
REMARK    3  A    between atoms: C_15  and  C_16 
REMARK    4  A    between atoms: C_26  and  N_27 
ROOT
HETATM    1  C   UNK N   1      31.801  16.556   8.169  0.00  0.00     0.015 C 
HETATM    2  C   UNK N   1      33.026  16.034   8.160  0.00  0.00     0.030 C 
ENDROOT
BRANCH   2   3
HETATM    3  C   UNK N   1      33.837  15.700   9.322  0.00  0.00     0.034 A 
HETATM    4  N   UNK N   1      33.907  14.398   9.754  0.00  0.00    -0.351 N 
HETATM    5  C   UNK N   1      34.664  14.072  10.849  0.00  0.00     0.044 A 
HETATM    6  C   UNK N   1      33.154  13.354   9.050  0.00  0.00     0.156 C 
HETATM    7  C   UNK N   1      35.380  15.080  11.528  0.00  0.00    -0.007 A 
HETATM    8  C   UNK N   1      34.724  12.752  11.327  0.00  0.00     0.033 A 
HETATM    9  C   UNK N   1      35.332  16.391  11.074  0.00  0.00     0.016 A 
HETATM   10  C   UNK N   1      36.108  14.777  12.671  0.00  0.00     0.043 A 
HETATM   11  C   UNK N   1      34.559  16.705   9.969  0.00  0.00     0.030 A 
HETATM   12  C   UNK N   1      36.138  13.470  13.171  0.00  0.00     0.030 A 
HETATM   13  C   UNK N   1      35.452  12.455  12.481  0.00  0.00     0.031 A 
BRANCH  12  14
HETATM   14  N   UNK N   1      36.817  13.192  14.393  0.00  0.00    -0.390 N 
HETATM   15  C   UNK N   1      37.552  11.964  14.562  0.00  0.00     0.149 C 
HETATM   16  C   UNK N   1      36.875  14.175  15.445  0.00  0.00     0.149 C 
ENDBRANCH  12  14
ENDBRANCH   2   3
BRANCH   1  17
HETATM   17  C   UNK N   1      31.252  16.979   6.875  0.00  0.00    -0.011 A 
HETATM   18  C   UNK N   1      30.013  17.564   6.676  0.00  0.00     0.023 A 
HETATM   19  N   UNK N   1      29.752  17.624   5.358  0.00  0.00    -0.319 N 
HETATM   20  C   UNK N   1      29.090  18.052   7.753  0.00  0.00     0.069 C 
HETATM   21  C   UNK N   1      30.838  17.132   4.719  0.00  0.00     0.014 A 
HETATM   22  C   UNK N   1      31.796  16.709   5.636  0.00  0.00     0.038 A 
HETATM   23  C   UNK N   1      30.960  16.932   3.247  0.00  0.00     0.068 C 
BRANCH  19  24
HETATM   24  C   UNK N   1      28.494  18.066   4.793  0.00  0.00     0.039 A 
HETATM   25  C   UNK N   1      28.231  19.421   4.566  0.00  0.00     0.030 A 
HETATM   26  C   UNK N   1      27.006  19.811   4.010  0.00  0.00     0.002 A 
HETATM   27  C   UNK N   1      26.057  18.850   3.645  0.00  0.00     0.000 A 
HETATM   28  C   UNK N   1      26.324  17.497   3.842  0.00  0.00     0.002 A 
HETATM   29  C   UNK N   1      27.529  17.113   4.420  0.00  0.00     0.030 A 
ENDBRANCH  19  24
ENDBRANCH   1  17
TORSDOF 4
ENDMDL
MODEL 4
REMARK VINA RESULT:      -7.9      1.662     10.688
REMARK  4 active torsions:
REMARK  status: ('A' for Active; 'I' for Inactive)
REMARK    1  A    between atoms: N_1  and  C_2 
REMARK    2  A    between atoms: C_7  and  C_13 
REMARK    3  A    between atoms: C_15  and  C_16 
REMARK    4  A    between atoms: C_26  and  N_27 
ROOT
HETATM    1  C   UNK N   1      34.582  14.652  10.751  0.00  0.00     0.015 C 
HETATM    2  C   UNK N   1      35.299  13.648  11.251  0.00  0.00     0.030 C 
ENDROOT
BRANCH   2   3
HETATM    3  C   UNK N   1      35.412  13.272  12.652  0.00  0.00     0.034 A 
HETATM    4  N   UNK N   1      34.964  12.041  13.067  0.00  0.00    -0.351 N 
HETATM    5  C   UNK N   1      35.060  11.678  14.384  0.00  0.00     0.044 A 
HETATM    6  C   UNK N   1      34.364  11.119  12.098  0.00  0.00     0.156 C 
HETATM    7  C   UNK N   1      35.632  12.572  15.315  0.00  0.00    -0.007 A 
HETATM    8  C   UNK N   1      34.580  10.438  14.836  0.00  0.00     0.033 A 
HETATM    9  C   UNK N   1      36.110  13.804  14.891  0.00  0.00     0.016 A 
HETATM   10  C   UNK N   1      35.688  12.243  16.663  0.00  0.00     0.043 A 
HETATM   11  C   UNK N   1      36.000  14.158  13.557  0.00  0.00     0.030 A 
HETATM   12  C   UNK N   1      35.174  11.024  17.121  0.00  0.00     0.030 A 
HETATM   13  C   UNK N   1      34.633  10.116  16.194  0.00  0.00     0.031 A 
BRANCH  12  14
HETATM   14  N   UNK N   1      35.160  10.738  18.517  0.00  0.00    -0.390 N 
HETATM   15  C   UNK N   1      35.053   9.379  18.988  0.00  0.00     0.149 C 
HETATM   16  C   UNK N   1      35.360  11.784  19.487  0.00  0.00     0.149 C 
ENDBRANCH  12  14
ENDBRANCH   2   3
BRANCH   1  17
HETATM   17  C   UNK N   1      34.766  14.955   9.327  0.00  0.00    -0.011 A 
HETATM   18  C   UNK N   1      33.842  15.583   8.508  0.00  0.00     0.023 A 
HETATM   19  N   UNK N   1      34.251  15.506   7.229  0.00  0.00    -0.319 N 
HETATM   20  C   UNK N   1      32.576  16.245   8.962  0.00  0.00     0.069 C 
HETATM   21  C   UNK N   1      35.451  14.882   7.237  0.00  0.00     0.014 A 
HETATM   22  C   UNK N   1      35.803  14.512   8.531  0.00  0.00     0.038 A 
HETATM   23  C   UNK N   1      36.239  14.507   6.029  0.00  0.00     0.068 C 
BRANCH  19  24
HETATM   24  C   UNK N   1      33.471  15.953   6.093  0.00  0.00     0.039 A 
HETATM   25  C   UNK N   1      33.633  17.233   5.553  0.00  0.00     0.030 A 
HETATM   26  C   UNK N   1      32.867  17.627   4.450  0.00  0.00     0.002 A 
HETATM   27  C   UNK N   1      31.966  16.735   3.859  0.00  0.00     0.000 A 
HETATM   28  C   UNK N   1      31.820  15.449   4.374  0.00  0.00     0.002 A 
HETATM   29  C   UNK N   1      32.561  15.068   5.487  0.00  0.00     0.030 A 
ENDBRANCH  19  24
ENDBRANCH   1  17
TORSDOF 4
ENDMDL
MODEL 5
REMARK VINA RESULT:      -7.9      1.838     10.602
REMARK  4 active torsions:
REMARK  status: ('A' for Active; 'I' for Inactive)
REMARK    1  A    between atoms: N_1  and  C_2 
REMARK    2  A    between atoms: C_7  and  C_13 
REMARK    3  A    between atoms: C_15  and  C_16 
REMARK    4  A    between atoms: C_26  and  N_27 
ROOT
HETATM    1  C   UNK N   1      34.397  12.809   9.796  0.00  0.00     0.015 C 
HETATM    2  C   UNK N   1      35.263  12.809  10.807  0.00  0.00     0.030 C 
ENDROOT
BRANCH   2   3
HETATM    3  C   UNK N   1      35.064  12.220  12.123  0.00  0.00     0.034 A 
HETATM    4  N   UNK N   1      35.426  12.923  13.247  0.00  0.00    -0.351 N 
HETATM    5  C   UNK N   1      35.248  12.376  14.491  0.00  0.00     0.044 A 
HETATM    6  C   UNK N   1      36.022  14.256  13.114  0.00  0.00     0.156 C 
HETATM    7  C   UNK N   1      34.680  11.090  14.614  0.00  0.00    -0.007 A 
HETATM    8  C   UNK N   1      35.640  13.063  15.652  0.00  0.00     0.033 A 
HETATM    9  C   UNK N   1      34.289  10.393  13.480  0.00  0.00     0.016 A 
HETATM   10  C   UNK N   1      34.543  10.499  15.863  0.00  0.00     0.043 A 
HETATM   11  C   UNK N   1      34.481  10.956  12.230  0.00  0.00     0.030 A 
HETATM   12  C   UNK N   1      34.968  11.166  17.018  0.00  0.00     0.030 A 
HETATM   13  C   UNK N   1      35.505  12.461  16.905  0.00  0.00     0.031 A 
BRANCH  12  14
HETATM   14  N   UNK N   1      34.901  10.512  18.283  0.00  0.00    -0.390 N 
HETATM   15  C   UNK N   1      35.337  11.184  19.481  0.00  0.00     0.149 C 
HETATM   16  C   UNK N   1      34.298   9.210  18.409  0.00  0.00     0.149 C 
ENDBRANCH  12  14
ENDBRANCH   2   3
BRANCH   1  17
HETATM   17  C   UNK N   1      34.743  13.623   8.625  0.00  0.00    -0.011 A 
HETATM   18  C   UNK N   1      33.864  14.408   7.899  0.00  0.00     0.023 A 
HETATM   19  N   UNK N   1      34.471  14.842   6.779  0.00  0.00    -0.319 N 
HETATM   20  C   UNK N   1      32.451  14.729   8.284  0.00  0.00     0.069 C 
HETATM   21  C   UNK N   1      35.742  14.382   6.817  0.00  0.00     0.014 A 
HETATM   22  C   UNK N   1      35.949  13.606   7.953  0.00  0.00     0.038 A 
HETATM   23  C   UNK N   1      36.756  14.552   5.738  0.00  0.00     0.068 C 
BRANCH  19  24
HETATM   24  C   UNK N   1      33.810  15.588   5.728  0.00  0.00     0.039 A 
HETATM   25  C   UNK N   1      33.765  16.986   5.741  0.00  0.00     0.030 A 
HETATM   26  C   UNK N   1      33.124  17.674   4.704  0.00  0.00     0.002 A 
HETATM   27  C   UNK N   1      32.560  16.973   3.633  0.00  0.00     0.000 A 
HETATM   28  C   UNK N   1      32.626  15.582   3.599  0.00  0.00     0.002 A 
HETATM   29  C   UNK N   1      33.237  14.899   4.644  0.00  0.00     0.030 A 
ENDBRANCH  19  24
ENDBRANCH   1  17
TORSDOF 4
ENDMDL
MODEL 6
REMARK VINA RESULT:      -7.6      5.190     11.792
REMARK  4 active torsions:
REMARK  status: ('A' for Active; 'I' for Inactive)
REMARK    1  A    between atoms: N_1  and  C_2 
REMARK    2  A    between atoms: C_7  and  C_13 
REMARK    3  A    between atoms: C_15  and  C_16 
REMARK    4  A    between atoms: C_26  and  N_27 
ROOT
HETATM    1  C   UNK N   1      29.299  16.734   6.393  0.00  0.00     0.015 C 
HETATM    2  C   UNK N   1      30.476  17.107   6.893  0.00  0.00     0.030 C 
ENDROOT
BRANCH   2   3
HETATM    3  C   UNK N   1      31.580  16.234   7.262  0.00  0.00     0.034 A 
HETATM    4  N   UNK N   1      32.571  16.701   8.091  0.00  0.00    -0.351 N 
HETATM    5  C   UNK N   1      33.618  15.889   8.442  0.00  0.00     0.044 A 
HETATM    6  C   UNK N   1      32.518  18.079   8.588  0.00  0.00     0.156 C 
HETATM    7  C   UNK N   1      33.669  14.565   7.956  0.00  0.00    -0.007 A 
HETATM    8  C   UNK N   1      34.659  16.356   9.263  0.00  0.00     0.033 A 
HETATM    9  C   UNK N   1      32.653  14.085   7.142  0.00  0.00     0.016 A 
HETATM   10  C   UNK N   1      34.750  13.747   8.257  0.00  0.00     0.043 A 
HETATM   11  C   UNK N   1      31.605  14.919   6.791  0.00  0.00     0.030 A 
HETATM   12  C   UNK N   1      35.807  14.223   9.043  0.00  0.00     0.030 A 
HETATM   13  C   UNK N   1      35.746  15.530   9.556  0.00  0.00     0.031 A 
BRANCH  12  14
HETATM   14  N   UNK N   1      36.949  13.401   9.270  0.00  0.00    -0.390 N 
HETATM   15  C   UNK N   1      36.890  11.980   9.034  0.00  0.00     0.149 C 
HETATM   16  C   UNK N   1      38.215  13.982   9.637  0.00  0.00     0.149 C 
ENDBRANCH  12  14
ENDBRANCH   2   3
BRANCH   1  17
HETATM   17  C   UNK N   1      28.272  17.775   6.268  0.00  0.00    -0.011 A 
HETATM   18  C   UNK N   1      27.252  17.795   5.331  0.00  0.00     0.023 A 
HETATM   19  N   UNK N   1      26.632  18.988   5.369  0.00  0.00    -0.319 N 
HETATM   20  C   UNK N   1      26.889  16.672   4.406  0.00  0.00     0.069 C 
HETATM   21  C   UNK N   1      27.215  19.703   6.359  0.00  0.00     0.014 A 
HETATM   22  C   UNK N   1      28.253  18.980   6.939  0.00  0.00     0.038 A 
HETATM   23  C   UNK N   1      26.900  21.118   6.705  0.00  0.00     0.068 C 
BRANCH  19  24
HETATM   24  C   UNK N   1      25.596  19.401   4.445  0.00  0.00     0.039 A 
HETATM   25  C   UNK N   1      24.263  19.018   4.622  0.00  0.00     0.030 A 
HETATM   26  C   UNK N   1      23.287  19.442   3.713  0.00  0.00     0.002 A 
HETATM   27  C   UNK N   1      23.631  20.280   2.646  0.00  0.00     0.000 A 
HETATM   28  C   UNK N   1      24.952  20.689   2.480  0.00  0.00     0.002 A 
HETATM   29  C   UNK N   1      25.925  20.243   3.367  0.00  0.00     0.030 A 
ENDBRANCH  19  24
ENDBRANCH   1  17
TORSDOF 4
ENDMDL
MODEL 7
REMARK VINA RESULT:      -7.6      3.730     11.207
REMARK  4 active torsions:
REMARK  status: ('A' for Active; 'I' for Inactive)
REMARK    1  A    between atoms: N_1  and  C_2 
REMARK    2  A    between atoms: C_7  and  C_13 
REMARK    3  A    between atoms: C_15  and  C_16 
REMARK    4  A    between atoms: C_26  and  N_27 
ROOT
HETATM    1  C   UNK N   1      36.485  13.399  14.612  0.00  0.00     0.015 C 
HETATM    2  C   UNK N   1      35.364  13.115  15.273  0.00  0.00     0.030 C 
ENDROOT
BRANCH   2   3
HETATM    3  C   UNK N   1      35.262  12.493  16.585  0.00  0.00     0.034 A 
HETATM    4  N   UNK N   1      35.082  11.135  16.684  0.00  0.00    -0.351 N 
HETATM    5  C   UNK N   1      34.980  10.539  17.913  0.00  0.00     0.044 A 
HETATM    6  C   UNK N   1      34.980  10.322  15.468  0.00  0.00     0.156 C 
HETATM    7  C   UNK N   1      35.071  11.325  19.081  0.00  0.00    -0.007 A 
HETATM    8  C   UNK N   1      34.763   9.156  18.038  0.00  0.00     0.033 A 
HETATM    9  C   UNK N   1      35.281  12.694  18.981  0.00  0.00     0.016 A 
HETATM   10  C   UNK N   1      34.915  10.746  20.333  0.00  0.00     0.043 A 
HETATM   11  C   UNK N   1      35.377  13.282  17.731  0.00  0.00     0.030 A 
HETATM   12  C   UNK N   1      34.661   9.375  20.458  0.00  0.00     0.030 A 
HETATM   13  C   UNK N   1      34.601   8.580  19.300  0.00  0.00     0.031 A 
BRANCH  12  14
HETATM   14  N   UNK N   1      34.417   8.811  21.744  0.00  0.00    -0.390 N 
HETATM   15  C   UNK N   1      33.949   9.635  22.830  0.00  0.00     0.149 C 
HETATM   16  C   UNK N   1      34.528   7.391  21.961  0.00  0.00     0.149 C 
ENDBRANCH  12  14
ENDBRANCH   2   3
BRANCH   1  17
HETATM   17  C   UNK N   1      36.339  13.858  13.226  0.00  0.00    -0.011 A 
HETATM   18  C   UNK N   1      36.864  13.232  12.108  0.00  0.00     0.023 A 
HETATM   19  N   UNK N   1      36.719  14.032  11.036  0.00  0.00    -0.319 N 
HETATM   20  C   UNK N   1      37.504  11.876  12.082  0.00  0.00     0.069 C 
HETATM   21  C   UNK N   1      36.059  15.135  11.456  0.00  0.00     0.014 A 
HETATM   22  C   UNK N   1      35.811  15.068  12.823  0.00  0.00     0.038 A 
HETATM   23  C   UNK N   1      35.753  16.330  10.620  0.00  0.00     0.068 C 
BRANCH  19  24
HETATM   24  C   UNK N   1      37.262  13.746   9.724  0.00  0.00     0.039 A 
HETATM   25  C   UNK N   1      38.593  14.036   9.405  0.00  0.00     0.030 A 
HETATM   26  C   UNK N   1      39.086  13.739   8.129  0.00  0.00     0.002 A 
HETATM   27  C   UNK N   1      38.266  13.118   7.181  0.00  0.00     0.000 A 
HETATM   28  C   UNK N   1      36.948  12.801   7.501  0.00  0.00     0.002 A 
HETATM   29  C   UNK N   1      36.451  13.122   8.759  0.00  0.00     0.030 A 
ENDBRANCH  19  24
ENDBRANCH   1  17
TORSDOF 4
ENDMDL
MODEL 8
REMARK VINA RESULT:      -7.5      2.178     11.072
REMARK  4 active torsions:
REMARK  status: ('A' for Active; 'I' for Inactive)
REMARK    1  A    between atoms: N_1  and  C_2 
REMARK    2  A    between atoms: C_7  and  C_13 
REMARK    3  A    between atoms: C_15  and  C_16 
REMARK    4  A    between atoms: C_26  and  N_27 
ROOT
HETATM    1  C   UNK N   1      35.647  12.996  13.042  0.00  0.00     0.015 C 
HETATM    2  C   UNK N   1      34.694  12.742  13.936  0.00  0.00     0.030 C 
ENDROOT
BRANCH   2   3
HETATM    3  C   UNK N   1      34.885  12.396  15.337  0.00  0.00     0.034 A 
HETATM    4  N   UNK N   1      34.820  11.081  15.730  0.00  0.00    -0.351 N 
HETATM    5  C   UNK N   1      34.994  10.744  17.046  0.00  0.00     0.044 A 
HETATM    6  C   UNK N   1      34.546  10.036  14.739  0.00  0.00     0.156 C 
HETATM    7  C   UNK N   1      35.251  11.753  17.998  0.00  0.00    -0.007 A 
HETATM    8  C   UNK N   1      34.901   9.409  17.476  0.00  0.00     0.033 A 
HETATM    9  C   UNK N   1      35.345  13.079  17.596  0.00  0.00     0.016 A 
HETATM   10  C   UNK N   1      35.376  11.436  19.344  0.00  0.00     0.043 A 
HETATM   11  C   UNK N   1      35.161  13.404  16.263  0.00  0.00     0.030 A 
HETATM   12  C   UNK N   1      35.244  10.111  19.779  0.00  0.00     0.030 A 
HETATM   13  C   UNK N   1      35.021   9.097  18.832  0.00  0.00     0.031 A 
BRANCH  12  14
HETATM   14  N   UNK N   1      35.288   9.813  21.172  0.00  0.00    -0.390 N 
HETATM   15  C   UNK N   1      34.077   9.777  21.953  0.00  0.00     0.149 C 
HETATM   16  C   UNK N   1      36.524   9.436  21.808  0.00  0.00     0.149 C 
ENDBRANCH  12  14
ENDBRANCH   2   3
BRANCH   1  17
HETATM   17  C   UNK N   1      35.223  13.142  11.644  0.00  0.00    -0.011 A 
HETATM   18  C   UNK N   1      34.986  14.341  10.993  0.00  0.00     0.023 A 
HETATM   19  N   UNK N   1      34.414  14.098   9.800  0.00  0.00    -0.319 N 
HETATM   20  C   UNK N   1      35.306  15.707  11.525  0.00  0.00     0.069 C 
HETATM   21  C   UNK N   1      34.336  12.754   9.668  0.00  0.00     0.014 A 
HETATM   22  C   UNK N   1      34.825  12.121  10.806  0.00  0.00     0.038 A 
HETATM   23  C   UNK N   1      33.695  12.033   8.533  0.00  0.00     0.068 C 
BRANCH  19  24
HETATM   24  C   UNK N   1      33.921  15.126   8.906  0.00  0.00     0.039 A 
HETATM   25  C   UNK N   1      32.616  15.619   9.009  0.00  0.00     0.030 A 
HETATM   26  C   UNK N   1      32.176  16.618   8.133  0.00  0.00     0.002 A 
HETATM   27  C   UNK N   1      33.046  17.154   7.177  0.00  0.00     0.000 A 
HETATM   28  C   UNK N   1      34.355  16.688   7.088  0.00  0.00     0.002 A 
HETATM   29  C   UNK N   1      34.782  15.675   7.940  0.00  0.00     0.030 A 
ENDBRANCH  19  24
ENDBRANCH   1  17
TORSDOF 4
ENDMDL
MODEL 9
REMARK VINA RESULT:      -7.4      4.963     11.498
REMARK  4 active torsions:
REMARK  status: ('A' for Active; 'I' for Inactive)
REMARK    1  A    between atoms: N_1  and  C_2 
REMARK    2  A    between atoms: C_7  and  C_13 
REMARK    3  A    between atoms: C_15  and  C_16 
REMARK    4  A    between atoms: C_26  and  N_27 
ROOT
HETATM    1  C   UNK N   1      30.432  16.580   5.998  0.00  0.00     0.015 C 
HETATM    2  C   UNK N   1      31.539  17.003   6.606  0.00  0.00     0.030 C 
ENDROOT
BRANCH   2   3
HETATM    3  C   UNK N   1      32.770  16.249   6.794  0.00  0.00     0.034 A 
HETATM    4  N   UNK N   1      32.985  15.579   7.974  0.00  0.00    -0.351 N 
HETATM    5  C   UNK N   1      34.142  14.870   8.164  0.00  0.00     0.044 A 
HETATM    6  C   UNK N   1      31.981  15.636   9.040  0.00  0.00     0.156 C 
HETATM    7  C   UNK N   1      35.110  14.823   7.138  0.00  0.00    -0.007 A 
HETATM    8  C   UNK N   1      34.398  14.203   9.374  0.00  0.00     0.033 A 
HETATM    9  C   UNK N   1      34.879  15.477   5.936  0.00  0.00     0.016 A 
HETATM   10  C   UNK N   1      36.311  14.155   7.334  0.00  0.00     0.043 A 
HETATM   11  C   UNK N   1      33.707  16.194   5.761  0.00  0.00     0.030 A 
HETATM   12  C   UNK N   1      36.584  13.522   8.553  0.00  0.00     0.030 A 
HETATM   13  C   UNK N   1      35.611  13.538   9.568  0.00  0.00     0.031 A 
BRANCH  12  14
HETATM   14  N   UNK N   1      37.856  12.916   8.770  0.00  0.00    -0.390 N 
HETATM   15  C   UNK N   1      38.711  13.368   9.839  0.00  0.00     0.149 C 
HETATM   16  C   UNK N   1      38.269  11.771   8.000  0.00  0.00     0.149 C 
ENDBRANCH  12  14
ENDBRANCH   2   3
BRANCH   1  17
HETATM   17  C   UNK N   1      29.252  17.448   6.089  0.00  0.00    -0.011 A 
HETATM   18  C   UNK N   1      28.337  17.676   5.075  0.00  0.00     0.023 A 
HETATM   19  N   UNK N   1      27.513  18.678   5.431  0.00  0.00    -0.319 N 
HETATM   20  C   UNK N   1      28.265  16.933   3.774  0.00  0.00     0.069 C 
HETATM   21  C   UNK N   1      27.866  19.051   6.683  0.00  0.00     0.014 A 
HETATM   22  C   UNK N   1      28.957  18.310   7.126  0.00  0.00     0.038 A 
HETATM   23  C   UNK N   1      27.275  20.186   7.447  0.00  0.00     0.068 C 
BRANCH  19  24
HETATM   24  C   UNK N   1      26.512  19.261   4.563  0.00  0.00     0.039 A 
HETATM   25  C   UNK N   1      26.847  20.219   3.601  0.00  0.00     0.030 A 
HETATM   26  C   UNK N   1      25.853  20.755   2.773  0.00  0.00     0.002 A 
HETATM   27  C   UNK N   1      24.531  20.309   2.875  0.00  0.00     0.000 A 
HETATM   28  C   UNK N   1      24.195  19.333   3.811  0.00  0.00     0.002 A 
HETATM   29  C   UNK N   1      25.178  18.823   4.652  0.00  0.00     0.030 A 
ENDBRANCH  19  24
ENDBRANCH   1  17
TORSDOF 4
ENDMDL
