REMARK  6 active torsions:
REMARK  status: ('A' for Active; 'I' for Inactive)
REMARK    1  A    between atoms: O_5  and  C_20 
REMARK    2  A    between atoms: O_7  and  C_21 
REMARK    3  A    between atoms: N_8  and  C_12 
REMARK       I    between atoms: N_8  and  C_17 
REMARK    4  A    between atoms: N_9  and  C_13 
REMARK       I    between atoms: N_9  and  C_18 
REMARK    5  A    between atoms: C_17  and  C_20 
REMARK    6  A    between atoms: C_18  and  C_21 
ROOT
HETATM    1 Cl   UNK N   1       5.275  -6.573  -0.045  0.00  0.00    -0.079 Cl
HETATM    2  N   UNK N   1       5.957   0.521  -0.008  0.00  0.00    -0.191 NA
HETATM    3  C   UNK N   1       5.376  -4.816   0.127  0.00  0.00     0.087 A 
HETATM    4  C   UNK N   1       6.620  -4.216   0.238  0.00  0.00     0.060 A 
HETATM    5  C   UNK N   1       4.217  -4.028   0.094  0.00  0.00     0.060 A 
HETATM    6  C   UNK N   1       5.595  -2.032   0.227  0.00  0.00     0.049 A 
HETATM    7  C   UNK N   1       6.707  -2.834   0.309  0.00  0.00     0.054 A 
HETATM    8  C   UNK N   1       4.317  -2.614   0.116  0.00  0.00     0.054 A 
HETATM    9  C   UNK N   1       5.817  -0.622   0.099  0.00  0.00     0.099 C 
ENDROOT
BRANCH   4  10
HETATM   10  N   UNK N   1       7.801  -5.005   0.197  0.00  0.00    -0.316 N 
HETATM   11  C   UNK N   1       8.999  -4.523  -0.238  0.00  0.00     0.319 C 
HETATM   12  O   UNK N   1       9.091  -3.389  -0.688  0.00  0.00    -0.261 OA
HETATM   13  H   UNK N   1       7.751  -5.941   0.495  0.00  0.00     0.169 HD
BRANCH  11  14
HETATM   14  C   UNK N   1      10.198  -5.373  -0.209  0.00  0.00     0.237 C 
HETATM   15  O   UNK N   1      10.138  -6.521   0.200  0.00  0.00    -0.643 OA
BRANCH  14  16
HETATM   16  O   UNK N   1      11.379  -4.873  -0.624  0.00  0.00    -0.769 OA
HETATM   17  H   UNK N   1      12.090  -5.410  -0.912  0.00  0.00     0.168 HD
ENDBRANCH  14  16
ENDBRANCH  11  14
ENDBRANCH   4  10
BRANCH   5  18
HETATM   18  N   UNK N   1       3.000  -4.726  -0.022  0.00  0.00    -0.316 N 
HETATM   19  C   UNK N   1       1.767  -4.262  -0.279  0.00  0.00     0.319 C 
HETATM   20  O   UNK N   1       1.542  -3.065  -0.386  0.00  0.00    -0.261 OA
HETATM   21  H   UNK N   1       3.063  -5.701   0.104  0.00  0.00     0.169 HD
BRANCH  19  22
HETATM   22  C   UNK N   1       0.711  -5.263  -0.482  0.00  0.00     0.237 C 
HETATM   23  O   UNK N   1       0.958  -6.446  -0.292  0.00  0.00    -0.643 OA
BRANCH  22  24
HETATM   24  O   UNK N   1      -0.528  -4.893  -0.842  0.00  0.00    -0.769 OA
HETATM   25  H   UNK N   1      -0.737  -4.015  -1.093  0.00  0.00     0.168 HD
ENDBRANCH  22  24
ENDBRANCH  19  22
ENDBRANCH   5  18
TORSDOF 6
