MODEL 1
REMARK VINA RESULT:      -7.9      0.000      0.000
REMARK  1 active torsions:
REMARK  status: ('A' for Active; 'I' for Inactive)
REMARK    1  A    between atoms: C_18  and  O_24 
ROOT
HETATM    1  C   UNK N   1      27.822  28.887  -2.037  0.00  0.00     0.116 A 
HETATM    2  N   UNK N   1      28.019  30.223  -1.993  0.00  0.00    -0.311 N 
HETATM    3  N   UNK N   1      28.014  30.706  -3.233  0.00  0.00    -0.305 N 
ATOM      4  HN  UNK N   1      28.138  31.683  -3.496  1.00  0.00     0.186 HD
HETATM    5  C   UNK N   1      27.819  29.680  -4.075  0.00  0.00     0.034 A 
HETATM    6  C   UNK N   1      27.696  28.530  -3.360  0.00  0.00    -0.017 A 
HETATM    7  C   UNK N   1      27.440  27.199  -3.969  0.00  0.00     0.052 C 
HETATM    8  C   UNK N   1      27.684  29.777  -5.562  0.00  0.00     0.064 C 
HETATM    9  C   UNK N   1      27.208  28.461  -6.226  0.00  0.00    -0.000 C 
HETATM   10  C   UNK N   1      26.602  27.366  -5.254  0.00  0.00    -0.032 C 
HETATM   11  C   UNK N   1      26.549  25.980  -5.964  0.00  0.00    -0.001 C 
HETATM   12  C   UNK N   1      28.251  27.858  -7.180  0.00  0.00     0.006 C 
HETATM   13  C   UNK N   1      27.624  26.737  -8.069  0.00  0.00     0.006 C 
HETATM   14  C   UNK N   1      26.304  26.163  -7.485  0.00  0.00    -0.005 C 
HETATM   15  C   UNK N   1      25.737  23.536  -5.979  0.00  0.00     0.013 C 
HETATM   16  C   UNK N   1      25.622  24.934  -5.311  0.00  0.00     0.007 C 
HETATM   17  C   UNK N   1      25.785  24.853  -8.123  0.00  0.00     0.001 C 
HETATM   18  C   UNK N   1      25.620  22.523  -8.373  0.00  0.00     0.062 C 
HETATM   19  C   UNK N   1      26.250  23.574  -7.439  0.00  0.00    -0.009 C 
HETATM   20  C   UNK N   1      26.015  24.614  -9.610  0.00  0.00     0.009 C 
HETATM   21  C   UNK N   1      25.929  23.081  -9.767  0.00  0.00     0.038 C 
HETATM   22  C   UNK N   1      25.194  27.821  -4.862  0.00  0.00     0.016 C 
HETATM   23  C   UNK N   1      27.784  23.460  -7.454  0.00  0.00     0.018 C 
HETATM   24  C   UNK N   1      26.157  21.113  -8.180  0.00  0.00     0.046 C 
HETATM   25  H   UNK N   1      28.144  30.756  -1.175  0.00  0.00     0.186 HD
ENDROOT
BRANCH  18  26
HETATM   26  O   UNK N   1      24.228  22.487  -8.211  0.00  0.00    -0.389 OA
HETATM   27  H   UNK N   1      23.341  22.106  -8.300  0.00  0.00     0.210 HD
ENDBRANCH  18  26
TORSDOF 1
ENDMDL
MODEL 2
REMARK VINA RESULT:      -7.8      4.054      5.258
REMARK  1 active torsions:
REMARK  status: ('A' for Active; 'I' for Inactive)
REMARK    1  A    between atoms: C_18  and  O_24 
ROOT
HETATM    1  C   UNK N   1      26.853  28.163  -3.253  0.00  0.00     0.116 A 
HETATM    2  N   UNK N   1      25.611  28.568  -3.598  0.00  0.00    -0.311 N 
HETATM    3  N   UNK N   1      25.117  27.733  -4.509  0.00  0.00    -0.305 N 
ATOM      4  HN  UNK N   1      24.198  27.796  -4.945  1.00  0.00     0.186 HD
HETATM    5  C   UNK N   1      26.044  26.793  -4.752  0.00  0.00     0.034 A 
HETATM    6  C   UNK N   1      27.140  27.035  -3.984  0.00  0.00    -0.017 A 
HETATM    7  C   UNK N   1      28.351  26.173  -3.975  0.00  0.00     0.052 C 
HETATM    8  C   UNK N   1      25.886  25.620  -5.667  0.00  0.00     0.064 C 
HETATM    9  C   UNK N   1      27.025  24.579  -5.538  0.00  0.00    -0.000 C 
HETATM   10  C   UNK N   1      27.952  24.710  -4.259  0.00  0.00    -0.032 C 
HETATM   11  C   UNK N   1      29.265  23.894  -4.454  0.00  0.00    -0.001 C 
HETATM   12  C   UNK N   1      27.853  24.431  -6.825  0.00  0.00     0.006 C 
HETATM   13  C   UNK N   1      28.761  23.161  -6.771  0.00  0.00     0.006 C 
HETATM   14  C   UNK N   1      28.995  22.640  -5.327  0.00  0.00    -0.005 C 
HETATM   15  C   UNK N   1      31.424  22.911  -3.452  0.00  0.00     0.013 C 
HETATM   16  C   UNK N   1      30.055  23.590  -3.165  0.00  0.00     0.007 C 
HETATM   17  C   UNK N   1      30.118  21.591  -5.151  0.00  0.00     0.001 C 
HETATM   18  C   UNK N   1      32.326  20.872  -4.792  0.00  0.00     0.062 C 
HETATM   19  C   UNK N   1      31.487  22.164  -4.806  0.00  0.00    -0.009 C 
HETATM   20  C   UNK N   1      30.378  20.591  -6.270  0.00  0.00     0.009 C 
HETATM   21  C   UNK N   1      31.836  20.138  -6.046  0.00  0.00     0.038 C 
HETATM   22  C   UNK N   1      27.164  24.178  -3.059  0.00  0.00     0.016 C 
HETATM   23  C   UNK N   1      31.984  23.120  -5.903  0.00  0.00     0.018 C 
HETATM   24  C   UNK N   1      33.829  21.102  -4.805  0.00  0.00     0.046 C 
HETATM   25  H   UNK N   1      25.144  29.355  -3.234  0.00  0.00     0.186 HD
ENDROOT
BRANCH  18  26
HETATM   26  O   UNK N   1      32.012  20.089  -3.673  0.00  0.00    -0.389 OA
HETATM   27  H   UNK N   1      31.541  19.873  -2.854  0.00  0.00     0.210 HD
ENDBRANCH  18  26
TORSDOF 1
ENDMDL
MODEL 3
REMARK VINA RESULT:      -7.7      4.844      6.720
REMARK  1 active torsions:
REMARK  status: ('A' for Active; 'I' for Inactive)
REMARK    1  A    between atoms: C_18  and  O_24 
ROOT
HETATM    1  C   UNK N   1      31.182  20.059  -4.422  0.00  0.00     0.116 A 
HETATM    2  N   UNK N   1      32.496  19.775  -4.283  0.00  0.00    -0.311 N 
HETATM    3  N   UNK N   1      33.191  20.909  -4.297  0.00  0.00    -0.305 N 
ATOM      4  HN  UNK N   1      34.203  20.993  -4.208  1.00  0.00     0.186 HD
HETATM    5  C   UNK N   1      32.326  21.922  -4.449  0.00  0.00     0.034 A 
HETATM    6  C   UNK N   1      31.063  21.425  -4.532  0.00  0.00    -0.017 A 
HETATM    7  C   UNK N   1      29.848  22.268  -4.674  0.00  0.00     0.052 C 
HETATM    8  C   UNK N   1      32.671  23.378  -4.458  0.00  0.00     0.064 C 
HETATM    9  C   UNK N   1      31.432  24.306  -4.390  0.00  0.00    -0.000 C 
HETATM   10  C   UNK N   1      30.067  23.622  -3.966  0.00  0.00    -0.032 C 
HETATM   11  C   UNK N   1      28.863  24.543  -4.328  0.00  0.00    -0.001 C 
HETATM   12  C   UNK N   1      31.264  25.176  -5.646  0.00  0.00     0.006 C 
HETATM   13  C   UNK N   1      30.222  26.316  -5.410  0.00  0.00     0.006 C 
HETATM   14  C   UNK N   1      29.272  26.035  -4.213  0.00  0.00    -0.005 C 
HETATM   15  C   UNK N   1      26.348  25.067  -4.139  0.00  0.00     0.013 C 
HETATM   16  C   UNK N   1      27.536  24.211  -3.616  0.00  0.00     0.007 C 
HETATM   17  C   UNK N   1      28.026  26.943  -4.100  0.00  0.00     0.001 C 
HETATM   18  C   UNK N   1      25.806  27.580  -4.533  0.00  0.00     0.062 C 
HETATM   19  C   UNK N   1      26.774  26.409  -4.784  0.00  0.00    -0.009 C 
HETATM   20  C   UNK N   1      28.128  28.397  -4.542  0.00  0.00     0.009 C 
HETATM   21  C   UNK N   1      26.672  28.807  -4.848  0.00  0.00     0.038 C 
HETATM   22  C   UNK N   1      30.120  23.379  -2.455  0.00  0.00     0.016 C 
HETATM   23  C   UNK N   1      27.004  26.210  -6.292  0.00  0.00     0.018 C 
HETATM   24  C   UNK N   1      24.538  27.535  -5.372  0.00  0.00     0.046 C 
HETATM   25  H   UNK N   1      32.878  18.873  -4.185  0.00  0.00     0.186 HD
ENDROOT
BRANCH  18  26
HETATM   26  O   UNK N   1      25.436  27.638  -3.182  0.00  0.00    -0.389 OA
HETATM   27  H   UNK N   1      24.877  27.894  -2.433  0.00  0.00     0.210 HD
ENDBRANCH  18  26
TORSDOF 1
ENDMDL
MODEL 4
REMARK VINA RESULT:      -7.7     14.882     16.627
REMARK  1 active torsions:
REMARK  status: ('A' for Active; 'I' for Inactive)
REMARK    1  A    between atoms: C_18  and  O_24 
ROOT
HETATM    1  C   UNK N   1      26.113  20.166   4.792  0.00  0.00     0.116 A 
HETATM    2  N   UNK N   1      25.176  19.844   3.872  0.00  0.00    -0.311 N 
HETATM    3  N   UNK N   1      25.496  18.679   3.314  0.00  0.00    -0.305 N 
ATOM      4  HN  UNK N   1      24.966  18.196   2.590  1.00  0.00     0.186 HD
HETATM    5  C   UNK N   1      26.639  18.253   3.872  0.00  0.00     0.034 A 
HETATM    6  C   UNK N   1      27.051  19.160   4.798  0.00  0.00    -0.017 A 
HETATM    7  C   UNK N   1      28.269  18.997   5.633  0.00  0.00     0.052 C 
HETATM    8  C   UNK N   1      27.329  16.957   3.583  0.00  0.00     0.064 C 
HETATM    9  C   UNK N   1      28.479  16.637   4.569  0.00  0.00    -0.000 C 
HETATM   10  C   UNK N   1      28.521  17.497   5.900  0.00  0.00    -0.032 C 
HETATM   11  C   UNK N   1      29.914  17.369   6.586  0.00  0.00    -0.001 C 
HETATM   12  C   UNK N   1      29.856  16.579   3.888  0.00  0.00     0.006 C 
HETATM   13  C   UNK N   1      30.926  15.938   4.828  0.00  0.00     0.006 C 
HETATM   14  C   UNK N   1      30.515  15.963   6.326  0.00  0.00    -0.005 C 
HETATM   15  C   UNK N   1      31.413  17.791   8.637  0.00  0.00     0.013 C 
HETATM   16  C   UNK N   1      29.968  17.799   8.066  0.00  0.00     0.007 C 
HETATM   17  C   UNK N   1      31.630  15.641   7.348  0.00  0.00     0.001 C 
HETATM   18  C   UNK N   1      33.426  16.150   8.775  0.00  0.00     0.062 C 
HETATM   19  C   UNK N   1      32.385  16.851   7.882  0.00  0.00    -0.009 C 
HETATM   20  C   UNK N   1      32.711  14.636   6.970  0.00  0.00     0.009 C 
HETATM   21  C   UNK N   1      33.898  14.987   7.892  0.00  0.00     0.038 C 
HETATM   22  C   UNK N   1      27.418  16.975   6.825  0.00  0.00     0.016 C 
HETATM   23  C   UNK N   1      33.077  17.623   6.747  0.00  0.00     0.018 C 
HETATM   24  C   UNK N   1      34.574  17.044   9.217  0.00  0.00     0.046 C 
HETATM   25  H   UNK N   1      24.384  20.384   3.650  0.00  0.00     0.186 HD
ENDROOT
BRANCH  18  26
HETATM   26  O   UNK N   1      32.820  15.616   9.919  0.00  0.00    -0.389 OA
HETATM   27  H   UNK N   1      32.589  15.586  10.861  0.00  0.00     0.210 HD
ENDBRANCH  18  26
TORSDOF 1
ENDMDL
MODEL 5
REMARK VINA RESULT:      -7.5     27.627     29.572
REMARK  1 active torsions:
REMARK  status: ('A' for Active; 'I' for Inactive)
REMARK    1  A    between atoms: C_18  and  O_24 
ROOT
HETATM    1  C   UNK N   1      36.429  14.621  13.665  0.00  0.00     0.116 A 
HETATM    2  N   UNK N   1      35.959  14.617  12.398  0.00  0.00    -0.311 N 
HETATM    3  N   UNK N   1      35.275  13.495  12.191  0.00  0.00    -0.305 N 
ATOM      4  HN  UNK N   1      34.808  13.228  11.325  1.00  0.00     0.186 HD
HETATM    5  C   UNK N   1      35.309  12.775  13.322  0.00  0.00     0.034 A 
HETATM    6  C   UNK N   1      36.023  13.450  14.262  0.00  0.00    -0.017 A 
HETATM    7  C   UNK N   1      36.240  12.961  15.648  0.00  0.00     0.052 C 
HETATM    8  C   UNK N   1      34.618  11.468  13.554  0.00  0.00     0.064 C 
HETATM    9  C   UNK N   1      34.631  11.017  15.036  0.00  0.00    -0.000 C 
HETATM   10  C   UNK N   1      35.026  12.122  16.101  0.00  0.00    -0.032 C 
HETATM   11  C   UNK N   1      35.395  11.457  17.461  0.00  0.00    -0.001 C 
HETATM   12  C   UNK N   1      35.410   9.710  15.259  0.00  0.00     0.006 C 
HETATM   13  C   UNK N   1      35.128   9.118  16.676  0.00  0.00     0.006 C 
HETATM   14  C   UNK N   1      34.562  10.166  17.673  0.00  0.00    -0.005 C 
HETATM   15  C   UNK N   1      35.918  11.706  19.971  0.00  0.00     0.013 C 
HETATM   16  C   UNK N   1      35.394  12.399  18.682  0.00  0.00     0.007 C 
HETATM   17  C   UNK N   1      34.547   9.755  19.164  0.00  0.00     0.001 C 
HETATM   18  C   UNK N   1      35.448   9.534  21.323  0.00  0.00     0.062 C 
HETATM   19  C   UNK N   1      35.782  10.164  19.957  0.00  0.00    -0.009 C 
HETATM   20  C   UNK N   1      34.309   8.295  19.526  0.00  0.00     0.009 C 
HETATM   21  C   UNK N   1      34.922   8.146  20.935  0.00  0.00     0.038 C 
HETATM   22  C   UNK N   1      33.824  13.055  16.269  0.00  0.00     0.016 C 
HETATM   23  C   UNK N   1      37.056   9.535  19.369  0.00  0.00     0.018 C 
HETATM   24  C   UNK N   1      36.625   9.460  22.283  0.00  0.00     0.046 C 
HETATM   25  H   UNK N   1      36.098  15.330  11.734  0.00  0.00     0.186 HD
ENDROOT
BRANCH  18  26
HETATM   26  O   UNK N   1      34.412  10.236  21.953  0.00  0.00    -0.389 OA
HETATM   27  H   UNK N   1      33.488  10.434  22.172  0.00  0.00     0.210 HD
ENDBRANCH  18  26
TORSDOF 1
ENDMDL
MODEL 6
REMARK VINA RESULT:      -7.4     17.299     18.762
REMARK  1 active torsions:
REMARK  status: ('A' for Active; 'I' for Inactive)
REMARK    1  A    between atoms: C_18  and  O_24 
ROOT
HETATM    1  C   UNK N   1      37.331  13.757   9.099  0.00  0.00     0.116 A 
HETATM    2  N   UNK N   1      37.884  13.984  10.311  0.00  0.00    -0.311 N 
HETATM    3  N   UNK N   1      37.187  14.929  10.937  0.00  0.00    -0.305 N 
ATOM      4  HN  UNK N   1      37.379  15.297  11.868  1.00  0.00     0.186 HD
HETATM    5  C   UNK N   1      36.190  15.313  10.127  0.00  0.00     0.034 A 
HETATM    6  C   UNK N   1      36.253  14.600   8.970  0.00  0.00    -0.017 A 
HETATM    7  C   UNK N   1      35.281  14.743   7.855  0.00  0.00     0.052 C 
HETATM    8  C   UNK N   1      35.126  16.313  10.455  0.00  0.00     0.064 C 
HETATM    9  C   UNK N   1      33.972  16.348   9.422  0.00  0.00    -0.000 C 
HETATM   10  C   UNK N   1      33.895  15.126   8.416  0.00  0.00    -0.032 C 
HETATM   11  C   UNK N   1      32.978  15.475   7.206  0.00  0.00    -0.001 C 
HETATM   12  C   UNK N   1      33.864  17.694   8.688  0.00  0.00     0.006 C 
HETATM   13  C   UNK N   1      32.513  17.809   7.912  0.00  0.00     0.006 C 
HETATM   14  C   UNK N   1      31.842  16.433   7.651  0.00  0.00    -0.005 C 
HETATM   15  C   UNK N   1      31.704  14.704   5.105  0.00  0.00     0.013 C 
HETATM   16  C   UNK N   1      32.482  14.271   6.379  0.00  0.00     0.007 C 
HETATM   17  C   UNK N   1      30.678  16.421   6.632  0.00  0.00     0.001 C 
HETATM   18  C   UNK N   1      29.719  16.270   4.492  0.00  0.00     0.062 C 
HETATM   19  C   UNK N   1      31.082  16.119   5.195  0.00  0.00    -0.009 C 
HETATM   20  C   UNK N   1      29.765  17.636   6.539  0.00  0.00     0.009 C 
HETATM   21  C   UNK N   1      29.154  17.548   5.124  0.00  0.00     0.038 C 
HETATM   22  C   UNK N   1      33.334  13.927   9.185  0.00  0.00     0.016 C 
HETATM   23  C   UNK N   1      32.083  17.160   4.666  0.00  0.00     0.018 C 
HETATM   24  C   UNK N   1      29.804  16.362   2.976  0.00  0.00     0.046 C 
HETATM   25  H   UNK N   1      38.675  13.524  10.674  0.00  0.00     0.186 HD
ENDROOT
BRANCH  18  26
HETATM   26  O   UNK N   1      28.871  15.204   4.820  0.00  0.00    -0.389 OA
HETATM   27  H   UNK N   1      28.660  14.311   5.134  0.00  0.00     0.210 HD
ENDBRANCH  18  26
TORSDOF 1
ENDMDL
MODEL 7
REMARK VINA RESULT:      -7.3     24.645     26.278
REMARK  1 active torsions:
REMARK  status: ('A' for Active; 'I' for Inactive)
REMARK    1  A    between atoms: C_18  and  O_24 
ROOT
HETATM    1  C   UNK N   1      35.879   9.030  17.561  0.00  0.00     0.116 A 
HETATM    2  N   UNK N   1      35.566   9.318  18.844  0.00  0.00    -0.311 N 
HETATM    3  N   UNK N   1      35.344  10.625  18.957  0.00  0.00    -0.305 N 
ATOM      4  HN  UNK N   1      35.088  11.118  19.811  1.00  0.00     0.186 HD
HETATM    5  C   UNK N   1      35.519  11.178  17.748  0.00  0.00     0.034 A 
HETATM    6  C   UNK N   1      35.854  10.209  16.855  0.00  0.00    -0.017 A 
HETATM    7  C   UNK N   1      36.092  10.460  15.409  0.00  0.00     0.052 C 
HETATM    8  C   UNK N   1      35.313  12.620  17.403  0.00  0.00     0.064 C 
HETATM    9  C   UNK N   1      35.339  12.901  15.880  0.00  0.00    -0.000 C 
HETATM   10  C   UNK N   1      35.214  11.636  14.933  0.00  0.00    -0.032 C 
HETATM   11  C   UNK N   1      35.657  11.998  13.483  0.00  0.00    -0.001 C 
HETATM   12  C   UNK N   1      36.502  13.813  15.457  0.00  0.00     0.006 C 
HETATM   13  C   UNK N   1      36.309  14.337  13.998  0.00  0.00     0.006 C 
HETATM   14  C   UNK N   1      35.316  13.478  13.169  0.00  0.00    -0.005 C 
HETATM   15  C   UNK N   1      35.812  11.352  10.995  0.00  0.00     0.013 C 
HETATM   16  C   UNK N   1      35.205  11.013  12.386  0.00  0.00     0.007 C 
HETATM   17  C   UNK N   1      35.301  13.730  11.643  0.00  0.00     0.001 C 
HETATM   18  C   UNK N   1      36.006  13.417   9.424  0.00  0.00     0.062 C 
HETATM   19  C   UNK N   1      36.229  12.834  10.833  0.00  0.00    -0.009 C 
HETATM   20  C   UNK N   1      35.558  15.139  11.124  0.00  0.00     0.009 C 
HETATM   21  C   UNK N   1      36.043  14.929   9.674  0.00  0.00     0.038 C 
HETATM   22  C   UNK N   1      33.750  11.188  14.949  0.00  0.00     0.016 C 
HETATM   23  C   UNK N   1      37.694  13.011  11.266  0.00  0.00     0.018 C 
HETATM   24  C   UNK N   1      37.034  12.974   8.394  0.00  0.00     0.046 C 
HETATM   25  H   UNK N   1      35.510   8.665  19.579  0.00  0.00     0.186 HD
ENDROOT
BRANCH  18  26
HETATM   26  O   UNK N   1      34.733  13.081   8.944  0.00  0.00    -0.389 OA
HETATM   27  H   UNK N   1      33.968  12.500   8.807  0.00  0.00     0.210 HD
ENDBRANCH  18  26
TORSDOF 1
ENDMDL
MODEL 8
REMARK VINA RESULT:      -7.1     17.909     19.617
REMARK  1 active torsions:
REMARK  status: ('A' for Active; 'I' for Inactive)
REMARK    1  A    between atoms: C_18  and  O_24 
ROOT
HETATM    1  C   UNK N   1      31.315  15.964   3.110  0.00  0.00     0.116 A 
HETATM    2  N   UNK N   1      30.272  16.778   2.835  0.00  0.00    -0.311 N 
HETATM    3  N   UNK N   1      29.861  17.356   3.960  0.00  0.00    -0.305 N 
ATOM      4  HN  UNK N   1      29.092  18.019   4.047  1.00  0.00     0.186 HD
HETATM    5  C   UNK N   1      30.637  16.911   4.960  0.00  0.00     0.034 A 
HETATM    6  C   UNK N   1      31.554  16.040   4.462  0.00  0.00    -0.017 A 
HETATM    7  C   UNK N   1      32.597  15.375   5.286  0.00  0.00     0.052 C 
HETATM    8  C   UNK N   1      30.563  17.348   6.390  0.00  0.00     0.064 C 
HETATM    9  C   UNK N   1      31.754  16.853   7.248  0.00  0.00    -0.000 C 
HETATM   10  C   UNK N   1      33.008  16.299   6.452  0.00  0.00    -0.032 C 
HETATM   11  C   UNK N   1      33.932  15.477   7.400  0.00  0.00    -0.001 C 
HETATM   12  C   UNK N   1      31.328  15.895   8.372  0.00  0.00     0.006 C 
HETATM   13  C   UNK N   1      32.482  15.683   9.403  0.00  0.00     0.006 C 
HETATM   14  C   UNK N   1      33.880  16.055   8.838  0.00  0.00    -0.005 C 
HETATM   15  C   UNK N   1      36.177  14.282   7.806  0.00  0.00     0.013 C 
HETATM   16  C   UNK N   1      35.365  15.235   6.884  0.00  0.00     0.007 C 
HETATM   17  C   UNK N   1      35.100  15.589   9.667  0.00  0.00     0.001 C 
HETATM   18  C   UNK N   1      36.777  14.083  10.329  0.00  0.00     0.062 C 
HETATM   19  C   UNK N   1      35.670  14.235   9.268  0.00  0.00    -0.009 C 
HETATM   20  C   UNK N   1      34.986  15.539  11.185  0.00  0.00     0.009 C 
HETATM   21  C   UNK N   1      36.073  14.532  11.616  0.00  0.00     0.038 C 
HETATM   22  C   UNK N   1      33.762  17.501   5.879  0.00  0.00     0.016 C 
HETATM   23  C   UNK N   1      34.621  13.121   9.417  0.00  0.00     0.018 C 
HETATM   24  C   UNK N   1      37.348  12.677  10.441  0.00  0.00     0.046 C 
HETATM   25  H   UNK N   1      29.879  16.921   1.943  0.00  0.00     0.186 HD
ENDROOT
BRANCH  18  26
HETATM   26  O   UNK N   1      37.834  14.966  10.074  0.00  0.00    -0.389 OA
HETATM   27  H   UNK N   1      38.403  15.522   9.519  0.00  0.00     0.210 HD
ENDBRANCH  18  26
TORSDOF 1
ENDMDL
MODEL 9
REMARK VINA RESULT:      -7.1      5.114      7.040
REMARK  1 active torsions:
REMARK  status: ('A' for Active; 'I' for Inactive)
REMARK    1  A    between atoms: C_18  and  O_24 
ROOT
HETATM    1  C   UNK N   1      34.391  21.289  -5.846  0.00  0.00     0.116 A 
HETATM    2  N   UNK N   1      35.082  20.583  -4.923  0.00  0.00    -0.311 N 
HETATM    3  N   UNK N   1      34.413  20.595  -3.774  0.00  0.00    -0.305 N 
ATOM      4  HN  UNK N   1      34.701  20.140  -2.908  1.00  0.00     0.186 HD
HETATM    5  C   UNK N   1      33.294  21.312  -3.954  0.00  0.00     0.034 A 
HETATM    6  C   UNK N   1      33.251  21.760  -5.238  0.00  0.00    -0.017 A 
HETATM    7  C   UNK N   1      32.134  22.564  -5.797  0.00  0.00     0.052 C 
HETATM    8  C   UNK N   1      32.219  21.535  -2.937  0.00  0.00     0.064 C 
HETATM    9  C   UNK N   1      30.939  22.181  -3.524  0.00  0.00    -0.000 C 
HETATM   10  C   UNK N   1      30.812  22.174  -5.103  0.00  0.00    -0.032 C 
HETATM   11  C   UNK N   1      29.722  23.188  -5.564  0.00  0.00    -0.001 C 
HETATM   12  C   UNK N   1      30.647  23.572  -2.938  0.00  0.00     0.006 C 
HETATM   13  C   UNK N   1      29.200  24.043  -3.293  0.00  0.00     0.006 C 
HETATM   14  C   UNK N   1      28.593  23.284  -4.505  0.00  0.00    -0.005 C 
HETATM   15  C   UNK N   1      28.236  24.130  -7.445  0.00  0.00     0.013 C 
HETATM   16  C   UNK N   1      29.202  22.995  -7.004  0.00  0.00     0.007 C 
HETATM   17  C   UNK N   1      27.309  23.889  -5.118  0.00  0.00     0.001 C 
HETATM   18  C   UNK N   1      26.089  25.295  -6.552  0.00  0.00     0.062 C 
HETATM   19  C   UNK N   1      27.539  24.858  -6.270  0.00  0.00    -0.009 C 
HETATM   20  C   UNK N   1      26.312  24.590  -4.204  0.00  0.00     0.009 C 
HETATM   21  C   UNK N   1      25.528  25.530  -5.143  0.00  0.00     0.038 C 
HETATM   22  C   UNK N   1      30.437  20.753  -5.532  0.00  0.00     0.016 C 
HETATM   23  C   UNK N   1      28.390  26.060  -5.827  0.00  0.00     0.018 C 
HETATM   24  C   UNK N   1      25.966  26.525  -7.437  0.00  0.00     0.046 C 
HETATM   25  H   UNK N   1      35.943  20.130  -5.077  0.00  0.00     0.186 HD
ENDROOT
BRANCH  18  26
HETATM   26  O   UNK N   1      25.363  24.254  -7.146  0.00  0.00    -0.389 OA
HETATM   27  H   UNK N   1      24.638  23.613  -7.215  0.00  0.00     0.210 HD
ENDBRANCH  18  26
TORSDOF 1
ENDMDL
