MODEL 1
REMARK VINA RESULT:      -7.4      0.000      0.000
REMARK  9 active torsions:
REMARK  status: ('A' for Active; 'I' for Inactive)
REMARK    1  A    between atoms: C_3  and  N_12 
REMARK    2  A    between atoms: C_9  and  O_30 
REMARK    3  A    between atoms: C_10  and  O_13 
REMARK    4  A    between atoms: N_12  and  C_15 
REMARK    5  A    between atoms: O_13  and  C_14 
REMARK    6  A    between atoms: C_14  and  C_22 
REMARK    7  A    between atoms: C_19  and  O_33 
REMARK    8  A    between atoms: C_22  and  C_23 
REMARK    9  A    between atoms: C_23  and  N_24 
ROOT
HETATM    1  C   UNK N   1      27.138  14.845   2.683  0.00  0.00     0.113 A 
HETATM    2  C   UNK N   1      28.359  15.431   3.041  0.00  0.00     0.087 A 
HETATM    3  C   UNK N   1      28.389  16.735   3.586  0.00  0.00     0.067 A 
HETATM    4  C   UNK N   1      27.151  17.382   3.784  0.00  0.00     0.022 A 
HETATM    5  C   UNK N   1      25.950  16.773   3.363  0.00  0.00     0.047 A 
HETATM    6  N   UNK N   1      25.973  15.527   2.828  0.00  0.00    -0.364 N 
ATOM      7  HN  UNK N   1      25.099  15.095   2.530  1.00  0.00     0.165 HD
HETATM    8  C   UNK N   1      27.078  18.596   4.414  0.00  0.00     0.055 A 
HETATM    9  C   UNK N   1      25.889  19.284   4.575  0.00  0.00     0.102 A 
HETATM   10  C   UNK N   1      24.694  18.742   4.055  0.00  0.00     0.104 A 
HETATM   11  C   UNK N   1      24.732  17.462   3.484  0.00  0.00     0.070 A 
HETATM   12  C   UNK N   1      29.575  14.687   2.845  0.00  0.00     0.103 C 
HETATM   13  N   UNK N   1      30.569  14.112   2.698  0.00  0.00    -0.191 NA
ENDROOT
BRANCH   3  14
HETATM   14  N   UNK N   1      29.671  17.311   3.929  0.00  0.00    -0.353 N 
HETATM   15  H   UNK N   1      30.086  17.779   3.168  0.00  0.00     0.166 HD
BRANCH  14  16
HETATM   16  C   UNK N   1      30.494  17.366   5.119  0.00  0.00     0.057 A 
HETATM   17  C   UNK N   1      31.886  17.334   4.949  0.00  0.00     0.062 A 
HETATM   18  C   UNK N   1      32.742  17.299   6.052  0.00  0.00     0.052 A 
HETATM   19 Cl   UNK N   1      32.581  17.306   3.339  0.00  0.00    -0.082 Cl
HETATM   20  C   UNK N   1      32.234  17.318   7.349  0.00  0.00     0.069 A 
HETATM   21  C   UNK N   1      30.858  17.424   7.561  0.00  0.00     0.092 A 
HETATM   22 Cl   UNK N   1      33.343  17.217   8.707  0.00  0.00    -0.081 Cl
HETATM   23  C   UNK N   1      29.995  17.458   6.440  0.00  0.00     0.069 A 
BRANCH  21  24
HETATM   24  O   UNK N   1      30.399  17.478   8.840  0.00  0.00    -0.354 OA
HETATM   25  C   UNK N   1      29.919  18.615   9.448  0.00  0.00     0.210 C 
ENDBRANCH  21  24
ENDBRANCH  14  16
ENDBRANCH   3  14
BRANCH   9  26
HETATM   26  O   UNK N   1      25.888  20.443   5.259  0.00  0.00    -0.353 OA
HETATM   27  C   UNK N   1      27.022  20.984   5.821  0.00  0.00     0.210 C 
ENDBRANCH   9  26
BRANCH  10  28
HETATM   28  O   UNK N   1      23.508  19.405   4.105  0.00  0.00    -0.348 OA
BRANCH  28  29
HETATM   29  C   UNK N   1      22.969  20.076   3.026  0.00  0.00     0.177 C 
BRANCH  29  30
HETATM   30  C   UNK N   1      21.475  19.882   2.972  0.00  0.00     0.057 C 
BRANCH  30  31
HETATM   31  C   UNK N   1      21.097  18.711   3.866  0.00  0.00     0.274 C 
BRANCH  31  32
HETATM   32  N   UNK N   1      19.867  18.064   3.407  0.00  0.00     0.091 N 
HETATM   33  C   UNK N   1      19.976  17.889   1.953  0.00  0.00     0.302 C 
HETATM   34  C   UNK N   1      20.602  16.539   1.552  0.00  0.00     0.302 C 
HETATM   35  N   UNK N   1      21.518  16.066   2.589  0.00  0.00     0.087 N 
HETATM   36  C   UNK N   1      20.789  15.782   3.827  0.00  0.00     0.302 C 
HETATM   37  C   UNK N   1      22.057  14.795   2.145  0.00  0.00     0.310 C 
HETATM   38  C   UNK N   1      19.638  16.770   4.074  0.00  0.00     0.302 C 
ENDBRANCH  31  32
ENDBRANCH  30  31
ENDBRANCH  29  30
ENDBRANCH  28  29
ENDBRANCH  10  28
TORSDOF 9
ENDMDL
MODEL 2
REMARK VINA RESULT:      -7.2      4.106     10.143
REMARK  9 active torsions:
REMARK  status: ('A' for Active; 'I' for Inactive)
REMARK    1  A    between atoms: C_3  and  N_12 
REMARK    2  A    between atoms: C_9  and  O_30 
REMARK    3  A    between atoms: C_10  and  O_13 
REMARK    4  A    between atoms: N_12  and  C_15 
REMARK    5  A    between atoms: O_13  and  C_14 
REMARK    6  A    between atoms: C_14  and  C_22 
REMARK    7  A    between atoms: C_19  and  O_33 
REMARK    8  A    between atoms: C_22  and  C_23 
REMARK    9  A    between atoms: C_23  and  N_24 
ROOT
HETATM    1  C   UNK N   1      30.192  13.777   4.438  0.00  0.00     0.113 A 
HETATM    2  C   UNK N   1      29.493  14.711   5.215  0.00  0.00     0.087 A 
HETATM    3  C   UNK N   1      30.196  15.699   5.942  0.00  0.00     0.067 A 
HETATM    4  C   UNK N   1      31.600  15.720   5.813  0.00  0.00     0.022 A 
HETATM    5  C   UNK N   1      32.265  14.730   5.059  0.00  0.00     0.047 A 
HETATM    6  N   UNK N   1      31.549  13.791   4.394  0.00  0.00    -0.364 N 
ATOM      7  HN  UNK N   1      32.038  13.081   3.849  1.00  0.00     0.165 HD
HETATM    8  C   UNK N   1      32.351  16.711   6.387  0.00  0.00     0.055 A 
HETATM    9  C   UNK N   1      33.732  16.733   6.329  0.00  0.00     0.102 A 
HETATM   10  C   UNK N   1      34.419  15.686   5.678  0.00  0.00     0.104 A 
HETATM   11  C   UNK N   1      33.669  14.707   5.010  0.00  0.00     0.070 A 
HETATM   12  C   UNK N   1      28.056  14.647   5.260  0.00  0.00     0.103 C 
HETATM   13  N   UNK N   1      26.901  14.619   5.314  0.00  0.00    -0.191 NA
ENDROOT
BRANCH   3  14
HETATM   14  N   UNK N   1      29.439  16.636   6.745  0.00  0.00    -0.353 N 
HETATM   15  H   UNK N   1      29.318  16.322   7.670  0.00  0.00     0.166 HD
BRANCH  14  16
HETATM   16  C   UNK N   1      28.815  17.922   6.518  0.00  0.00     0.057 A 
HETATM   17  C   UNK N   1      28.530  18.714   7.639  0.00  0.00     0.062 A 
HETATM   18  C   UNK N   1      27.854  19.929   7.506  0.00  0.00     0.052 A 
HETATM   19 Cl   UNK N   1      28.995  18.176   9.243  0.00  0.00    -0.082 Cl
HETATM   20  C   UNK N   1      27.465  20.394   6.252  0.00  0.00     0.069 A 
HETATM   21  C   UNK N   1      27.794  19.671   5.103  0.00  0.00     0.092 A 
HETATM   22 Cl   UNK N   1      26.568  21.900   6.134  0.00  0.00    -0.081 Cl
HETATM   23  C   UNK N   1      28.479  18.440   5.244  0.00  0.00     0.069 A 
BRANCH  21  24
HETATM   24  O   UNK N   1      27.432  20.173   3.892  0.00  0.00    -0.354 OA
HETATM   25  C   UNK N   1      26.194  20.002   3.317  0.00  0.00     0.210 C 
ENDBRANCH  21  24
ENDBRANCH  14  16
ENDBRANCH   3  14
BRANCH   9  26
HETATM   26  O   UNK N   1      34.397  17.773   6.863  0.00  0.00    -0.353 OA
HETATM   27  C   UNK N   1      34.117  18.281   8.111  0.00  0.00     0.210 C 
ENDBRANCH   9  26
BRANCH  10  28
HETATM   28  O   UNK N   1      35.775  15.602   5.657  0.00  0.00    -0.348 OA
BRANCH  28  29
HETATM   29  C   UNK N   1      36.459  14.417   5.471  0.00  0.00     0.177 C 
BRANCH  29  30
HETATM   30  C   UNK N   1      37.122  13.978   6.751  0.00  0.00     0.057 C 
BRANCH  30  31
HETATM   31  C   UNK N   1      36.222  12.973   7.453  0.00  0.00     0.274 C 
BRANCH  31  32
HETATM   32  N   UNK N   1      36.360  13.057   8.907  0.00  0.00     0.091 N 
HETATM   33  C   UNK N   1      36.240  14.472   9.281  0.00  0.00     0.302 C 
HETATM   34  C   UNK N   1      34.791  14.895   9.590  0.00  0.00     0.302 C 
HETATM   35  N   UNK N   1      33.842  14.078   8.836  0.00  0.00     0.087 N 
HETATM   36  C   UNK N   1      33.917  12.678   9.261  0.00  0.00     0.302 C 
HETATM   37  C   UNK N   1      32.508  14.528   9.185  0.00  0.00     0.310 C 
HETATM   38  C   UNK N   1      35.351  12.243   9.608  0.00  0.00     0.302 C 
ENDBRANCH  31  32
ENDBRANCH  30  31
ENDBRANCH  29  30
ENDBRANCH  28  29
ENDBRANCH  10  28
TORSDOF 9
ENDMDL
MODEL 3
REMARK VINA RESULT:      -7.0      4.097      9.590
REMARK  9 active torsions:
REMARK  status: ('A' for Active; 'I' for Inactive)
REMARK    1  A    between atoms: C_3  and  N_12 
REMARK    2  A    between atoms: C_9  and  O_30 
REMARK    3  A    between atoms: C_10  and  O_13 
REMARK    4  A    between atoms: N_12  and  C_15 
REMARK    5  A    between atoms: O_13  and  C_14 
REMARK    6  A    between atoms: C_14  and  C_22 
REMARK    7  A    between atoms: C_19  and  O_33 
REMARK    8  A    between atoms: C_22  and  C_23 
REMARK    9  A    between atoms: C_23  and  N_24 
ROOT
HETATM    1  C   UNK N   1      23.500  20.443   2.995  0.00  0.00     0.113 A 
HETATM    2  C   UNK N   1      22.572  19.478   3.406  0.00  0.00     0.087 A 
HETATM    3  C   UNK N   1      23.014  18.269   3.991  0.00  0.00     0.067 A 
HETATM    4  C   UNK N   1      24.404  18.109   4.172  0.00  0.00     0.022 A 
HETATM    5  C   UNK N   1      25.305  19.086   3.699  0.00  0.00     0.047 A 
HETATM    6  N   UNK N   1      24.833  20.222   3.127  0.00  0.00    -0.364 N 
ATOM      7  HN  UNK N   1      25.492  20.923   2.791  1.00  0.00     0.165 HD
HETATM    8  C   UNK N   1      24.913  17.024   4.835  0.00  0.00     0.055 A 
HETATM    9  C   UNK N   1      26.271  16.807   4.983  0.00  0.00     0.102 A 
HETATM   10  C   UNK N   1      27.188  17.715   4.412  0.00  0.00     0.104 A 
HETATM   11  C   UNK N   1      26.690  18.877   3.804  0.00  0.00     0.070 A 
HETATM   12  C   UNK N   1      21.167  19.735   3.224  0.00  0.00     0.103 C 
HETATM   13  N   UNK N   1      20.033  19.917   3.089  0.00  0.00    -0.191 NA
ENDROOT
BRANCH   3  14
HETATM   14  N   UNK N   1      22.025  17.290   4.388  0.00  0.00    -0.353 N 
HETATM   15  H   UNK N   1      21.493  16.967   3.626  0.00  0.00     0.166 HD
BRANCH  14  16
HETATM   16  C   UNK N   1      21.626  16.672   5.635  0.00  0.00     0.057 A 
HETATM   17  C   UNK N   1      21.731  15.277   5.732  0.00  0.00     0.062 A 
HETATM   18  C   UNK N   1      21.289  14.602   6.873  0.00  0.00     0.052 A 
HETATM   19 Cl   UNK N   1      22.398  14.345   4.404  0.00  0.00    -0.082 Cl
HETATM   20  C   UNK N   1      20.752  15.302   7.951  0.00  0.00     0.069 A 
HETATM   21  C   UNK N   1      20.697  16.697   7.924  0.00  0.00     0.092 A 
HETATM   22 Cl   UNK N   1      20.156  14.410   9.342  0.00  0.00    -0.081 Cl
HETATM   23  C   UNK N   1      21.146  17.376   6.766  0.00  0.00     0.069 A 
BRANCH  21  24
HETATM   24  O   UNK N   1      20.201  17.350   9.009  0.00  0.00    -0.354 OA
HETATM   25  C   UNK N   1      18.905  17.796   9.124  0.00  0.00     0.210 C 
ENDBRANCH  21  24
ENDBRANCH  14  16
ENDBRANCH   3  14
BRANCH   9  26
HETATM   26  O   UNK N   1      26.694  15.751   5.701  0.00  0.00    -0.353 OA
HETATM   27  C   UNK N   1      26.414  15.593   7.039  0.00  0.00     0.210 C 
ENDBRANCH   9  26
BRANCH  10  28
HETATM   28  O   UNK N   1      28.532  17.517   4.447  0.00  0.00    -0.348 OA
BRANCH  28  29
HETATM   29  C   UNK N   1      29.321  17.858   5.526  0.00  0.00     0.177 C 
BRANCH  29  30
HETATM   30  C   UNK N   1      30.115  16.668   6.002  0.00  0.00     0.057 C 
BRANCH  30  31
HETATM   31  C   UNK N   1      31.551  17.102   6.256  0.00  0.00     0.274 C 
BRANCH  31  32
HETATM   32  N   UNK N   1      31.748  17.509   7.648  0.00  0.00     0.091 N 
HETATM   33  C   UNK N   1      31.529  16.324   8.489  0.00  0.00     0.302 C 
HETATM   34  C   UNK N   1      32.817  15.520   8.747  0.00  0.00     0.302 C 
HETATM   35  N   UNK N   1      33.755  15.675   7.637  0.00  0.00     0.087 N 
HETATM   36  C   UNK N   1      34.203  17.066   7.535  0.00  0.00     0.302 C 
HETATM   37  C   UNK N   1      34.938  14.900   7.956  0.00  0.00     0.310 C 
HETATM   38  C   UNK N   1      33.091  18.071   7.877  0.00  0.00     0.302 C 
ENDBRANCH  31  32
ENDBRANCH  30  31
ENDBRANCH  29  30
ENDBRANCH  28  29
ENDBRANCH  10  28
TORSDOF 9
ENDMDL
MODEL 4
REMARK VINA RESULT:      -6.9      4.038     10.197
REMARK  9 active torsions:
REMARK  status: ('A' for Active; 'I' for Inactive)
REMARK    1  A    between atoms: C_3  and  N_12 
REMARK    2  A    between atoms: C_9  and  O_30 
REMARK    3  A    between atoms: C_10  and  O_13 
REMARK    4  A    between atoms: N_12  and  C_15 
REMARK    5  A    between atoms: O_13  and  C_14 
REMARK    6  A    between atoms: C_14  and  C_22 
REMARK    7  A    between atoms: C_19  and  O_33 
REMARK    8  A    between atoms: C_22  and  C_23 
REMARK    9  A    between atoms: C_23  and  N_24 
ROOT
HETATM    1  C   UNK N   1      25.787  20.302   3.078  0.00  0.00     0.113 A 
HETATM    2  C   UNK N   1      24.521  19.840   3.457  0.00  0.00     0.087 A 
HETATM    3  C   UNK N   1      24.397  18.686   4.263  0.00  0.00     0.067 A 
HETATM    4  C   UNK N   1      25.589  18.064   4.691  0.00  0.00     0.022 A 
HETATM    5  C   UNK N   1      26.842  18.536   4.244  0.00  0.00     0.047 A 
HETATM    6  N   UNK N   1      26.909  19.637   3.455  0.00  0.00    -0.364 N 
ATOM      7  HN  UNK N   1      27.819  19.972   3.141  1.00  0.00     0.165 HD
HETATM    8  C   UNK N   1      25.567  17.013   5.568  0.00  0.00     0.055 A 
HETATM    9  C   UNK N   1      26.711  16.345   5.965  0.00  0.00     0.102 A 
HETATM   10  C   UNK N   1      27.961  16.730   5.435  0.00  0.00     0.104 A 
HETATM   11  C   UNK N   1      28.018  17.857   4.604  0.00  0.00     0.070 A 
HETATM   12  C   UNK N   1      23.354  20.556   3.013  0.00  0.00     0.103 C 
HETATM   13  N   UNK N   1      22.398  21.112   2.670  0.00  0.00    -0.191 NA
ENDROOT
BRANCH   3  14
HETATM   14  N   UNK N   1      23.070  18.231   4.621  0.00  0.00    -0.353 N 
HETATM   15  H   UNK N   1      22.707  18.715   5.397  0.00  0.00     0.166 HD
BRANCH  14  16
HETATM   16  C   UNK N   1      22.148  17.236   4.116  0.00  0.00     0.057 A 
HETATM   17  C   UNK N   1      21.670  16.275   5.018  0.00  0.00     0.062 A 
HETATM   18  C   UNK N   1      20.843  15.234   4.587  0.00  0.00     0.052 A 
HETATM   19 Cl   UNK N   1      22.126  16.345   6.711  0.00  0.00    -0.082 Cl
HETATM   20  C   UNK N   1      20.456  15.139   3.252  0.00  0.00     0.069 A 
HETATM   21  C   UNK N   1      20.852  16.116   2.336  0.00  0.00     0.092 A 
HETATM   22 Cl   UNK N   1      19.462  13.784   2.741  0.00  0.00    -0.081 Cl
HETATM   23  C   UNK N   1      21.689  17.168   2.778  0.00  0.00     0.069 A 
BRANCH  21  24
HETATM   24  O   UNK N   1      20.426  16.013   1.049  0.00  0.00    -0.354 OA
HETATM   25  C   UNK N   1      19.958  17.065   0.296  0.00  0.00     0.210 C 
ENDBRANCH  21  24
ENDBRANCH  14  16
ENDBRANCH   3  14
BRANCH   9  26
HETATM   26  O   UNK N   1      26.615  15.362   6.878  0.00  0.00    -0.353 OA
HETATM   27  C   UNK N   1      25.492  14.579   7.023  0.00  0.00     0.210 C 
ENDBRANCH   9  26
BRANCH  10  28
HETATM   28  O   UNK N   1      29.111  16.062   5.717  0.00  0.00    -0.348 OA
BRANCH  28  29
HETATM   29  C   UNK N   1      30.311  16.694   5.975  0.00  0.00     0.177 C 
BRANCH  29  30
HETATM   30  C   UNK N   1      30.367  17.166   7.405  0.00  0.00     0.057 C 
BRANCH  30  31
HETATM   31  C   UNK N   1      31.622  16.608   8.060  0.00  0.00     0.274 C 
BRANCH  31  32
HETATM   32  N   UNK N   1      32.781  16.717   7.173  0.00  0.00     0.091 N 
HETATM   33  C   UNK N   1      33.455  17.985   7.480  0.00  0.00     0.302 C 
HETATM   34  C   UNK N   1      34.543  17.845   8.561  0.00  0.00     0.302 C 
HETATM   35  N   UNK N   1      34.226  16.749   9.475  0.00  0.00     0.087 N 
HETATM   36  C   UNK N   1      34.244  15.467   8.765  0.00  0.00     0.302 C 
HETATM   37  C   UNK N   1      35.294  16.675  10.453  0.00  0.00     0.310 C 
HETATM   38  C   UNK N   1      33.707  15.581   7.329  0.00  0.00     0.302 C 
ENDBRANCH  31  32
ENDBRANCH  30  31
ENDBRANCH  29  30
ENDBRANCH  28  29
ENDBRANCH  10  28
TORSDOF 9
ENDMDL
MODEL 5
REMARK VINA RESULT:      -6.8      7.301     13.100
REMARK  9 active torsions:
REMARK  status: ('A' for Active; 'I' for Inactive)
REMARK    1  A    between atoms: C_3  and  N_12 
REMARK    2  A    between atoms: C_9  and  O_30 
REMARK    3  A    between atoms: C_10  and  O_13 
REMARK    4  A    between atoms: N_12  and  C_15 
REMARK    5  A    between atoms: O_13  and  C_14 
REMARK    6  A    between atoms: C_14  and  C_22 
REMARK    7  A    between atoms: C_19  and  O_33 
REMARK    8  A    between atoms: C_22  and  C_23 
REMARK    9  A    between atoms: C_23  and  N_24 
ROOT
HETATM    1  C   UNK N   1      35.619  16.460  10.557  0.00  0.00     0.113 A 
HETATM    2  C   UNK N   1      34.912  16.677   9.368  0.00  0.00     0.087 A 
HETATM    3  C   UNK N   1      34.246  15.605   8.730  0.00  0.00     0.067 A 
HETATM    4  C   UNK N   1      34.295  14.345   9.363  0.00  0.00     0.022 A 
HETATM    5  C   UNK N   1      35.060  14.162  10.535  0.00  0.00     0.047 A 
HETATM    6  N   UNK N   1      35.697  15.217  11.099  0.00  0.00    -0.364 N 
ATOM      7  HN  UNK N   1      36.245  15.076  11.948  1.00  0.00     0.165 HD
HETATM    8  C   UNK N   1      33.583  13.280   8.881  0.00  0.00     0.055 A 
HETATM    9  C   UNK N   1      33.652  12.018   9.442  0.00  0.00     0.102 A 
HETATM   10  C   UNK N   1      34.504  11.791  10.544  0.00  0.00     0.104 A 
HETATM   11  C   UNK N   1      35.175  12.885  11.108  0.00  0.00     0.070 A 
HETATM   12  C   UNK N   1      34.875  18.002   8.808  0.00  0.00     0.103 C 
HETATM   13  N   UNK N   1      34.830  19.057   8.336  0.00  0.00    -0.191 NA
ENDROOT
BRANCH   3  14
HETATM   14  N   UNK N   1      33.539  15.866   7.495  0.00  0.00    -0.353 N 
HETATM   15  H   UNK N   1      34.119  15.768   6.706  0.00  0.00     0.166 HD
BRANCH  14  16
HETATM   16  C   UNK N   1      32.187  16.239   7.138  0.00  0.00     0.057 A 
HETATM   17  C   UNK N   1      31.655  15.703   5.956  0.00  0.00     0.062 A 
HETATM   18  C   UNK N   1      30.389  16.082   5.503  0.00  0.00     0.052 A 
HETATM   19 Cl   UNK N   1      32.587  14.563   5.003  0.00  0.00    -0.082 Cl
HETATM   20  C   UNK N   1      29.614  16.985   6.227  0.00  0.00     0.069 A 
HETATM   21  C   UNK N   1      30.077  17.486   7.446  0.00  0.00     0.092 A 
HETATM   22 Cl   UNK N   1      28.051  17.477   5.594  0.00  0.00    -0.081 Cl
HETATM   23  C   UNK N   1      31.360  17.100   7.900  0.00  0.00     0.069 A 
BRANCH  21  24
HETATM   24  O   UNK N   1      29.279  18.337   8.145  0.00  0.00    -0.354 OA
HETATM   25  C   UNK N   1      29.053  18.257   9.500  0.00  0.00     0.210 C 
ENDBRANCH  21  24
ENDBRANCH  14  16
ENDBRANCH   3  14
BRANCH   9  26
HETATM   26  O   UNK N   1      32.875  11.036   8.950  0.00  0.00    -0.353 OA
HETATM   27  C   UNK N   1      33.093  10.450   7.723  0.00  0.00     0.210 C 
ENDBRANCH   9  26
BRANCH  10  28
HETATM   28  O   UNK N   1      34.682  10.558  11.089  0.00  0.00    -0.348 OA
BRANCH  28  29
HETATM   29  C   UNK N   1      35.068  10.357  12.399  0.00  0.00     0.177 C 
BRANCH  29  30
HETATM   30  C   UNK N   1      33.874  10.400  13.318  0.00  0.00     0.057 C 
BRANCH  30  31
HETATM   31  C   UNK N   1      34.336  10.813  14.707  0.00  0.00     0.274 C 
BRANCH  31  32
HETATM   32  N   UNK N   1      35.661  11.432  14.668  0.00  0.00     0.091 N 
HETATM   33  C   UNK N   1      35.477  12.879  14.839  0.00  0.00     0.302 C 
HETATM   34  C   UNK N   1      35.529  13.325  16.313  0.00  0.00     0.302 C 
HETATM   35  N   UNK N   1      35.080  12.248  17.195  0.00  0.00     0.087 N 
HETATM   36  C   UNK N   1      35.997  11.108  17.121  0.00  0.00     0.302 C 
HETATM   37  C   UNK N   1      35.165  12.739  18.557  0.00  0.00     0.310 C 
HETATM   38  C   UNK N   1      36.557  10.892  15.706  0.00  0.00     0.302 C 
ENDBRANCH  31  32
ENDBRANCH  30  31
ENDBRANCH  29  30
ENDBRANCH  28  29
ENDBRANCH  10  28
TORSDOF 9
ENDMDL
MODEL 6
REMARK VINA RESULT:      -6.8      1.881      2.396
REMARK  9 active torsions:
REMARK  status: ('A' for Active; 'I' for Inactive)
REMARK    1  A    between atoms: C_3  and  N_12 
REMARK    2  A    between atoms: C_9  and  O_30 
REMARK    3  A    between atoms: C_10  and  O_13 
REMARK    4  A    between atoms: N_12  and  C_15 
REMARK    5  A    between atoms: O_13  and  C_14 
REMARK    6  A    between atoms: C_14  and  C_22 
REMARK    7  A    between atoms: C_19  and  O_33 
REMARK    8  A    between atoms: C_22  and  C_23 
REMARK    9  A    between atoms: C_23  and  N_24 
ROOT
HETATM    1  C   UNK N   1      27.652  14.601   2.744  0.00  0.00     0.113 A 
HETATM    2  C   UNK N   1      28.860  15.207   3.111  0.00  0.00     0.087 A 
HETATM    3  C   UNK N   1      28.879  16.555   3.540  0.00  0.00     0.067 A 
HETATM    4  C   UNK N   1      27.641  17.226   3.617  0.00  0.00     0.022 A 
HETATM    5  C   UNK N   1      26.454  16.591   3.191  0.00  0.00     0.047 A 
HETATM    6  N   UNK N   1      26.490  15.303   2.770  0.00  0.00    -0.364 N 
ATOM      7  HN  UNK N   1      25.627  14.852   2.467  1.00  0.00     0.165 HD
HETATM    8  C   UNK N   1      27.550  18.491   4.133  0.00  0.00     0.055 A 
HETATM    9  C   UNK N   1      26.364  19.200   4.172  0.00  0.00     0.102 A 
HETATM   10  C   UNK N   1      25.190  18.624   3.642  0.00  0.00     0.104 A 
HETATM   11  C   UNK N   1      25.240  17.298   3.189  0.00  0.00     0.070 A 
HETATM   12  C   UNK N   1      30.076  14.440   3.044  0.00  0.00     0.103 C 
HETATM   13  N   UNK N   1      31.068  13.847   2.999  0.00  0.00    -0.191 NA
ENDROOT
BRANCH   3  14
HETATM   14  N   UNK N   1      30.149  17.149   3.896  0.00  0.00    -0.353 N 
HETATM   15  H   UNK N   1      30.590  17.576   3.126  0.00  0.00     0.166 HD
BRANCH  14  16
HETATM   16  C   UNK N   1      30.931  17.268   5.109  0.00  0.00     0.057 A 
HETATM   17  C   UNK N   1      32.328  17.247   4.987  0.00  0.00     0.062 A 
HETATM   18  C   UNK N   1      33.147  17.274   6.118  0.00  0.00     0.052 A 
HETATM   19 Cl   UNK N   1      33.077  17.158   3.403  0.00  0.00    -0.082 Cl
HETATM   20  C   UNK N   1      32.595  17.343   7.395  0.00  0.00     0.069 A 
HETATM   21  C   UNK N   1      31.211  17.439   7.557  0.00  0.00     0.092 A 
HETATM   22 Cl   UNK N   1      33.658  17.318   8.793  0.00  0.00    -0.081 Cl
HETATM   23  C   UNK N   1      30.386  17.412   6.407  0.00  0.00     0.069 A 
BRANCH  21  24
HETATM   24  O   UNK N   1      30.708  17.544   8.816  0.00  0.00    -0.354 OA
HETATM   25  C   UNK N   1      30.062  18.654   9.307  0.00  0.00     0.210 C 
ENDBRANCH  21  24
ENDBRANCH  14  16
ENDBRANCH   3  14
BRANCH   9  26
HETATM   26  O   UNK N   1      26.342  20.415   4.750  0.00  0.00    -0.353 OA
HETATM   27  C   UNK N   1      26.418  20.599   6.112  0.00  0.00     0.210 C 
ENDBRANCH   9  26
BRANCH  10  28
HETATM   28  O   UNK N   1      24.011  19.297   3.572  0.00  0.00    -0.348 OA
BRANCH  28  29
HETATM   29  C   UNK N   1      22.810  18.771   4.005  0.00  0.00     0.177 C 
BRANCH  29  30
HETATM   30  C   UNK N   1      22.928  18.274   5.423  0.00  0.00     0.057 C 
BRANCH  30  31
HETATM   31  C   UNK N   1      21.683  17.469   5.768  0.00  0.00     0.274 C 
BRANCH  31  32
HETATM   32  N   UNK N   1      21.818  16.073   5.353  0.00  0.00     0.091 N 
HETATM   33  C   UNK N   1      22.902  15.479   6.146  0.00  0.00     0.302 C 
HETATM   34  C   UNK N   1      22.410  14.836   7.456  0.00  0.00     0.302 C 
HETATM   35  N   UNK N   1      21.203  15.505   7.939  0.00  0.00     0.087 N 
HETATM   36  C   UNK N   1      20.098  15.313   6.996  0.00  0.00     0.302 C 
HETATM   37  C   UNK N   1      20.799  14.842   9.164  0.00  0.00     0.310 C 
HETATM   38  C   UNK N   1      20.565  15.318   5.531  0.00  0.00     0.302 C 
ENDBRANCH  31  32
ENDBRANCH  30  31
ENDBRANCH  29  30
ENDBRANCH  28  29
ENDBRANCH  10  28
TORSDOF 9
ENDMDL
MODEL 7
REMARK VINA RESULT:      -6.8      4.324     10.438
REMARK  9 active torsions:
REMARK  status: ('A' for Active; 'I' for Inactive)
REMARK    1  A    between atoms: C_3  and  N_12 
REMARK    2  A    between atoms: C_9  and  O_30 
REMARK    3  A    between atoms: C_10  and  O_13 
REMARK    4  A    between atoms: N_12  and  C_15 
REMARK    5  A    between atoms: O_13  and  C_14 
REMARK    6  A    between atoms: C_14  and  C_22 
REMARK    7  A    between atoms: C_19  and  O_33 
REMARK    8  A    between atoms: C_22  and  C_23 
REMARK    9  A    between atoms: C_23  and  N_24 
ROOT
HETATM    1  C   UNK N   1      31.564  14.845   3.726  0.00  0.00     0.113 A 
HETATM    2  C   UNK N   1      30.198  15.151   3.778  0.00  0.00     0.087 A 
HETATM    3  C   UNK N   1      29.651  15.775   4.923  0.00  0.00     0.067 A 
HETATM    4  C   UNK N   1      30.542  16.104   5.967  0.00  0.00     0.022 A 
HETATM    5  C   UNK N   1      31.901  15.734   5.892  0.00  0.00     0.047 A 
HETATM    6  N   UNK N   1      32.375  15.119   4.780  0.00  0.00    -0.364 N 
ATOM      7  HN  UNK N   1      33.360  14.858   4.734  1.00  0.00     0.165 HD
HETATM    8  C   UNK N   1      30.122  16.814   7.060  0.00  0.00     0.055 A 
HETATM    9  C   UNK N   1      30.952  17.106   8.127  0.00  0.00     0.102 A 
HETATM   10  C   UNK N   1      32.284  16.641   8.120  0.00  0.00     0.104 A 
HETATM   11  C   UNK N   1      32.760  15.988   6.974  0.00  0.00     0.070 A 
HETATM   12  C   UNK N   1      29.364  14.819   2.653  0.00  0.00     0.103 C 
HETATM   13  N   UNK N   1      28.671  14.563   1.763  0.00  0.00    -0.191 NA
ENDROOT
BRANCH   3  14
HETATM   14  N   UNK N   1      28.233  16.060   4.944  0.00  0.00    -0.353 N 
HETATM   15  H   UNK N   1      27.705  15.301   5.283  0.00  0.00     0.166 HD
BRANCH  14  16
HETATM   16  C   UNK N   1      27.401  17.189   4.587  0.00  0.00     0.057 A 
HETATM   17  C   UNK N   1      26.230  16.930   3.859  0.00  0.00     0.062 A 
HETATM   18  C   UNK N   1      25.421  17.975   3.407  0.00  0.00     0.052 A 
HETATM   19 Cl   UNK N   1      25.774  15.280   3.475  0.00  0.00    -0.082 Cl
HETATM   20  C   UNK N   1      25.745  19.300   3.688  0.00  0.00     0.069 A 
HETATM   21  C   UNK N   1      26.863  19.597   4.472  0.00  0.00     0.092 A 
HETATM   22 Cl   UNK N   1      24.731  20.586   3.053  0.00  0.00    -0.081 Cl
HETATM   23  C   UNK N   1      27.679  18.535   4.927  0.00  0.00     0.069 A 
BRANCH  21  24
HETATM   24  O   UNK N   1      27.129  20.899   4.758  0.00  0.00    -0.354 OA
HETATM   25  C   UNK N   1      26.982  21.469   6.001  0.00  0.00     0.210 C 
ENDBRANCH  21  24
ENDBRANCH  14  16
ENDBRANCH   3  14
BRANCH   9  26
HETATM   26  O   UNK N   1      30.484  17.861   9.137  0.00  0.00    -0.353 OA
HETATM   27  C   UNK N   1      29.198  18.349   9.176  0.00  0.00     0.210 C 
ENDBRANCH   9  26
BRANCH  10  28
HETATM   28  O   UNK N   1      33.127  16.819   9.172  0.00  0.00    -0.348 OA
BRANCH  28  29
HETATM   29  C   UNK N   1      34.458  17.157   9.029  0.00  0.00     0.177 C 
BRANCH  29  30
HETATM   30  C   UNK N   1      35.245  16.743  10.245  0.00  0.00     0.057 C 
BRANCH  30  31
HETATM   31  C   UNK N   1      34.764  15.374  10.703  0.00  0.00     0.274 C 
BRANCH  31  32
HETATM   32  N   UNK N   1      35.300  14.309   9.855  0.00  0.00     0.091 N 
HETATM   33  C   UNK N   1      36.764  14.341   9.979  0.00  0.00     0.302 C 
HETATM   34  C   UNK N   1      37.295  13.440  11.109  0.00  0.00     0.302 C 
HETATM   35  N   UNK N   1      36.303  13.309  12.176  0.00  0.00     0.087 N 
HETATM   36  C   UNK N   1      35.109  12.619  11.684  0.00  0.00     0.302 C 
HETATM   37  C   UNK N   1      36.870  12.446  13.193  0.00  0.00     0.310 C 
HETATM   38  C   UNK N   1      34.773  12.984  10.228  0.00  0.00     0.302 C 
ENDBRANCH  31  32
ENDBRANCH  30  31
ENDBRANCH  29  30
ENDBRANCH  28  29
ENDBRANCH  10  28
TORSDOF 9
ENDMDL
MODEL 8
REMARK VINA RESULT:      -6.7      4.520     10.836
REMARK  9 active torsions:
REMARK  status: ('A' for Active; 'I' for Inactive)
REMARK    1  A    between atoms: C_3  and  N_12 
REMARK    2  A    between atoms: C_9  and  O_30 
REMARK    3  A    between atoms: C_10  and  O_13 
REMARK    4  A    between atoms: N_12  and  C_15 
REMARK    5  A    between atoms: O_13  and  C_14 
REMARK    6  A    between atoms: C_14  and  C_22 
REMARK    7  A    between atoms: C_19  and  O_33 
REMARK    8  A    between atoms: C_22  and  C_23 
REMARK    9  A    between atoms: C_23  and  N_24 
ROOT
HETATM    1  C   UNK N   1      28.329  19.237   7.994  0.00  0.00     0.113 A 
HETATM    2  C   UNK N   1      27.998  18.987   6.656  0.00  0.00     0.087 A 
HETATM    3  C   UNK N   1      28.690  17.993   5.926  0.00  0.00     0.067 A 
HETATM    4  C   UNK N   1      29.677  17.255   6.613  0.00  0.00     0.022 A 
HETATM    5  C   UNK N   1      30.011  17.575   7.946  0.00  0.00     0.047 A 
HETATM    6  N   UNK N   1      29.332  18.550   8.599  0.00  0.00    -0.364 N 
ATOM      7  HN  UNK N   1      29.578  18.771   9.564  1.00  0.00     0.165 HD
HETATM    8  C   UNK N   1      30.313  16.197   6.020  0.00  0.00     0.055 A 
HETATM    9  C   UNK N   1      31.324  15.488   6.642  0.00  0.00     0.102 A 
HETATM   10  C   UNK N   1      31.751  15.870   7.932  0.00  0.00     0.104 A 
HETATM   11  C   UNK N   1      31.056  16.894   8.592  0.00  0.00     0.070 A 
HETATM   12  C   UNK N   1      26.949  19.755   6.040  0.00  0.00     0.103 C 
HETATM   13  N   UNK N   1      26.110  20.358   5.519  0.00  0.00    -0.191 NA
ENDROOT
BRANCH   3  14
HETATM   14  N   UNK N   1      28.329  17.775   4.541  0.00  0.00    -0.353 N 
HETATM   15  H   UNK N   1      28.836  18.354   3.928  0.00  0.00     0.166 HD
BRANCH  14  16
HETATM   16  C   UNK N   1      27.402  16.913   3.839  0.00  0.00     0.057 A 
HETATM   17  C   UNK N   1      27.926  16.046   2.869  0.00  0.00     0.062 A 
HETATM   18  C   UNK N   1      27.085  15.246   2.093  0.00  0.00     0.052 A 
HETATM   19 Cl   UNK N   1      29.657  15.972   2.592  0.00  0.00    -0.082 Cl
HETATM   20  C   UNK N   1      25.705  15.273   2.279  0.00  0.00     0.069 A 
HETATM   21  C   UNK N   1      25.148  16.069   3.283  0.00  0.00     0.092 A 
HETATM   22 Cl   UNK N   1      24.679  14.293   1.243  0.00  0.00    -0.081 Cl
HETATM   23  C   UNK N   1      26.005  16.878   4.066  0.00  0.00     0.069 A 
BRANCH  21  24
HETATM   24  O   UNK N   1      23.800  16.043   3.461  0.00  0.00    -0.354 OA
HETATM   25  C   UNK N   1      23.165  15.423   4.512  0.00  0.00     0.210 C 
ENDBRANCH  21  24
ENDBRANCH  14  16
ENDBRANCH   3  14
BRANCH   9  26
HETATM   26  O   UNK N   1      31.859  14.422   6.021  0.00  0.00    -0.353 OA
HETATM   27  C   UNK N   1      32.807  14.529   5.028  0.00  0.00     0.210 C 
ENDBRANCH   9  26
BRANCH  10  28
HETATM   28  O   UNK N   1      32.794  15.271   8.565  0.00  0.00    -0.348 OA
BRANCH  28  29
HETATM   29  C   UNK N   1      34.109  15.647   8.383  0.00  0.00     0.177 C 
BRANCH  29  30
HETATM   30  C   UNK N   1      34.619  16.399   9.586  0.00  0.00     0.057 C 
BRANCH  30  31
HETATM   31  C   UNK N   1      34.637  15.461  10.783  0.00  0.00     0.274 C 
BRANCH  31  32
HETATM   32  N   UNK N   1      36.003  15.205  11.240  0.00  0.00     0.091 N 
HETATM   33  C   UNK N   1      35.956  15.036  12.699  0.00  0.00     0.302 C 
HETATM   34  C   UNK N   1      35.747  13.573  13.131  0.00  0.00     0.302 C 
HETATM   35  N   UNK N   1      35.000  12.834  12.114  0.00  0.00     0.087 N 
HETATM   36  C   UNK N   1      35.773  12.746  10.873  0.00  0.00     0.302 C 
HETATM   37  C   UNK N   1      34.851  11.472  12.587  0.00  0.00     0.310 C 
HETATM   38  C   UNK N   1      36.591  14.017  10.595  0.00  0.00     0.302 C 
ENDBRANCH  31  32
ENDBRANCH  30  31
ENDBRANCH  29  30
ENDBRANCH  28  29
ENDBRANCH  10  28
TORSDOF 9
ENDMDL
MODEL 9
REMARK VINA RESULT:      -6.6      2.139      4.007
REMARK  9 active torsions:
REMARK  status: ('A' for Active; 'I' for Inactive)
REMARK    1  A    between atoms: C_3  and  N_12 
REMARK    2  A    between atoms: C_9  and  O_30 
REMARK    3  A    between atoms: C_10  and  O_13 
REMARK    4  A    between atoms: N_12  and  C_15 
REMARK    5  A    between atoms: O_13  and  C_14 
REMARK    6  A    between atoms: C_14  and  C_22 
REMARK    7  A    between atoms: C_19  and  O_33 
REMARK    8  A    between atoms: C_22  and  C_23 
REMARK    9  A    between atoms: C_23  and  N_24 
ROOT
HETATM    1  C   UNK N   1      25.085  19.536   4.787  0.00  0.00     0.113 A 
HETATM    2  C   UNK N   1      26.478  19.466   4.921  0.00  0.00     0.087 A 
HETATM    3  C   UNK N   1      27.184  18.341   4.436  0.00  0.00     0.067 A 
HETATM    4  C   UNK N   1      26.433  17.336   3.789  0.00  0.00     0.022 A 
HETATM    5  C   UNK N   1      25.027  17.425   3.721  0.00  0.00     0.047 A 
HETATM    6  N   UNK N   1      24.393  18.516   4.217  0.00  0.00    -0.364 N 
ATOM      7  HN  UNK N   1      23.376  18.573   4.160  1.00  0.00     0.165 HD
HETATM    8  C   UNK N   1      27.046  16.270   3.186  0.00  0.00     0.055 A 
HETATM    9  C   UNK N   1      26.341  15.240   2.592  0.00  0.00     0.102 A 
HETATM   10  C   UNK N   1      24.930  15.255   2.619  0.00  0.00     0.104 A 
HETATM   11  C   UNK N   1      24.282  16.378   3.153  0.00  0.00     0.070 A 
HETATM   12  C   UNK N   1      27.174  20.553   5.557  0.00  0.00     0.103 C 
HETATM   13  N   UNK N   1      27.759  21.413   6.064  0.00  0.00    -0.191 NA
ENDROOT
BRANCH   3  14
HETATM   14  N   UNK N   1      28.620  18.300   4.606  0.00  0.00    -0.353 N 
HETATM   15  H   UNK N   1      29.096  18.746   3.870  0.00  0.00     0.166 HD
BRANCH  14  16
HETATM   16  C   UNK N   1      29.528  17.759   5.596  0.00  0.00     0.057 A 
HETATM   17  C   UNK N   1      30.620  17.009   5.136  0.00  0.00     0.062 A 
HETATM   18  C   UNK N   1      31.491  16.386   6.033  0.00  0.00     0.052 A 
HETATM   19 Cl   UNK N   1      30.897  16.813   3.415  0.00  0.00    -0.082 Cl
HETATM   20  C   UNK N   1      31.308  16.514   7.408  0.00  0.00     0.069 A 
HETATM   21  C   UNK N   1      30.276  17.312   7.907  0.00  0.00     0.092 A 
HETATM   22 Cl   UNK N   1      32.393  15.669   8.501  0.00  0.00    -0.081 Cl
HETATM   23  C   UNK N   1      29.396  17.940   6.994  0.00  0.00     0.069 A 
BRANCH  21  24
HETATM   24  O   UNK N   1      30.149  17.444   9.255  0.00  0.00    -0.354 OA
HETATM   25  C   UNK N   1      29.689  18.577   9.886  0.00  0.00     0.210 C 
ENDBRANCH  21  24
ENDBRANCH  14  16
ENDBRANCH   3  14
BRANCH   9  26
HETATM   26  O   UNK N   1      27.014  14.257   1.966  0.00  0.00    -0.353 OA
HETATM   27  C   UNK N   1      28.387  14.225   1.881  0.00  0.00     0.210 C 
ENDBRANCH   9  26
BRANCH  10  28
HETATM   28  O   UNK N   1      24.178  14.234   2.129  0.00  0.00    -0.348 OA
BRANCH  28  29
HETATM   29  C   UNK N   1      23.718  14.187   0.829  0.00  0.00     0.177 C 
BRANCH  29  30
HETATM   30  C   UNK N   1      22.309  13.654   0.782  0.00  0.00     0.057 C 
BRANCH  30  31
HETATM   31  C   UNK N   1      21.614  13.979   2.096  0.00  0.00     0.274 C 
BRANCH  31  32
HETATM   32  N   UNK N   1      20.200  14.292   1.889  0.00  0.00     0.091 N 
HETATM   33  C   UNK N   1      19.567  14.372   3.212  0.00  0.00     0.302 C 
HETATM   34  C   UNK N   1      19.592  15.791   3.809  0.00  0.00     0.302 C 
HETATM   35  N   UNK N   1      20.747  16.540   3.316  0.00  0.00     0.087 N 
HETATM   36  C   UNK N   1      20.643  16.750   1.870  0.00  0.00     0.302 C 
HETATM   37  C   UNK N   1      20.696  17.860   3.913  0.00  0.00     0.310 C 
HETATM   38  C   UNK N   1      20.014  15.550   1.143  0.00  0.00     0.302 C 
ENDBRANCH  31  32
ENDBRANCH  30  31
ENDBRANCH  29  30
ENDBRANCH  28  29
ENDBRANCH  10  28
TORSDOF 9
ENDMDL
