MODEL 1
REMARK VINA RESULT:      -7.6      0.000      0.000
REMARK  9 active torsions:
REMARK  status: ('A' for Active; 'I' for Inactive)
REMARK    1  A    between atoms: C_2  and  C_3 
REMARK    2  A    between atoms: C_3  and  C_4 
REMARK    3  A    between atoms: C_4  and  O_6 
REMARK    4  A    between atoms: C_7  and  O_6 
REMARK    5  A    between atoms: C_7  and  C_30 
REMARK    6  A    between atoms: C_13  and  O_28 
REMARK    7  A    between atoms: C_30  and  C_32 
REMARK    8  A    between atoms: C_32  and  O_33 
REMARK    9  A    between atoms: O_33  and  C_34 
ROOT
HETATM    1  C   UNK N   1      21.692  17.252   4.429  0.00  0.00     0.140 C 
HETATM    2  C   UNK N   1      21.488  18.100   5.679  0.00  0.00     0.048 C 
HETATM    3  C   UNK N   1      20.906  17.158   6.745  0.00  0.00     0.009 C 
HETATM    4  C   UNK N   1      21.221  15.723   6.298  0.00  0.00     0.005 C 
HETATM    5  C   UNK N   1      22.126  15.895   5.060  0.00  0.00     0.002 C 
HETATM    6  C   UNK N   1      23.588  16.007   5.537  0.00  0.00     0.048 C 
HETATM    7  C   UNK N   1      24.075  14.821   6.369  0.00  0.00     0.160 C 
HETATM    8  C   UNK N   1      22.972  13.965   7.047  0.00  0.00     0.147 C 
HETATM    9  C   UNK N   1      21.813  14.881   7.486  0.00  0.00     0.037 C 
HETATM   10  C   UNK N   1      20.700  13.982   8.049  0.00  0.00     0.050 C 
HETATM   11  C   UNK N   1      21.097  13.184   9.285  0.00  0.00     0.201 C 
HETATM   12  C   UNK N   1      22.560  12.811   9.353  0.00  0.00    -0.027 C 
HETATM   13  C   UNK N   1      23.014  12.279  10.508  0.00  0.00     0.061 C 
HETATM   14  C   UNK N   1      24.468  12.296  10.778  0.00  0.00     0.172 C 
HETATM   15  O   UNK N   1      24.941  11.664  11.708  0.00  0.00    -0.289 OA
HETATM   16  C   UNK N   1      25.277  13.304  10.053  0.00  0.00     0.052 C 
HETATM   17  C   UNK N   1      24.769  13.840   8.926  0.00  0.00    -0.006 C 
HETATM   18  C   UNK N   1      23.578  13.162   8.254  0.00  0.00     0.039 C 
HETATM   19  C   UNK N   1      24.146  11.848   7.699  0.00  0.00     0.028 C 
HETATM   20  F   UNK N   1      20.781  13.960  10.388  0.00  0.00    -0.245 F 
HETATM   21  F   UNK N   1      22.437  13.068   6.127  0.00  0.00    -0.238 F 
HETATM   22  C   UNK N   1      22.033  14.729   4.074  0.00  0.00     0.019 C 
ENDROOT
BRANCH   1  23
HETATM   23  O   UNK N   1      22.742  17.776   3.677  0.00  0.00    -0.301 OA
BRANCH  23  24
HETATM   24  C   UNK N   1      23.210  19.056   3.769  0.00  0.00     0.260 C 
HETATM   25  O   UNK N   1      22.535  20.003   3.413  0.00  0.00    -0.265 OA
BRANCH  24  26
HETATM   26  C   UNK N   1      24.620  19.275   4.215  0.00  0.00     0.111 C 
BRANCH  26  27
HETATM   27  C   UNK N   1      25.347  20.245   3.309  0.00  0.00     0.005 C 
HETATM   28  C   UNK N   1      26.825  20.205   3.639  0.00  0.00     0.005 C 
ENDBRANCH  26  27
ENDBRANCH  24  26
ENDBRANCH  23  24
ENDBRANCH   1  23
BRANCH   1  29
HETATM   29  C   UNK N   1      20.390  17.348   3.621  0.00  0.00     0.186 C 
HETATM   30  O   UNK N   1      19.331  17.227   4.218  0.00  0.00    -0.292 OA
BRANCH  29  31
HETATM   31  C   UNK N   1      20.324  17.607   2.141  0.00  0.00     0.260 C 
BRANCH  31  32
HETATM   32  O   UNK N   1      20.763  16.516   1.417  0.00  0.00    -0.314 OA
BRANCH  32  33
HETATM   33  C   UNK N   1      19.949  15.675   0.728  0.00  0.00     0.255 C 
HETATM   34  O   UNK N   1      20.056  14.462   0.839  0.00  0.00    -0.266 OA
HETATM   35  C   UNK N   1      18.923  16.240  -0.190  0.00  0.00     0.126 C 
ENDBRANCH  32  33
ENDBRANCH  31  32
ENDBRANCH  29  31
ENDBRANCH   1  29
BRANCH   7  36
HETATM   36  O   UNK N   1      24.986  14.041   5.658  0.00  0.00    -0.392 OA
HETATM   37  H   UNK N   1      25.688  13.448   5.972  0.00  0.00     0.210 HD
ENDBRANCH   7  36
TORSDOF 9
ENDMDL
MODEL 2
REMARK VINA RESULT:      -7.4     10.189     13.184
REMARK  9 active torsions:
REMARK  status: ('A' for Active; 'I' for Inactive)
REMARK    1  A    between atoms: C_2  and  C_3 
REMARK    2  A    between atoms: C_3  and  C_4 
REMARK    3  A    between atoms: C_4  and  O_6 
REMARK    4  A    between atoms: C_7  and  O_6 
REMARK    5  A    between atoms: C_7  and  C_30 
REMARK    6  A    between atoms: C_13  and  O_28 
REMARK    7  A    between atoms: C_30  and  C_32 
REMARK    8  A    between atoms: C_32  and  O_33 
REMARK    9  A    between atoms: O_33  and  C_34 
ROOT
HETATM    1  C   UNK N   1      34.825  15.070   8.113  0.00  0.00     0.140 C 
HETATM    2  C   UNK N   1      33.376  14.608   8.234  0.00  0.00     0.048 C 
HETATM    3  C   UNK N   1      33.433  13.133   8.661  0.00  0.00     0.009 C 
HETATM    4  C   UNK N   1      34.831  12.885   9.245  0.00  0.00     0.005 C 
HETATM    5  C   UNK N   1      35.484  14.282   9.285  0.00  0.00     0.002 C 
HETATM    6  C   UNK N   1      35.109  14.958  10.619  0.00  0.00     0.048 C 
HETATM    7  C   UNK N   1      35.511  14.167  11.863  0.00  0.00     0.160 C 
HETATM    8  C   UNK N   1      35.740  12.645  11.660  0.00  0.00     0.147 C 
HETATM    9  C   UNK N   1      34.741  12.115  10.612  0.00  0.00     0.037 C 
HETATM   10  C   UNK N   1      35.076  10.636  10.362  0.00  0.00     0.050 C 
HETATM   11  C   UNK N   1      34.920   9.737  11.583  0.00  0.00     0.201 C 
HETATM   12  C   UNK N   1      35.179  10.419  12.906  0.00  0.00    -0.027 C 
HETATM   13  C   UNK N   1      34.869   9.737  14.029  0.00  0.00     0.061 C 
HETATM   14  C   UNK N   1      34.698  10.486  15.294  0.00  0.00     0.172 C 
HETATM   15  O   UNK N   1      34.608   9.903  16.361  0.00  0.00    -0.289 OA
HETATM   16  C   UNK N   1      34.378  11.930  15.185  0.00  0.00     0.052 C 
HETATM   17  C   UNK N   1      34.669  12.563  14.031  0.00  0.00    -0.006 C 
HETATM   18  C   UNK N   1      35.607  11.892  13.033  0.00  0.00     0.039 C 
HETATM   19  C   UNK N   1      36.983  11.927  13.716  0.00  0.00     0.028 C 
HETATM   20  F   UNK N   1      33.620   9.260  11.572  0.00  0.00    -0.245 F 
HETATM   21  F   UNK N   1      37.011  12.423  11.140  0.00  0.00    -0.238 F 
HETATM   22  C   UNK N   1      37.010  14.241   9.182  0.00  0.00     0.019 C 
ENDROOT
BRANCH   1  23
HETATM   23  O   UNK N   1      34.900  16.438   8.367  0.00  0.00    -0.301 OA
BRANCH  23  24
HETATM   24  C   UNK N   1      34.130  17.391   7.763  0.00  0.00     0.260 C 
HETATM   25  O   UNK N   1      34.467  17.901   6.711  0.00  0.00    -0.265 OA
BRANCH  24  26
HETATM   26  C   UNK N   1      32.912  17.887   8.474  0.00  0.00     0.111 C 
BRANCH  26  27
HETATM   27  C   UNK N   1      31.651  17.593   7.690  0.00  0.00     0.005 C 
HETATM   28  C   UNK N   1      30.453  17.941   8.549  0.00  0.00     0.005 C 
ENDBRANCH  26  27
ENDBRANCH  24  26
ENDBRANCH  23  24
ENDBRANCH   1  23
BRANCH   1  29
HETATM   29  C   UNK N   1      35.248  14.797   6.664  0.00  0.00     0.186 C 
HETATM   30  O   UNK N   1      36.396  15.062   6.338  0.00  0.00    -0.292 OA
BRANCH  29  31
HETATM   31  C   UNK N   1      34.351  14.201   5.613  0.00  0.00     0.260 C 
BRANCH  31  32
HETATM   32  O   UNK N   1      34.050  15.118   4.625  0.00  0.00    -0.314 OA
BRANCH  32  33
HETATM   33  C   UNK N   1      32.855  15.751   4.504  0.00  0.00     0.255 C 
HETATM   34  O   UNK N   1      31.835  15.268   4.975  0.00  0.00    -0.266 OA
HETATM   35  C   UNK N   1      32.783  17.045   3.772  0.00  0.00     0.126 C 
ENDBRANCH  32  33
ENDBRANCH  31  32
ENDBRANCH  29  31
ENDBRANCH   1  29
BRANCH   7  36
HETATM   36  O   UNK N   1      36.572  14.776  12.533  0.00  0.00    -0.392 OA
HETATM   37  H   UNK N   1      37.459  14.441  12.744  0.00  0.00     0.210 HD
ENDBRANCH   7  36
TORSDOF 9
ENDMDL
MODEL 3
REMARK VINA RESULT:      -7.4      3.561      6.982
REMARK  9 active torsions:
REMARK  status: ('A' for Active; 'I' for Inactive)
REMARK    1  A    between atoms: C_2  and  C_3 
REMARK    2  A    between atoms: C_3  and  C_4 
REMARK    3  A    between atoms: C_4  and  O_6 
REMARK    4  A    between atoms: C_7  and  O_6 
REMARK    5  A    between atoms: C_7  and  C_30 
REMARK    6  A    between atoms: C_13  and  O_28 
REMARK    7  A    between atoms: C_30  and  C_32 
REMARK    8  A    between atoms: C_32  and  O_33 
REMARK    9  A    between atoms: O_33  and  C_34 
ROOT
HETATM    1  C   UNK N   1      21.692  14.523   6.856  0.00  0.00     0.140 C 
HETATM    2  C   UNK N   1      21.899  13.035   6.594  0.00  0.00     0.048 C 
HETATM    3  C   UNK N   1      22.477  12.928   5.174  0.00  0.00     0.009 C 
HETATM    4  C   UNK N   1      23.048  14.306   4.814  0.00  0.00     0.005 C 
HETATM    5  C   UNK N   1      22.923  15.126   6.115  0.00  0.00     0.002 C 
HETATM    6  C   UNK N   1      24.188  14.888   6.964  0.00  0.00     0.048 C 
HETATM    7  C   UNK N   1      25.498  15.238   6.259  0.00  0.00     0.160 C 
HETATM    8  C   UNK N   1      25.450  15.272   4.708  0.00  0.00     0.147 C 
HETATM    9  C   UNK N   1      24.490  14.177   4.204  0.00  0.00     0.037 C 
HETATM   10  C   UNK N   1      24.389  14.319   2.677  0.00  0.00     0.050 C 
HETATM   11  C   UNK N   1      25.701  14.103   1.933  0.00  0.00     0.201 C 
HETATM   12  C   UNK N   1      26.938  14.494   2.708  0.00  0.00    -0.027 C 
HETATM   13  C   UNK N   1      28.134  14.146   2.188  0.00  0.00     0.061 C 
HETATM   14  C   UNK N   1      29.317  14.117   3.076  0.00  0.00     0.172 C 
HETATM   15  O   UNK N   1      30.442  13.998   2.620  0.00  0.00    -0.289 OA
HETATM   16  C   UNK N   1      29.065  13.971   4.530  0.00  0.00     0.052 C 
HETATM   17  C   UNK N   1      27.844  14.292   5.001  0.00  0.00    -0.006 C 
HETATM   18  C   UNK N   1      26.898  15.102   4.121  0.00  0.00     0.039 C 
HETATM   19  C   UNK N   1      27.537  16.497   4.052  0.00  0.00     0.028 C 
HETATM   20  F   UNK N   1      25.774  12.755   1.623  0.00  0.00    -0.245 F 
HETATM   21  F   UNK N   1      24.924  16.486   4.278  0.00  0.00    -0.238 F 
HETATM   22  C   UNK N   1      22.786  16.631   5.874  0.00  0.00     0.019 C 
ENDROOT
BRANCH   1  23
HETATM   23  O   UNK N   1      21.799  14.773   8.223  0.00  0.00    -0.301 OA
BRANCH  23  24
HETATM   24  C   UNK N   1      21.431  13.905   9.211  0.00  0.00     0.260 C 
HETATM   25  O   UNK N   1      20.262  13.749   9.511  0.00  0.00    -0.265 OA
BRANCH  24  26
HETATM   26  C   UNK N   1      22.499  13.223  10.003  0.00  0.00     0.111 C 
BRANCH  26  27
HETATM   27  C   UNK N   1      21.924  12.167  10.921  0.00  0.00     0.005 C 
HETATM   28  C   UNK N   1      22.863  11.980  12.095  0.00  0.00     0.005 C 
ENDBRANCH  26  27
ENDBRANCH  24  26
ENDBRANCH  23  24
ENDBRANCH   1  23
BRANCH   1  29
HETATM   29  C   UNK N   1      20.269  14.853   6.387  0.00  0.00     0.186 C 
HETATM   30  O   UNK N   1      19.611  13.963   5.869  0.00  0.00    -0.292 OA
BRANCH  29  31
HETATM   31  C   UNK N   1      19.612  16.197   6.544  0.00  0.00     0.260 C 
BRANCH  31  32
HETATM   32  O   UNK N   1      18.815  16.242   7.672  0.00  0.00    -0.314 OA
BRANCH  32  33
HETATM   33  C   UNK N   1      19.006  17.094   8.712  0.00  0.00     0.255 C 
HETATM   34  O   UNK N   1      20.113  17.548   8.961  0.00  0.00    -0.266 OA
HETATM   35  C   UNK N   1      17.850  17.467   9.572  0.00  0.00     0.126 C 
ENDBRANCH  32  33
ENDBRANCH  31  32
ENDBRANCH  29  31
ENDBRANCH   1  29
BRANCH   7  36
HETATM   36  O   UNK N   1      26.072  16.391   6.795  0.00  0.00    -0.392 OA
HETATM   37  H   UNK N   1      27.004  16.644   6.894  0.00  0.00     0.210 HD
ENDBRANCH   7  36
TORSDOF 9
ENDMDL
MODEL 4
REMARK VINA RESULT:      -7.4     14.341     16.531
REMARK  9 active torsions:
REMARK  status: ('A' for Active; 'I' for Inactive)
REMARK    1  A    between atoms: C_2  and  C_3 
REMARK    2  A    between atoms: C_3  and  C_4 
REMARK    3  A    between atoms: C_4  and  O_6 
REMARK    4  A    between atoms: C_7  and  O_6 
REMARK    5  A    between atoms: C_7  and  C_30 
REMARK    6  A    between atoms: C_13  and  O_28 
REMARK    7  A    between atoms: C_30  and  C_32 
REMARK    8  A    between atoms: C_32  and  O_33 
REMARK    9  A    between atoms: O_33  and  C_34 
ROOT
HETATM    1  C   UNK N   1      28.561  24.276  -5.785  0.00  0.00     0.140 C 
HETATM    2  C   UNK N   1      29.093  24.166  -7.211  0.00  0.00     0.048 C 
HETATM    3  C   UNK N   1      30.610  24.394  -7.119  0.00  0.00     0.009 C 
HETATM    4  C   UNK N   1      31.015  24.152  -5.658  0.00  0.00     0.005 C 
HETATM    5  C   UNK N   1      29.730  23.628  -4.984  0.00  0.00     0.002 C 
HETATM    6  C   UNK N   1      29.675  22.098  -5.162  0.00  0.00     0.048 C 
HETATM    7  C   UNK N   1      30.888  21.353  -4.606  0.00  0.00     0.160 C 
HETATM    8  C   UNK N   1      32.182  22.191  -4.431  0.00  0.00     0.147 C 
HETATM    9  C   UNK N   1      32.280  23.223  -5.572  0.00  0.00     0.037 C 
HETATM   10  C   UNK N   1      33.512  24.100  -5.297  0.00  0.00     0.050 C 
HETATM   11  C   UNK N   1      34.837  23.346  -5.298  0.00  0.00     0.201 C 
HETATM   12  C   UNK N   1      34.744  21.907  -4.850  0.00  0.00    -0.027 C 
HETATM   13  C   UNK N   1      35.838  21.132  -5.014  0.00  0.00     0.061 C 
HETATM   14  C   UNK N   1      35.679  19.661  -4.998  0.00  0.00     0.172 C 
HETATM   15  O   UNK N   1      36.651  18.926  -4.950  0.00  0.00    -0.289 OA
HETATM   16  C   UNK N   1      34.332  19.125  -5.307  0.00  0.00     0.052 C 
HETATM   17  C   UNK N   1      33.272  19.945  -5.168  0.00  0.00    -0.006 C 
HETATM   18  C   UNK N   1      33.436  21.244  -4.385  0.00  0.00     0.039 C 
HETATM   19  C   UNK N   1      33.625  20.794  -2.929  0.00  0.00     0.028 C 
HETATM   20  F   UNK N   1      35.323  23.382  -6.594  0.00  0.00    -0.245 F 
HETATM   21  F   UNK N   1      32.118  22.918  -3.247  0.00  0.00    -0.238 F 
HETATM   22  C   UNK N   1      29.661  23.938  -3.487  0.00  0.00     0.019 C 
ENDROOT
BRANCH   1  23
HETATM   23  O   UNK N   1      27.414  23.495  -5.655  0.00  0.00    -0.301 OA
BRANCH  23  24
HETATM   24  C   UNK N   1      26.418  23.403  -6.584  0.00  0.00     0.260 C 
HETATM   25  O   UNK N   1      25.555  24.256  -6.672  0.00  0.00    -0.265 OA
BRANCH  24  26
HETATM   26  C   UNK N   1      26.334  22.172  -7.429  0.00  0.00     0.111 C 
BRANCH  26  27
HETATM   27  C   UNK N   1      24.903  21.841  -7.792  0.00  0.00     0.005 C 
HETATM   28  C   UNK N   1      24.300  21.008  -6.679  0.00  0.00     0.005 C 
ENDBRANCH  26  27
ENDBRANCH  24  26
ENDBRANCH  23  24
ENDBRANCH   1  23
BRANCH   1  29
HETATM   29  C   UNK N   1      28.199  25.751  -5.569  0.00  0.00     0.186 C 
HETATM   30  O   UNK N   1      28.151  26.483  -6.548  0.00  0.00    -0.292 OA
BRANCH  29  31
HETATM   31  C   UNK N   1      27.872  26.361  -4.234  0.00  0.00     0.260 C 
BRANCH  31  32
HETATM   32  O   UNK N   1      26.527  26.248  -3.942  0.00  0.00    -0.314 OA
BRANCH  32  33
HETATM   33  C   UNK N   1      25.628  27.259  -4.065  0.00  0.00     0.255 C 
HETATM   34  O   UNK N   1      25.409  28.024  -3.137  0.00  0.00    -0.266 OA
HETATM   35  C   UNK N   1      24.885  27.426  -5.344  0.00  0.00     0.126 C 
ENDBRANCH  32  33
ENDBRANCH  31  32
ENDBRANCH  29  31
ENDBRANCH   1  29
BRANCH   7  36
HETATM   36  O   UNK N   1      30.562  20.638  -3.453  0.00  0.00    -0.392 OA
HETATM   37  H   UNK N   1      30.125  20.926  -2.635  0.00  0.00     0.210 HD
ENDBRANCH   7  36
TORSDOF 9
ENDMDL
MODEL 5
REMARK VINA RESULT:      -7.3      6.480     10.397
REMARK  9 active torsions:
REMARK  status: ('A' for Active; 'I' for Inactive)
REMARK    1  A    between atoms: C_2  and  C_3 
REMARK    2  A    between atoms: C_3  and  C_4 
REMARK    3  A    between atoms: C_4  and  O_6 
REMARK    4  A    between atoms: C_7  and  O_6 
REMARK    5  A    between atoms: C_7  and  C_30 
REMARK    6  A    between atoms: C_13  and  O_28 
REMARK    7  A    between atoms: C_30  and  C_32 
REMARK    8  A    between atoms: C_32  and  O_33 
REMARK    9  A    between atoms: O_33  and  C_34 
ROOT
HETATM    1  C   UNK N   1      31.653  15.794   5.724  0.00  0.00     0.140 C 
HETATM    2  C   UNK N   1      31.271  16.302   7.110  0.00  0.00     0.048 C 
HETATM    3  C   UNK N   1      30.420  17.561   6.885  0.00  0.00     0.009 C 
HETATM    4  C   UNK N   1      29.912  17.510   5.437  0.00  0.00     0.005 C 
HETATM    5  C   UNK N   1      30.358  16.126   4.922  0.00  0.00     0.002 C 
HETATM    6  C   UNK N   1      29.267  15.098   5.281  0.00  0.00     0.048 C 
HETATM    7  C   UNK N   1      27.880  15.429   4.730  0.00  0.00     0.160 C 
HETATM    8  C   UNK N   1      27.628  16.917   4.367  0.00  0.00     0.147 C 
HETATM    9  C   UNK N   1      28.373  17.820   5.370  0.00  0.00     0.037 C 
HETATM   10  C   UNK N   1      28.188  19.274   4.908  0.00  0.00     0.050 C 
HETATM   11  C   UNK N   1      26.742  19.756   4.902  0.00  0.00     0.201 C 
HETATM   12  C   UNK N   1      25.718  18.678   4.632  0.00  0.00    -0.027 C 
HETATM   13  C   UNK N   1      24.418  18.997   4.807  0.00  0.00     0.061 C 
HETATM   14  C   UNK N   1      23.433  17.906   4.974  0.00  0.00     0.172 C 
HETATM   15  O   UNK N   1      22.235  18.133   4.944  0.00  0.00    -0.289 OA
HETATM   16  C   UNK N   1      23.949  16.596   5.439  0.00  0.00     0.052 C 
HETATM   17  C   UNK N   1      25.262  16.335   5.282  0.00  0.00    -0.006 C 
HETATM   18  C   UNK N   1      26.085  17.212   4.343  0.00  0.00     0.039 C 
HETATM   19  C   UNK N   1      25.568  16.864   2.940  0.00  0.00     0.028 C 
HETATM   20  F   UNK N   1      26.494  20.308   6.147  0.00  0.00    -0.245 F 
HETATM   21  F   UNK N   1      28.164  17.195   3.114  0.00  0.00    -0.238 F 
HETATM   22  C   UNK N   1      30.576  16.083   3.408  0.00  0.00     0.019 C 
ENDROOT
BRANCH   1  23
HETATM   23  O   UNK N   1      31.836  14.414   5.767  0.00  0.00    -0.301 OA
BRANCH  23  24
HETATM   24  C   UNK N   1      32.815  13.730   5.104  0.00  0.00     0.260 C 
HETATM   25  O   UNK N   1      32.812  13.642   3.891  0.00  0.00    -0.265 OA
BRANCH  24  26
HETATM   26  C   UNK N   1      33.841  12.991   5.901  0.00  0.00     0.111 C 
BRANCH  26  27
HETATM   27  C   UNK N   1      33.447  12.888   7.359  0.00  0.00     0.005 C 
HETATM   28  C   UNK N   1      34.585  13.416   8.208  0.00  0.00     0.005 C 
ENDBRANCH  26  27
ENDBRANCH  24  26
ENDBRANCH  23  24
ENDBRANCH   1  23
BRANCH   1  29
HETATM   29  C   UNK N   1      32.981  16.473   5.363  0.00  0.00     0.186 C 
HETATM   30  O   UNK N   1      33.079  17.002   4.266  0.00  0.00    -0.292 OA
BRANCH  29  31
HETATM   31  C   UNK N   1      34.170  16.555   6.280  0.00  0.00     0.260 C 
BRANCH  31  32
HETATM   32  O   UNK N   1      34.388  17.849   6.712  0.00  0.00    -0.314 OA
BRANCH  32  33
HETATM   33  C   UNK N   1      34.561  18.206   8.011  0.00  0.00     0.255 C 
HETATM   34  O   UNK N   1      34.940  19.329   8.312  0.00  0.00    -0.266 OA
HETATM   35  C   UNK N   1      34.302  17.207   9.084  0.00  0.00     0.126 C 
ENDBRANCH  32  33
ENDBRANCH  31  32
ENDBRANCH  29  31
ENDBRANCH   1  29
BRANCH   7  36
HETATM   36  O   UNK N   1      27.524  14.565   3.695  0.00  0.00    -0.392 OA
HETATM   37  H   UNK N   1      27.008  14.727   2.888  0.00  0.00     0.210 HD
ENDBRANCH   7  36
TORSDOF 9
ENDMDL
MODEL 6
REMARK VINA RESULT:      -7.2      5.119      7.464
REMARK  9 active torsions:
REMARK  status: ('A' for Active; 'I' for Inactive)
REMARK    1  A    between atoms: C_2  and  C_3 
REMARK    2  A    between atoms: C_3  and  C_4 
REMARK    3  A    between atoms: C_4  and  O_6 
REMARK    4  A    between atoms: C_7  and  O_6 
REMARK    5  A    between atoms: C_7  and  C_30 
REMARK    6  A    between atoms: C_13  and  O_28 
REMARK    7  A    between atoms: C_30  and  C_32 
REMARK    8  A    between atoms: C_32  and  O_33 
REMARK    9  A    between atoms: O_33  and  C_34 
ROOT
HETATM    1  C   UNK N   1      25.621  16.014   3.505  0.00  0.00     0.140 C 
HETATM    2  C   UNK N   1      25.673  17.536   3.599  0.00  0.00     0.048 C 
HETATM    3  C   UNK N   1      26.356  17.857   4.938  0.00  0.00     0.009 C 
HETATM    4  C   UNK N   1      27.113  16.594   5.373  0.00  0.00     0.005 C 
HETATM    5  C   UNK N   1      26.973  15.630   4.176  0.00  0.00     0.002 C 
HETATM    6  C   UNK N   1      28.123  15.910   3.188  0.00  0.00     0.048 C 
HETATM    7  C   UNK N   1      29.521  15.781   3.791  0.00  0.00     0.160 C 
HETATM    8  C   UNK N   1      29.613  15.909   5.335  0.00  0.00     0.147 C 
HETATM    9  C   UNK N   1      28.578  16.943   5.823  0.00  0.00     0.037 C 
HETATM   10  C   UNK N   1      28.627  16.956   7.359  0.00  0.00     0.050 C 
HETATM   11  C   UNK N   1      29.965  17.391   7.945  0.00  0.00     0.201 C 
HETATM   12  C   UNK N   1      31.166  17.054   7.094  0.00  0.00    -0.027 C 
HETATM   13  C   UNK N   1      32.355  17.582   7.458  0.00  0.00     0.061 C 
HETATM   14  C   UNK N   1      33.444  17.642   6.459  0.00  0.00     0.172 C 
HETATM   15  O   UNK N   1      34.582  17.931   6.789  0.00  0.00    -0.289 OA
HETATM   16  C   UNK N   1      33.052  17.603   5.030  0.00  0.00     0.052 C 
HETATM   17  C   UNK N   1      31.840  17.104   4.714  0.00  0.00    -0.006 C 
HETATM   18  C   UNK N   1      31.076  16.296   5.758  0.00  0.00     0.039 C 
HETATM   19  C   UNK N   1      31.877  14.994   5.899  0.00  0.00     0.028 C 
HETATM   20  F   UNK N   1      29.906  18.764   8.114  0.00  0.00    -0.245 F 
HETATM   21  F   UNK N   1      29.271  14.700   5.931  0.00  0.00    -0.238 F 
HETATM   22  C   UNK N   1      27.035  14.155   4.575  0.00  0.00     0.019 C 
ENDROOT
BRANCH   1  23
HETATM   23  O   UNK N   1      25.637  15.631   2.165  0.00  0.00    -0.301 OA
BRANCH  23  24
HETATM   24  C   UNK N   1      25.123  14.463   1.677  0.00  0.00     0.260 C 
HETATM   25  O   UNK N   1      25.726  13.413   1.791  0.00  0.00    -0.265 OA
BRANCH  24  26
HETATM   26  C   UNK N   1      23.851  14.509   0.895  0.00  0.00     0.111 C 
BRANCH  26  27
HETATM   27  C   UNK N   1      23.652  13.250   0.078  0.00  0.00     0.005 C 
HETATM   28  C   UNK N   1      22.335  12.616   0.475  0.00  0.00     0.005 C 
ENDBRANCH  26  27
ENDBRANCH  24  26
ENDBRANCH  23  24
ENDBRANCH   1  23
BRANCH   1  29
HETATM   29  C   UNK N   1      24.292  15.586   4.141  0.00  0.00     0.186 C 
HETATM   30  O   UNK N   1      24.294  14.613   4.881  0.00  0.00    -0.292 OA
BRANCH  29  31
HETATM   31  C   UNK N   1      22.982  16.297   3.937  0.00  0.00     0.260 C 
BRANCH  31  32
HETATM   32  O   UNK N   1      22.462  16.751   5.134  0.00  0.00    -0.314 OA
BRANCH  32  33
HETATM   33  C   UNK N   1      22.042  18.024   5.354  0.00  0.00     0.255 C 
HETATM   34  O   UNK N   1      21.788  18.418   6.483  0.00  0.00    -0.266 OA
HETATM   35  C   UNK N   1      21.872  18.947   4.199  0.00  0.00     0.126 C 
ENDBRANCH  32  33
ENDBRANCH  31  32
ENDBRANCH  29  31
ENDBRANCH   1  29
BRANCH   7  36
HETATM   36  O   UNK N   1      30.177  14.645   3.316  0.00  0.00    -0.392 OA
HETATM   37  H   UNK N   1      30.631  13.933   3.795  0.00  0.00     0.210 HD
ENDBRANCH   7  36
TORSDOF 9
ENDMDL
MODEL 7
REMARK VINA RESULT:      -7.2     12.996     16.674
REMARK  9 active torsions:
REMARK  status: ('A' for Active; 'I' for Inactive)
REMARK    1  A    between atoms: C_2  and  C_3 
REMARK    2  A    between atoms: C_3  and  C_4 
REMARK    3  A    between atoms: C_4  and  O_6 
REMARK    4  A    between atoms: C_7  and  O_6 
REMARK    5  A    between atoms: C_7  and  C_30 
REMARK    6  A    between atoms: C_13  and  O_28 
REMARK    7  A    between atoms: C_30  and  C_32 
REMARK    8  A    between atoms: C_32  and  O_33 
REMARK    9  A    between atoms: O_33  and  C_34 
ROOT
HETATM    1  C   UNK N   1      35.824  11.898  11.933  0.00  0.00     0.140 C 
HETATM    2  C   UNK N   1      36.992  12.764  12.393  0.00  0.00     0.048 C 
HETATM    3  C   UNK N   1      36.555  13.397  13.724  0.00  0.00     0.009 C 
HETATM    4  C   UNK N   1      35.391  12.554  14.264  0.00  0.00     0.005 C 
HETATM    5  C   UNK N   1      35.303  11.354  13.297  0.00  0.00     0.002 C 
HETATM    6  C   UNK N   1      36.259  10.254  13.798  0.00  0.00     0.048 C 
HETATM    7  C   UNK N   1      35.988   9.783  15.227  0.00  0.00     0.160 C 
HETATM    8  C   UNK N   1      35.198  10.767  16.131  0.00  0.00     0.147 C 
HETATM    9  C   UNK N   1      35.601  12.214  15.784  0.00  0.00     0.037 C 
HETATM   10  C   UNK N   1      34.718  13.153  16.621  0.00  0.00     0.050 C 
HETATM   11  C   UNK N   1      34.900  13.016  18.128  0.00  0.00     0.201 C 
HETATM   12  C   UNK N   1      35.289  11.632  18.593  0.00  0.00    -0.027 C 
HETATM   13  C   UNK N   1      35.656  11.490  19.885  0.00  0.00     0.061 C 
HETATM   14  C   UNK N   1      36.434  10.295  20.278  0.00  0.00     0.172 C 
HETATM   15  O   UNK N   1      36.622  10.028  21.453  0.00  0.00    -0.289 OA
HETATM   16  C   UNK N   1      37.188   9.599  19.208  0.00  0.00     0.052 C 
HETATM   17  C   UNK N   1      36.813   9.800  17.929  0.00  0.00    -0.006 C 
HETATM   18  C   UNK N   1      35.453  10.432  17.645  0.00  0.00     0.039 C 
HETATM   19  C   UNK N   1      34.437   9.359  18.060  0.00  0.00     0.028 C 
HETATM   20  F   UNK N   1      35.891  13.909  18.499  0.00  0.00    -0.245 F 
HETATM   21  F   UNK N   1      33.836  10.664  15.866  0.00  0.00    -0.238 F 
HETATM   22  C   UNK N   1      33.898  10.758  13.196  0.00  0.00     0.019 C 
ENDROOT
BRANCH   1  23
HETATM   23  O   UNK N   1      36.305  10.841  11.161  0.00  0.00    -0.301 OA
BRANCH  23  24
HETATM   24  C   UNK N   1      37.408  10.895  10.357  0.00  0.00     0.260 C 
HETATM   25  O   UNK N   1      37.417  11.564   9.341  0.00  0.00    -0.265 OA
BRANCH  24  26
HETATM   26  C   UNK N   1      38.579  10.026  10.685  0.00  0.00     0.111 C 
BRANCH  26  27
HETATM   27  C   UNK N   1      38.141   8.665  11.182  0.00  0.00     0.005 C 
HETATM   28  C   UNK N   1      39.273   7.682  10.967  0.00  0.00     0.005 C 
ENDBRANCH  26  27
ENDBRANCH  24  26
ENDBRANCH  23  24
ENDBRANCH   1  23
BRANCH   1  29
HETATM   29  C   UNK N   1      34.932  12.796  11.066  0.00  0.00     0.186 C 
HETATM   30  O   UNK N   1      34.309  12.280  10.151  0.00  0.00    -0.292 OA
BRANCH  29  31
HETATM   31  C   UNK N   1      34.750  14.274  11.280  0.00  0.00     0.260 C 
BRANCH  31  32
HETATM   32  O   UNK N   1      35.331  15.007  10.264  0.00  0.00    -0.314 OA
BRANCH  32  33
HETATM   33  C   UNK N   1      35.018  16.296   9.973  0.00  0.00     0.255 C 
HETATM   34  O   UNK N   1      35.637  17.225  10.474  0.00  0.00    -0.266 OA
HETATM   35  C   UNK N   1      33.893  16.583   9.041  0.00  0.00     0.126 C 
ENDBRANCH  32  33
ENDBRANCH  31  32
ENDBRANCH  29  31
ENDBRANCH   1  29
BRANCH   7  36
HETATM   36  O   UNK N   1      35.446   8.498  15.245  0.00  0.00    -0.392 OA
HETATM   37  H   UNK N   1      35.738   7.697  15.710  0.00  0.00     0.210 HD
ENDBRANCH   7  36
TORSDOF 9
ENDMDL
MODEL 8
REMARK VINA RESULT:      -7.2     14.752     16.192
REMARK  9 active torsions:
REMARK  status: ('A' for Active; 'I' for Inactive)
REMARK    1  A    between atoms: C_2  and  C_3 
REMARK    2  A    between atoms: C_3  and  C_4 
REMARK    3  A    between atoms: C_4  and  O_6 
REMARK    4  A    between atoms: C_7  and  O_6 
REMARK    5  A    between atoms: C_7  and  C_30 
REMARK    6  A    between atoms: C_13  and  O_28 
REMARK    7  A    between atoms: C_30  and  C_32 
REMARK    8  A    between atoms: C_32  and  O_33 
REMARK    9  A    between atoms: O_33  and  C_34 
ROOT
HETATM    1  C   UNK N   1      27.092  26.055  -4.771  0.00  0.00     0.140 C 
HETATM    2  C   UNK N   1      26.444  24.862  -4.075  0.00  0.00     0.048 C 
HETATM    3  C   UNK N   1      26.920  23.614  -4.836  0.00  0.00     0.009 C 
HETATM    4  C   UNK N   1      28.175  24.017  -5.623  0.00  0.00     0.005 C 
HETATM    5  C   UNK N   1      28.478  25.456  -5.156  0.00  0.00     0.002 C 
HETATM    6  C   UNK N   1      29.361  25.383  -3.895  0.00  0.00     0.048 C 
HETATM    7  C   UNK N   1      30.671  24.618  -4.083  0.00  0.00     0.160 C 
HETATM    8  C   UNK N   1      30.711  23.615  -5.267  0.00  0.00     0.147 C 
HETATM    9  C   UNK N   1      29.324  22.961  -5.429  0.00  0.00     0.037 C 
HETATM   10  C   UNK N   1      29.378  22.064  -6.675  0.00  0.00     0.050 C 
HETATM   11  C   UNK N   1      30.375  20.915  -6.584  0.00  0.00     0.201 C 
HETATM   12  C   UNK N   1      31.589  21.200  -5.730  0.00  0.00    -0.027 C 
HETATM   13  C   UNK N   1      32.409  20.164  -5.449  0.00  0.00     0.061 C 
HETATM   14  C   UNK N   1      33.339  20.281  -4.305  0.00  0.00     0.172 C 
HETATM   15  O   UNK N   1      34.224  19.460  -4.129  0.00  0.00    -0.289 OA
HETATM   16  C   UNK N   1      32.993  21.265  -3.252  0.00  0.00     0.052 C 
HETATM   17  C   UNK N   1      32.139  22.260  -3.564  0.00  0.00    -0.006 C 
HETATM   18  C   UNK N   1      31.840  22.548  -5.032  0.00  0.00     0.039 C 
HETATM   19  C   UNK N   1      33.149  23.129  -5.585  0.00  0.00     0.028 C 
HETATM   20  F   UNK N   1      29.698  19.831  -6.052  0.00  0.00    -0.245 F 
HETATM   21  F   UNK N   1      30.966  24.294  -6.454  0.00  0.00    -0.238 F 
HETATM   22  C   UNK N   1      29.211  26.293  -6.205  0.00  0.00     0.019 C 
ENDROOT
BRANCH   1  23
HETATM   23  O   UNK N   1      27.266  27.090  -3.855  0.00  0.00    -0.301 OA
BRANCH  23  24
HETATM   24  C   UNK N   1      26.344  28.059  -3.579  0.00  0.00     0.260 C 
HETATM   25  O   UNK N   1      25.403  27.843  -2.839  0.00  0.00    -0.265 OA
BRANCH  24  26
HETATM   26  C   UNK N   1      26.443  29.369  -4.293  0.00  0.00     0.111 C 
BRANCH  26  27
HETATM   27  C   UNK N   1      27.880  29.829  -4.417  0.00  0.00     0.005 C 
HETATM   28  C   UNK N   1      28.244  29.893  -5.886  0.00  0.00     0.005 C 
ENDBRANCH  26  27
ENDBRANCH  24  26
ENDBRANCH  23  24
ENDBRANCH   1  23
BRANCH   1  29
HETATM   29  C   UNK N   1      26.112  26.503  -5.864  0.00  0.00     0.186 C 
HETATM   30  O   UNK N   1      24.918  26.504  -5.604  0.00  0.00    -0.292 OA
BRANCH  29  31
HETATM   31  C   UNK N   1      26.522  26.969  -7.235  0.00  0.00     0.260 C 
BRANCH  31  32
HETATM   32  O   UNK N   1      25.862  26.267  -8.225  0.00  0.00    -0.314 OA
BRANCH  32  33
HETATM   33  C   UNK N   1      26.023  24.940  -8.462  0.00  0.00     0.255 C 
HETATM   34  O   UNK N   1      25.171  24.131  -8.123  0.00  0.00    -0.266 OA
HETATM   35  C   UNK N   1      27.264  24.461  -9.129  0.00  0.00     0.126 C 
ENDBRANCH  32  33
ENDBRANCH  31  32
ENDBRANCH  29  31
ENDBRANCH   1  29
BRANCH   7  36
HETATM   36  O   UNK N   1      31.768  25.479  -4.084  0.00  0.00    -0.392 OA
HETATM   37  H   UNK N   1      32.469  25.607  -3.424  0.00  0.00     0.210 HD
ENDBRANCH   7  36
TORSDOF 9
ENDMDL
MODEL 9
REMARK VINA RESULT:      -7.1      9.192     13.569
REMARK  9 active torsions:
REMARK  status: ('A' for Active; 'I' for Inactive)
REMARK    1  A    between atoms: C_2  and  C_3 
REMARK    2  A    between atoms: C_3  and  C_4 
REMARK    3  A    between atoms: C_4  and  O_6 
REMARK    4  A    between atoms: C_7  and  O_6 
REMARK    5  A    between atoms: C_7  and  C_30 
REMARK    6  A    between atoms: C_13  and  O_28 
REMARK    7  A    between atoms: C_30  and  C_32 
REMARK    8  A    between atoms: C_32  and  O_33 
REMARK    9  A    between atoms: O_33  and  C_34 
ROOT
HETATM    1  C   UNK N   1      34.985  15.064   9.341  0.00  0.00     0.140 C 
HETATM    2  C   UNK N   1      33.893  14.108   9.809  0.00  0.00     0.048 C 
HETATM    3  C   UNK N   1      32.579  14.905   9.759  0.00  0.00     0.009 C 
HETATM    4  C   UNK N   1      32.815  16.107   8.835  0.00  0.00     0.005 C 
HETATM    5  C   UNK N   1      34.223  15.871   8.248  0.00  0.00     0.002 C 
HETATM    6  C   UNK N   1      34.083  14.999   6.984  0.00  0.00     0.048 C 
HETATM    7  C   UNK N   1      33.170  15.586   5.909  0.00  0.00     0.160 C 
HETATM    8  C   UNK N   1      32.138  16.641   6.391  0.00  0.00     0.147 C 
HETATM    9  C   UNK N   1      31.642  16.261   7.801  0.00  0.00     0.037 C 
HETATM   10  C   UNK N   1      30.712  17.386   8.282  0.00  0.00     0.050 C 
HETATM   11  C   UNK N   1      29.460  17.576   7.433  0.00  0.00     0.201 C 
HETATM   12  C   UNK N   1      29.627  17.224   5.973  0.00  0.00    -0.027 C 
HETATM   13  C   UNK N   1      28.513  17.183   5.212  0.00  0.00     0.061 C 
HETATM   14  C   UNK N   1      28.554  16.449   3.927  0.00  0.00     0.172 C 
HETATM   15  O   UNK N   1      27.643  16.543   3.122  0.00  0.00    -0.289 OA
HETATM   16  C   UNK N   1      29.599  15.408   3.779  0.00  0.00     0.052 C 
HETATM   17  C   UNK N   1      30.676  15.464   4.587  0.00  0.00    -0.006 C 
HETATM   18  C   UNK N   1      30.956  16.749   5.361  0.00  0.00     0.039 C 
HETATM   19  C   UNK N   1      31.370  17.763   4.285  0.00  0.00     0.028 C 
HETATM   20  F   UNK N   1      28.474  16.771   7.978  0.00  0.00    -0.245 F 
HETATM   21  F   UNK N   1      32.752  17.883   6.511  0.00  0.00    -0.238 F 
HETATM   22  C   UNK N   1      34.943  17.164   7.860  0.00  0.00     0.019 C 
ENDROOT
BRANCH   1  23
HETATM   23  O   UNK N   1      36.018  14.336   8.752  0.00  0.00    -0.301 OA
BRANCH  23  24
HETATM   24  C   UNK N   1      36.264  13.010   8.964  0.00  0.00     0.260 C 
HETATM   25  O   UNK N   1      35.853  12.161   8.196  0.00  0.00    -0.265 OA
BRANCH  24  26
HETATM   26  C   UNK N   1      36.958  12.600  10.223  0.00  0.00     0.111 C 
BRANCH  26  27
HETATM   27  C   UNK N   1      38.308  13.271  10.360  0.00  0.00     0.005 C 
HETATM   28  C   UNK N   1      39.299  12.556   9.465  0.00  0.00     0.005 C 
ENDBRANCH  26  27
ENDBRANCH  24  26
ENDBRANCH  23  24
ENDBRANCH   1  23
BRANCH   1  29
HETATM   29  C   UNK N   1      35.513  15.769  10.597  0.00  0.00     0.186 C 
HETATM   30  O   UNK N   1      36.381  16.618  10.460  0.00  0.00    -0.292 OA
BRANCH  29  31
HETATM   31  C   UNK N   1      35.017  15.506  11.993  0.00  0.00     0.260 C 
BRANCH  31  32
HETATM   32  O   UNK N   1      35.969  14.856  12.754  0.00  0.00    -0.314 OA
BRANCH  32  33
HETATM   33  C   UNK N   1      35.711  13.797  13.563  0.00  0.00     0.255 C 
HETATM   34  O   UNK N   1      34.672  13.161  13.459  0.00  0.00    -0.266 OA
HETATM   35  C   UNK N   1      36.702  13.415  14.606  0.00  0.00     0.126 C 
ENDBRANCH  32  33
ENDBRANCH  31  32
ENDBRANCH  29  31
ENDBRANCH   1  29
BRANCH   7  36
HETATM   36  O   UNK N   1      33.901  16.029   4.806  0.00  0.00    -0.392 OA
HETATM   37  H   UNK N   1      34.818  16.341   4.742  0.00  0.00     0.210 HD
ENDBRANCH   7  36
TORSDOF 9
ENDMDL
