MODEL 1
REMARK VINA RESULT:      -8.8      0.000      0.000
REMARK  20 active torsions:
REMARK  status: ('A' for Active; 'I' for Inactive)
REMARK    1  A    between atoms: C_1  and  C_2 
REMARK    2  A    between atoms: C_2  and  C_5 
REMARK    3  A    between atoms: C_5  and  C_6 
REMARK    4  A    between atoms: C_6  and  C_7 
REMARK    5  A    between atoms: C_7  and  N_8 
REMARK    6  A    between atoms: C_12  and  C_15 
REMARK    7  A    between atoms: C_15  and  C_69 
REMARK    8  A    between atoms: C_16  and  C_17 
REMARK    9  A    between atoms: C_17  and  C_21 
REMARK   10  A    between atoms: C_24  and  O_27 
REMARK   11  A    between atoms: O_27  and  C_28 
REMARK   12  A    between atoms: C_28  and  C_29 
REMARK   13  A    between atoms: C_35  and  C_37 
REMARK   14  A    between atoms: C_37  and  C_38 
REMARK   15  A    between atoms: C_48  and  C_49 
REMARK   16  A    between atoms: C_61  and  O_62 
REMARK   17  A    between atoms: O_62  and  C_63 
REMARK       I    between atoms: C_63  and  N_65 
REMARK   18  A    between atoms: N_65  and  C_66 
REMARK   19  A    between atoms: C_66  and  C_67 
REMARK   20  A    between atoms: C_67  and  N_68 
ROOT
HETATM    1  C   UNK N   1      26.744  17.563   4.100  0.00  0.00     0.176 C 
HETATM    2  N   UNK N   1      28.056  17.738   4.648  0.00  0.00    -0.346 N 
HETATM    3  C   UNK N   1      26.200  16.175   4.051  0.00  0.00     0.241 C 
HETATM    4  N   UNK N   1      25.031  15.932   3.439  0.00  0.00    -0.346 N 
HETATM    5  O   UNK N   1      26.826  15.257   4.558  0.00  0.00    -0.271 OA
HETATM    6  C   UNK N   1      28.425  17.249   5.853  0.00  0.00     0.241 C 
HETATM    7  C   UNK N   1      29.867  17.343   6.222  0.00  0.00     0.181 C 
HETATM    8  O   UNK N   1      27.618  16.715   6.603  0.00  0.00    -0.271 OA
HETATM    9  N   UNK N   1      30.640  16.160   5.892  0.00  0.00    -0.345 N 
HETATM   10  C   UNK N   1      24.506  14.594   3.347  0.00  0.00     0.180 C 
HETATM   11  C   UNK N   1      24.625  13.983   1.985  0.00  0.00     0.241 C 
HETATM   12  O   UNK N   1      24.277  14.637   1.014  0.00  0.00    -0.271 OA
HETATM   13  N   UNK N   1      25.173  12.765   1.794  0.00  0.00    -0.346 N 
HETATM   14  C   UNK N   1      25.617  11.941   2.888  0.00  0.00     0.181 C 
HETATM   15  C   UNK N   1      27.117  12.142   3.022  0.00  0.00     0.243 C 
HETATM   16  N   UNK N   1      28.018  11.120   3.204  0.00  0.00    -0.334 N 
HETATM   17  O   UNK N   1      27.508  13.289   2.979  0.00  0.00    -0.271 OA
HETATM   18  C   UNK N   1      30.513  15.483   4.706  0.00  0.00     0.245 C 
HETATM   19  O   UNK N   1      29.630  15.762   3.912  0.00  0.00    -0.271 OA
HETATM   20  C   UNK N   1      31.470  14.401   4.323  0.00  0.00     0.210 C 
HETATM   21  N   UNK N   1      30.792  13.130   4.310  0.00  0.00    -0.342 N 
HETATM   22  C   UNK N   1      30.078  12.655   3.263  0.00  0.00     0.241 C 
HETATM   23  O   UNK N   1      30.008  13.288   2.217  0.00  0.00    -0.271 OA
HETATM   24  C   UNK N   1      29.441  11.295   3.374  0.00  0.00     0.181 C 
HETATM   25  C   UNK N   1      27.646   9.790   3.569  0.00  0.00     0.159 C 
HETATM   26  C   UNK N   1      29.666  10.612   4.702  0.00  0.00     0.069 C 
HETATM   27  C   UNK N   1      28.687   9.440   4.653  0.00  0.00     0.154 C 
HETATM   28  H   UNK N   1      28.720  18.238   4.122  0.00  0.00     0.163 HD
HETATM   29  H   UNK N   1      24.526  16.679   3.045  0.00  0.00     0.163 HD
HETATM   30  H   UNK N   1      31.289  15.826   6.553  0.00  0.00     0.163 HD
HETATM   31  H   UNK N   1      25.272  12.427   0.875  0.00  0.00     0.163 HD
HETATM   32  H   UNK N   1      30.853  12.568   5.116  0.00  0.00     0.163 HD
ENDROOT
BRANCH  10  33
HETATM   33  C   UNK N   1      24.233  13.848   4.687  0.00  0.00     0.073 C 
BRANCH  33  34
HETATM   34  C   UNK N   1      22.816  14.153   4.933  0.00  0.00    -0.056 C 
HETATM   35  C   UNK N   1      21.955  13.053   5.013  0.00  0.00     0.010 C 
HETATM   36  C   UNK N   1      20.959  13.039   5.977  0.00  0.00     0.037 C 
HETATM   37  C   UNK N   1      20.827  14.129   6.853  0.00  0.00     0.069 C 
HETATM   38  C   UNK N   1      21.570  15.288   6.650  0.00  0.00     0.037 C 
HETATM   39  C   UNK N   1      22.583  15.290   5.705  0.00  0.00     0.010 C 
BRANCH  37  40
HETATM   40  O   UNK N   1      20.084  14.037   7.967  0.00  0.00    -0.347 OA
BRANCH  40  41
HETATM   41  C   UNK N   1      20.488  14.620   9.143  0.00  0.00     0.214 C 
BRANCH  41  42
HETATM   42  C   UNK N   1      21.223  13.618   9.920  0.00  0.00    -0.034 A 
HETATM   43  C   UNK N   1      20.550  12.836  10.858  0.00  0.00     0.009 A 
HETATM   44  C   UNK N   1      21.262  11.922  11.634  0.00  0.00     0.001 A 
HETATM   45  C   UNK N   1      22.647  11.800  11.472  0.00  0.00     0.000 A 
HETATM   46  C   UNK N   1      23.316  12.587  10.528  0.00  0.00     0.001 A 
HETATM   47  C   UNK N   1      22.603  13.498   9.754  0.00  0.00     0.009 A 
ENDBRANCH  41  42
ENDBRANCH  40  41
ENDBRANCH  37  40
ENDBRANCH  33  34
ENDBRANCH  10  33
BRANCH   1  48
HETATM   48  C   UNK N   1      26.014  18.798   3.632  0.00  0.00     0.035 C 
BRANCH  48  49
HETATM   49  C   UNK N   1      26.924  19.976   3.858  0.00  0.00     0.004 C 
BRANCH  49  50
HETATM   50  C   UNK N   1      26.359  20.856   4.947  0.00  0.00     0.019 C 
BRANCH  50  51
HETATM   51  C   UNK N   1      27.368  20.964   6.071  0.00  0.00     0.111 C 
BRANCH  51  52
HETATM   52  N   UNK N   1      26.917  20.186   7.211  0.00  0.00    -0.430 N 
HETATM   53  H   UNK N   1      27.576  19.882   7.928  0.00  0.00     0.149 HD
HETATM   54  H   UNK N   1      25.930  19.943   7.296  0.00  0.00     0.149 HD
ENDBRANCH  51  52
ENDBRANCH  50  51
ENDBRANCH  49  50
ENDBRANCH  48  49
ENDBRANCH   1  48
BRANCH  14  55
HETATM   55  C   UNK N   1      25.077  10.532   2.658  0.00  0.00     0.073 C 
BRANCH  55  56
HETATM   56  C   UNK N   1      24.033  10.124   3.662  0.00  0.00    -0.056 A 
HETATM   57  C   UNK N   1      24.309  10.084   5.038  0.00  0.00     0.007 A 
HETATM   58  C   UNK N   1      23.315   9.713   5.948  0.00  0.00     0.001 A 
HETATM   59  C   UNK N   1      22.034   9.399   5.490  0.00  0.00     0.000 A 
HETATM   60  C   UNK N   1      21.749   9.454   4.123  0.00  0.00     0.001 A 
HETATM   61  C   UNK N   1      22.747   9.813   3.211  0.00  0.00     0.007 A 
ENDBRANCH  55  56
ENDBRANCH  14  55
BRANCH   7  62
HETATM   62  C   UNK N   1      30.096  17.913   7.628  0.00  0.00     0.075 C 
BRANCH  62  63
HETATM   63  C   UNK N   1      31.094  17.004   8.276  0.00  0.00    -0.028 A 
HETATM   64  C   UNK N   1      32.434  17.252   8.396  0.00  0.00    -0.002 A 
HETATM   65  C   UNK N   1      32.938  16.304   9.231  0.00  0.00     0.042 A 
HETATM   66  C   UNK N   1      33.217  18.280   7.875  0.00  0.00     0.014 A 
HETATM   67  N   UNK N   1      31.976  15.452   9.634  0.00  0.00    -0.365 N 
HETATM   68  C   UNK N   1      34.276  16.307   9.615  0.00  0.00     0.030 A 
HETATM   69  C   UNK N   1      30.825  15.882   9.053  0.00  0.00     0.096 A 
HETATM   70  H   UNK N   1      32.084  14.675  10.229  0.00  0.00     0.165 HD
HETATM   71  C   UNK N   1      35.102  17.328   9.102  0.00  0.00     0.002 A 
HETATM   72  C   UNK N   1      34.575  18.308   8.231  0.00  0.00     0.001 A 
ENDBRANCH  62  63
ENDBRANCH   7  62
BRANCH  27  73
HETATM   73  O   UNK N   1      29.326   8.231   4.424  0.00  0.00    -0.297 OA
BRANCH  73  74
HETATM   74  C   UNK N   1      29.154   7.091   5.152  0.00  0.00     0.361 C 
HETATM   75  O   UNK N   1      28.066   6.544   5.126  0.00  0.00    -0.239 OA
HETATM   76  N   UNK N   1      30.114   6.598   5.980  0.00  0.00    -0.335 N 
HETATM   77  H   UNK N   1      29.903   5.777   6.480  0.00  0.00     0.164 HD
BRANCH  76  78
HETATM   78  C   UNK N   1      31.416   7.182   6.181  0.00  0.00     0.144 C 
BRANCH  78  79
HETATM   79  C   UNK N   1      31.507   7.708   7.605  0.00  0.00     0.130 C 
BRANCH  79  80
HETATM   80  N   UNK N   1      30.830   8.987   7.707  0.00  0.00    -0.429 N 
HETATM   81  H   UNK N   1      31.073   9.792   7.131  0.00  0.00     0.149 HD
HETATM   82  H   UNK N   1      30.075   9.085   8.387  0.00  0.00     0.149 HD
ENDBRANCH  79  80
ENDBRANCH  78  79
ENDBRANCH  76  78
ENDBRANCH  73  74
ENDBRANCH  27  73
BRANCH  20  83
HETATM   83  C   UNK N   1      32.654  14.340   5.226  0.00  0.00    -0.026 A 
HETATM   84  C   UNK N   1      32.694  13.434   6.294  0.00  0.00     0.010 A 
HETATM   85  C   UNK N   1      33.797  13.410   7.147  0.00  0.00     0.001 A 
HETATM   86  C   UNK N   1      34.851  14.306   6.948  0.00  0.00     0.000 A 
HETATM   87  C   UNK N   1      34.808  15.219   5.891  0.00  0.00     0.001 A 
HETATM   88  C   UNK N   1      33.710  15.233   5.026  0.00  0.00     0.010 A 
ENDBRANCH  20  83
TORSDOF 20
ENDMDL
MODEL 2
REMARK VINA RESULT:      -8.7      3.193      5.366
REMARK  20 active torsions:
REMARK  status: ('A' for Active; 'I' for Inactive)
REMARK    1  A    between atoms: C_1  and  C_2 
REMARK    2  A    between atoms: C_2  and  C_5 
REMARK    3  A    between atoms: C_5  and  C_6 
REMARK    4  A    between atoms: C_6  and  C_7 
REMARK    5  A    between atoms: C_7  and  N_8 
REMARK    6  A    between atoms: C_12  and  C_15 
REMARK    7  A    between atoms: C_15  and  C_69 
REMARK    8  A    between atoms: C_16  and  C_17 
REMARK    9  A    between atoms: C_17  and  C_21 
REMARK   10  A    between atoms: C_24  and  O_27 
REMARK   11  A    between atoms: O_27  and  C_28 
REMARK   12  A    between atoms: C_28  and  C_29 
REMARK   13  A    between atoms: C_35  and  C_37 
REMARK   14  A    between atoms: C_37  and  C_38 
REMARK   15  A    between atoms: C_48  and  C_49 
REMARK   16  A    between atoms: C_61  and  O_62 
REMARK   17  A    between atoms: O_62  and  C_63 
REMARK       I    between atoms: C_63  and  N_65 
REMARK   18  A    between atoms: N_65  and  C_66 
REMARK   19  A    between atoms: C_66  and  C_67 
REMARK   20  A    between atoms: C_67  and  N_68 
ROOT
HETATM    1  C   UNK N   1      30.992  17.698   8.005  0.00  0.00     0.176 C 
HETATM    2  N   UNK N   1      32.249  17.135   8.398  0.00  0.00    -0.346 N 
HETATM    3  C   UNK N   1      30.205  16.967   6.971  0.00  0.00     0.241 C 
HETATM    4  N   UNK N   1      29.082  17.507   6.474  0.00  0.00    -0.346 N 
HETATM    5  O   UNK N   1      30.592  15.881   6.566  0.00  0.00    -0.271 OA
HETATM    6  C   UNK N   1      32.392  15.850   8.792  0.00  0.00     0.241 C 
HETATM    7  C   UNK N   1      33.781  15.343   8.995  0.00  0.00     0.181 C 
HETATM    8  O   UNK N   1      31.426  15.113   8.942  0.00  0.00    -0.271 OA
HETATM    9  N   UNK N   1      34.348  14.687   7.832  0.00  0.00    -0.345 N 
HETATM   10  C   UNK N   1      28.327  16.835   5.448  0.00  0.00     0.180 C 
HETATM   11  C   UNK N   1      28.470  17.445   4.087  0.00  0.00     0.241 C 
HETATM   12  O   UNK N   1      28.354  18.654   3.969  0.00  0.00    -0.271 OA
HETATM   13  N   UNK N   1      28.796  16.708   3.005  0.00  0.00    -0.346 N 
HETATM   14  C   UNK N   1      28.961  15.279   3.069  0.00  0.00     0.181 C 
HETATM   15  C   UNK N   1      30.450  15.004   3.196  0.00  0.00     0.243 C 
HETATM   16  N   UNK N   1      31.119  14.041   2.479  0.00  0.00    -0.334 N 
HETATM   17  O   UNK N   1      31.052  15.682   4.001  0.00  0.00    -0.271 OA
HETATM   18  C   UNK N   1      34.220  15.172   6.556  0.00  0.00     0.245 C 
HETATM   19  O   UNK N   1      33.492  16.121   6.312  0.00  0.00    -0.271 OA
HETATM   20  C   UNK N   1      34.990  14.582   5.420  0.00  0.00     0.210 C 
HETATM   21  N   UNK N   1      34.091  13.925   4.506  0.00  0.00    -0.342 N 
HETATM   22  C   UNK N   1      33.413  14.552   3.517  0.00  0.00     0.241 C 
HETATM   23  O   UNK N   1      33.572  15.749   3.312  0.00  0.00    -0.271 OA
HETATM   24  C   UNK N   1      32.524  13.738   2.614  0.00  0.00     0.181 C 
HETATM   25  C   UNK N   1      30.468  13.001   1.745  0.00  0.00     0.159 C 
HETATM   26  C   UNK N   1      32.477  12.267   2.955  0.00  0.00     0.069 C 
HETATM   27  C   UNK N   1      31.307  11.760   2.114  0.00  0.00     0.154 C 
HETATM   28  H   UNK N   1      33.047  17.711   8.379  0.00  0.00     0.163 HD
HETATM   29  H   UNK N   1      28.769  18.375   6.815  0.00  0.00     0.163 HD
HETATM   30  H   UNK N   1      34.850  13.851   7.965  0.00  0.00     0.163 HD
HETATM   31  H   UNK N   1      28.925  17.163   2.141  0.00  0.00     0.163 HD
HETATM   32  H   UNK N   1      33.961  12.954   4.608  0.00  0.00     0.163 HD
ENDROOT
BRANCH  10  33
HETATM   33  C   UNK N   1      27.780  15.416   5.784  0.00  0.00     0.073 C 
BRANCH  33  34
HETATM   34  C   UNK N   1      26.473  15.717   6.385  0.00  0.00    -0.056 C 
HETATM   35  C   UNK N   1      25.481  16.164   5.505  0.00  0.00     0.010 C 
HETATM   36  C   UNK N   1      24.184  15.698   5.652  0.00  0.00     0.037 C 
HETATM   37  C   UNK N   1      23.885  14.791   6.682  0.00  0.00     0.069 C 
HETATM   38  C   UNK N   1      24.836  14.494   7.654  0.00  0.00     0.037 C 
HETATM   39  C   UNK N   1      26.138  14.938   7.491  0.00  0.00     0.010 C 
BRANCH  37  40
HETATM   40  O   UNK N   1      22.734  14.101   6.685  0.00  0.00    -0.347 OA
BRANCH  40  41
HETATM   41  C   UNK N   1      22.716  12.749   6.928  0.00  0.00     0.214 C 
BRANCH  41  42
HETATM   42  C   UNK N   1      22.345  12.542   8.330  0.00  0.00    -0.034 A 
HETATM   43  C   UNK N   1      21.281  13.256   8.880  0.00  0.00     0.009 A 
HETATM   44  C   UNK N   1      20.966  13.098  10.229  0.00  0.00     0.001 A 
HETATM   45  C   UNK N   1      21.722  12.229  11.024  0.00  0.00     0.000 A 
HETATM   46  C   UNK N   1      22.788  11.514  10.467  0.00  0.00     0.001 A 
HETATM   47  C   UNK N   1      23.100  11.673   9.119  0.00  0.00     0.009 A 
ENDBRANCH  41  42
ENDBRANCH  40  41
ENDBRANCH  37  40
ENDBRANCH  33  34
ENDBRANCH  10  33
BRANCH   1  48
HETATM   48  C   UNK N   1      30.560  18.976   8.682  0.00  0.00     0.035 C 
BRANCH  48  49
HETATM   49  C   UNK N   1      29.849  18.597   9.953  0.00  0.00     0.004 C 
BRANCH  49  50
HETATM   50  C   UNK N   1      28.534  17.930   9.623  0.00  0.00     0.019 C 
BRANCH  50  51
HETATM   51  C   UNK N   1      28.480  16.578  10.303  0.00  0.00     0.111 C 
BRANCH  51  52
HETATM   52  N   UNK N   1      29.677  16.381  11.100  0.00  0.00    -0.430 N 
HETATM   53  H   UNK N   1      30.601  16.411  10.669  0.00  0.00     0.149 HD
HETATM   54  H   UNK N   1      29.593  16.211  12.102  0.00  0.00     0.149 HD
ENDBRANCH  51  52
ENDBRANCH  50  51
ENDBRANCH  49  50
ENDBRANCH  48  49
ENDBRANCH   1  48
BRANCH  14  55
HETATM   55  C   UNK N   1      28.193  14.669   1.899  0.00  0.00     0.073 C 
BRANCH  55  56
HETATM   56  C   UNK N   1      26.771  14.316   2.241  0.00  0.00    -0.056 A 
HETATM   57  C   UNK N   1      25.685  15.028   1.705  0.00  0.00     0.007 A 
HETATM   58  C   UNK N   1      24.374  14.668   2.031  0.00  0.00     0.001 A 
HETATM   59  C   UNK N   1      24.140  13.582   2.878  0.00  0.00     0.000 A 
HETATM   60  C   UNK N   1      25.216  12.858   3.398  0.00  0.00     0.001 A 
HETATM   61  C   UNK N   1      26.528  13.227   3.082  0.00  0.00     0.007 A 
ENDBRANCH  55  56
ENDBRANCH  14  55
BRANCH   7  62
HETATM   62  C   UNK N   1      33.965  14.605  10.328  0.00  0.00     0.075 C 
BRANCH  62  63
HETATM   63  C   UNK N   1      35.445  14.448  10.502  0.00  0.00    -0.028 A 
HETATM   64  C   UNK N   1      36.126  13.262  10.465  0.00  0.00    -0.002 A 
HETATM   65  C   UNK N   1      37.451  13.570  10.438  0.00  0.00     0.042 A 
HETATM   66  C   UNK N   1      35.664  11.950  10.391  0.00  0.00     0.014 A 
HETATM   67  N   UNK N   1      37.640  14.903  10.474  0.00  0.00    -0.365 N 
HETATM   68  C   UNK N   1      38.427  12.583  10.335  0.00  0.00     0.030 A 
HETATM   69  C   UNK N   1      36.400  15.458  10.507  0.00  0.00     0.096 A 
HETATM   70  H   UNK N   1      38.502  15.379  10.477  0.00  0.00     0.165 HD
HETATM   71  C   UNK N   1      37.998  11.242  10.266  0.00  0.00     0.002 A 
HETATM   72  C   UNK N   1      36.621  10.926  10.299  0.00  0.00     0.001 A 
ENDBRANCH  62  63
ENDBRANCH   7  62
BRANCH  27  73
HETATM   73  O   UNK N   1      31.727  11.039   1.008  0.00  0.00    -0.297 OA
BRANCH  73  74
HETATM   74  C   UNK N   1      31.383  11.297  -0.286  0.00  0.00     0.361 C 
HETATM   75  O   UNK N   1      30.319  10.872  -0.701  0.00  0.00    -0.239 OA
HETATM   76  N   UNK N   1      32.221  11.922  -1.157  0.00  0.00    -0.335 N 
HETATM   77  H   UNK N   1      31.900  12.056  -2.077  0.00  0.00     0.164 HD
BRANCH  76  78
HETATM   78  C   UNK N   1      33.542  12.402  -0.838  0.00  0.00     0.144 C 
BRANCH  78  79
HETATM   79  C   UNK N   1      34.307  12.641  -2.129  0.00  0.00     0.130 C 
BRANCH  79  80
HETATM   80  N   UNK N   1      34.240  14.044  -2.495  0.00  0.00    -0.429 N 
HETATM   81  H   UNK N   1      34.154  14.363  -3.460  0.00  0.00     0.149 HD
HETATM   82  H   UNK N   1      34.281  14.743  -1.754  0.00  0.00     0.149 HD
ENDBRANCH  79  80
ENDBRANCH  78  79
ENDBRANCH  76  78
ENDBRANCH  73  74
ENDBRANCH  27  73
BRANCH  20  83
HETATM   83  C   UNK N   1      36.042  13.629   5.877  0.00  0.00    -0.026 A 
HETATM   84  C   UNK N   1      35.754  12.267   6.035  0.00  0.00     0.010 A 
HETATM   85  C   UNK N   1      36.741  11.395   6.491  0.00  0.00     0.001 A 
HETATM   86  C   UNK N   1      38.010  11.884   6.811  0.00  0.00     0.000 A 
HETATM   87  C   UNK N   1      38.296  13.245   6.667  0.00  0.00     0.001 A 
HETATM   88  C   UNK N   1      37.312  14.117   6.195  0.00  0.00     0.010 A 
ENDBRANCH  20  83
TORSDOF 20
ENDMDL
MODEL 3
REMARK VINA RESULT:      -8.7      3.309      5.496
REMARK  20 active torsions:
REMARK  status: ('A' for Active; 'I' for Inactive)
REMARK    1  A    between atoms: C_1  and  C_2 
REMARK    2  A    between atoms: C_2  and  C_5 
REMARK    3  A    between atoms: C_5  and  C_6 
REMARK    4  A    between atoms: C_6  and  C_7 
REMARK    5  A    between atoms: C_7  and  N_8 
REMARK    6  A    between atoms: C_12  and  C_15 
REMARK    7  A    between atoms: C_15  and  C_69 
REMARK    8  A    between atoms: C_16  and  C_17 
REMARK    9  A    between atoms: C_17  and  C_21 
REMARK   10  A    between atoms: C_24  and  O_27 
REMARK   11  A    between atoms: O_27  and  C_28 
REMARK   12  A    between atoms: C_28  and  C_29 
REMARK   13  A    between atoms: C_35  and  C_37 
REMARK   14  A    between atoms: C_37  and  C_38 
REMARK   15  A    between atoms: C_48  and  C_49 
REMARK   16  A    between atoms: C_61  and  O_62 
REMARK   17  A    between atoms: O_62  and  C_63 
REMARK       I    between atoms: C_63  and  N_65 
REMARK   18  A    between atoms: N_65  and  C_66 
REMARK   19  A    between atoms: C_66  and  C_67 
REMARK   20  A    between atoms: C_67  and  N_68 
ROOT
HETATM    1  C   UNK N   1      31.156  16.812   7.846  0.00  0.00     0.176 C 
HETATM    2  N   UNK N   1      32.470  16.374   8.210  0.00  0.00    -0.346 N 
HETATM    3  C   UNK N   1      30.456  16.060   6.765  0.00  0.00     0.241 C 
HETATM    4  N   UNK N   1      29.277  16.496   6.297  0.00  0.00    -0.346 N 
HETATM    5  O   UNK N   1      30.963  15.052   6.297  0.00  0.00    -0.271 OA
HETATM    6  C   UNK N   1      32.761  15.092   8.526  0.00  0.00     0.241 C 
HETATM    7  C   UNK N   1      34.198  14.736   8.705  0.00  0.00     0.181 C 
HETATM    8  O   UNK N   1      31.886  14.242   8.626  0.00  0.00    -0.271 OA
HETATM    9  N   UNK N   1      34.834  14.221   7.507  0.00  0.00    -0.345 N 
HETATM   10  C   UNK N   1      28.602  15.807   5.228  0.00  0.00     0.180 C 
HETATM   11  C   UNK N   1      28.671  16.511   3.907  0.00  0.00     0.241 C 
HETATM   12  O   UNK N   1      28.417  17.704   3.862  0.00  0.00    -0.271 OA
HETATM   13  N   UNK N   1      29.077  15.883   2.784  0.00  0.00    -0.346 N 
HETATM   14  C   UNK N   1      29.405  14.481   2.762  0.00  0.00     0.181 C 
HETATM   15  C   UNK N   1      30.916  14.371   2.880  0.00  0.00     0.243 C 
HETATM   16  N   UNK N   1      31.689  13.536   2.108  0.00  0.00    -0.334 N 
HETATM   17  O   UNK N   1      31.438  15.064   3.727  0.00  0.00    -0.271 OA
HETATM   18  C   UNK N   1      34.649  14.765   6.262  0.00  0.00     0.245 C 
HETATM   19  O   UNK N   1      33.816  15.637   6.072  0.00  0.00    -0.271 OA
HETATM   20  C   UNK N   1      35.479  14.337   5.096  0.00  0.00     0.210 C 
HETATM   21  N   UNK N   1      34.660  13.639   4.140  0.00  0.00    -0.342 N 
HETATM   22  C   UNK N   1      33.912  14.243   3.187  0.00  0.00     0.241 C 
HETATM   23  O   UNK N   1      33.933  15.461   3.057  0.00  0.00    -0.271 OA
HETATM   24  C   UNK N   1      33.121  13.389   2.232  0.00  0.00     0.181 C 
HETATM   25  C   UNK N   1      31.161  12.476   1.310  0.00  0.00     0.159 C 
HETATM   26  C   UNK N   1      33.243  11.904   2.483  0.00  0.00     0.069 C 
HETATM   27  C   UNK N   1      32.137  11.318   1.607  0.00  0.00     0.154 C 
HETATM   28  H   UNK N   1      33.196  17.037   8.230  0.00  0.00     0.163 HD
HETATM   29  H   UNK N   1      28.867  17.301   6.689  0.00  0.00     0.163 HD
HETATM   30  H   UNK N   1      35.429  13.442   7.592  0.00  0.00     0.163 HD
HETATM   31  H   UNK N   1      29.151  16.401   1.951  0.00  0.00     0.163 HD
HETATM   32  H   UNK N   1      34.642  12.655   4.181  0.00  0.00     0.163 HD
ENDROOT
BRANCH  10  33
HETATM   33  C   UNK N   1      28.222  14.316   5.475  0.00  0.00     0.073 C 
BRANCH  33  34
HETATM   34  C   UNK N   1      26.757  14.343   5.362  0.00  0.00    -0.056 C 
HETATM   35  C   UNK N   1      26.110  13.107   5.468  0.00  0.00     0.010 C 
HETATM   36  C   UNK N   1      24.930  13.017   6.190  0.00  0.00     0.037 C 
HETATM   37  C   UNK N   1      24.402  14.167   6.799  0.00  0.00     0.069 C 
HETATM   38  C   UNK N   1      24.955  15.418   6.539  0.00  0.00     0.037 C 
HETATM   39  C   UNK N   1      26.149  15.502   5.840  0.00  0.00     0.010 C 
BRANCH  37  40
HETATM   40  O   UNK N   1      23.442  14.078   7.733  0.00  0.00    -0.347 OA
BRANCH  40  41
HETATM   41  C   UNK N   1      22.794  12.892   7.977  0.00  0.00     0.214 C 
BRANCH  41  42
HETATM   42  C   UNK N   1      22.918  12.590   9.405  0.00  0.00    -0.034 A 
HETATM   43  C   UNK N   1      24.177  12.363   9.960  0.00  0.00     0.009 A 
HETATM   44  C   UNK N   1      24.287  12.022  11.308  0.00  0.00     0.001 A 
HETATM   45  C   UNK N   1      23.134  11.904  12.093  0.00  0.00     0.000 A 
HETATM   46  C   UNK N   1      21.874  12.134  11.531  0.00  0.00     0.001 A 
HETATM   47  C   UNK N   1      21.767  12.476  10.185  0.00  0.00     0.009 A 
ENDBRANCH  41  42
ENDBRANCH  40  41
ENDBRANCH  37  40
ENDBRANCH  33  34
ENDBRANCH  10  33
BRANCH   1  48
HETATM   48  C   UNK N   1      30.581  17.988   8.598  0.00  0.00     0.035 C 
BRANCH  48  49
HETATM   49  C   UNK N   1      29.552  17.454   9.557  0.00  0.00     0.004 C 
BRANCH  49  50
HETATM   50  C   UNK N   1      28.188  17.991   9.192  0.00  0.00     0.019 C 
BRANCH  50  51
HETATM   51  C   UNK N   1      28.345  19.073   8.145  0.00  0.00     0.111 C 
BRANCH  51  52
HETATM   52  N   UNK N   1      27.115  19.837   8.040  0.00  0.00    -0.430 N 
HETATM   53  H   UNK N   1      26.241  19.472   8.418  0.00  0.00     0.149 HD
HETATM   54  H   UNK N   1      27.126  20.749   7.582  0.00  0.00     0.149 HD
ENDBRANCH  51  52
ENDBRANCH  50  51
ENDBRANCH  49  50
ENDBRANCH  48  49
ENDBRANCH   1  48
BRANCH  14  55
HETATM   55  C   UNK N   1      28.709  13.860   1.554  0.00  0.00     0.073 C 
BRANCH  55  56
HETATM   56  C   UNK N   1      27.252  13.572   1.789  0.00  0.00    -0.056 A 
HETATM   57  C   UNK N   1      26.297  14.601   1.849  0.00  0.00     0.007 A 
HETATM   58  C   UNK N   1      24.948  14.302   2.056  0.00  0.00     0.001 A 
HETATM   59  C   UNK N   1      24.541  12.972   2.185  0.00  0.00     0.000 A 
HETATM   60  C   UNK N   1      25.483  11.944   2.107  0.00  0.00     0.001 A 
HETATM   61  C   UNK N   1      26.836  12.244   1.913  0.00  0.00     0.007 A 
ENDBRANCH  55  56
ENDBRANCH  14  55
BRANCH   7  62
HETATM   62  C   UNK N   1      34.469  13.944   9.992  0.00  0.00     0.075 C 
BRANCH  62  63
HETATM   63  C   UNK N   1      35.955  13.971  10.178  0.00  0.00    -0.028 A 
HETATM   64  C   UNK N   1      36.798  12.910   9.988  0.00  0.00    -0.002 A 
HETATM   65  C   UNK N   1      38.066  13.400  10.039  0.00  0.00     0.042 A 
HETATM   66  C   UNK N   1      36.526  11.571   9.714  0.00  0.00     0.014 A 
HETATM   67  N   UNK N   1      38.064  14.727  10.271  0.00  0.00    -0.365 N 
HETATM   68  C   UNK N   1      39.172  12.584   9.819  0.00  0.00     0.030 A 
HETATM   69  C   UNK N   1      36.758  15.093  10.352  0.00  0.00     0.096 A 
HETATM   70  H   UNK N   1      38.849  15.313  10.364  0.00  0.00     0.165 HD
HETATM   71  C   UNK N   1      38.937  11.221   9.548  0.00  0.00     0.002 A 
HETATM   72  C   UNK N   1      37.619  10.716   9.500  0.00  0.00     0.001 A 
ENDBRANCH  62  63
ENDBRANCH   7  62
BRANCH  27  73
HETATM   73  O   UNK N   1      32.635  10.719   0.461  0.00  0.00    -0.297 OA
BRANCH  73  74
HETATM   74  C   UNK N   1      32.738  11.310  -0.763  0.00  0.00     0.361 C 
HETATM   75  O   UNK N   1      33.651  12.092  -0.957  0.00  0.00    -0.239 OA
HETATM   76  N   UNK N   1      31.808  11.137  -1.742  0.00  0.00    -0.335 N 
HETATM   77  H   UNK N   1      31.952  11.611  -2.592  0.00  0.00     0.164 HD
BRANCH  76  78
HETATM   78  C   UNK N   1      30.631  10.312  -1.631  0.00  0.00     0.144 C 
BRANCH  78  79
HETATM   79  C   UNK N   1      30.053  10.088  -3.019  0.00  0.00     0.130 C 
BRANCH  79  80
HETATM   80  N   UNK N   1      29.967  11.348  -3.732  0.00  0.00    -0.429 N 
HETATM   81  H   UNK N   1      30.517  12.169  -3.479  0.00  0.00     0.149 HD
HETATM   82  H   UNK N   1      29.327  11.417  -4.523  0.00  0.00     0.149 HD
ENDBRANCH  79  80
ENDBRANCH  78  79
ENDBRANCH  76  78
ENDBRANCH  73  74
ENDBRANCH  27  73
BRANCH  20  83
HETATM   83  C   UNK N   1      36.634  13.486   5.499  0.00  0.00    -0.026 A 
HETATM   84  C   UNK N   1      37.863  14.063   5.845  0.00  0.00     0.010 A 
HETATM   85  C   UNK N   1      38.942  13.251   6.192  0.00  0.00     0.001 A 
HETATM   86  C   UNK N   1      38.802  11.860   6.173  0.00  0.00     0.000 A 
HETATM   87  C   UNK N   1      37.580  11.282   5.816  0.00  0.00     0.001 A 
HETATM   88  C   UNK N   1      36.494  12.095   5.483  0.00  0.00     0.010 A 
ENDBRANCH  20  83
TORSDOF 20
ENDMDL
MODEL 4
REMARK VINA RESULT:      -8.7      3.468      5.820
REMARK  20 active torsions:
REMARK  status: ('A' for Active; 'I' for Inactive)
REMARK    1  A    between atoms: C_1  and  C_2 
REMARK    2  A    between atoms: C_2  and  C_5 
REMARK    3  A    between atoms: C_5  and  C_6 
REMARK    4  A    between atoms: C_6  and  C_7 
REMARK    5  A    between atoms: C_7  and  N_8 
REMARK    6  A    between atoms: C_12  and  C_15 
REMARK    7  A    between atoms: C_15  and  C_69 
REMARK    8  A    between atoms: C_16  and  C_17 
REMARK    9  A    between atoms: C_17  and  C_21 
REMARK   10  A    between atoms: C_24  and  O_27 
REMARK   11  A    between atoms: O_27  and  C_28 
REMARK   12  A    between atoms: C_28  and  C_29 
REMARK   13  A    between atoms: C_35  and  C_37 
REMARK   14  A    between atoms: C_37  and  C_38 
REMARK   15  A    between atoms: C_48  and  C_49 
REMARK   16  A    between atoms: C_61  and  O_62 
REMARK   17  A    between atoms: O_62  and  C_63 
REMARK       I    between atoms: C_63  and  N_65 
REMARK   18  A    between atoms: N_65  and  C_66 
REMARK   19  A    between atoms: C_66  and  C_67 
REMARK   20  A    between atoms: C_67  and  N_68 
ROOT
HETATM    1  C   UNK N   1      31.000  17.742   8.029  0.00  0.00     0.176 C 
HETATM    2  N   UNK N   1      32.250  17.171   8.430  0.00  0.00    -0.346 N 
HETATM    3  C   UNK N   1      30.214  17.014   6.992  0.00  0.00     0.241 C 
HETATM    4  N   UNK N   1      29.097  17.561   6.487  0.00  0.00    -0.346 N 
HETATM    5  O   UNK N   1      30.595  15.925   6.592  0.00  0.00    -0.271 OA
HETATM    6  C   UNK N   1      32.382  15.886   8.829  0.00  0.00     0.241 C 
HETATM    7  C   UNK N   1      33.766  15.370   9.041  0.00  0.00     0.181 C 
HETATM    8  O   UNK N   1      31.410  15.157   8.975  0.00  0.00    -0.271 OA
HETATM    9  N   UNK N   1      34.335  14.707   7.883  0.00  0.00    -0.345 N 
HETATM   10  C   UNK N   1      28.344  16.892   5.459  0.00  0.00     0.180 C 
HETATM   11  C   UNK N   1      28.499  17.498   4.097  0.00  0.00     0.241 C 
HETATM   12  O   UNK N   1      28.392  18.708   3.975  0.00  0.00    -0.271 OA
HETATM   13  N   UNK N   1      28.826  16.756   3.019  0.00  0.00    -0.346 N 
HETATM   14  C   UNK N   1      28.980  15.326   3.087  0.00  0.00     0.181 C 
HETATM   15  C   UNK N   1      30.467  15.040   3.223  0.00  0.00     0.243 C 
HETATM   16  N   UNK N   1      31.133  14.071   2.512  0.00  0.00    -0.334 N 
HETATM   17  O   UNK N   1      31.069  15.716   4.030  0.00  0.00    -0.271 OA
HETATM   18  C   UNK N   1      34.218  15.190   6.605  0.00  0.00     0.245 C 
HETATM   19  O   UNK N   1      33.498  16.143   6.354  0.00  0.00    -0.271 OA
HETATM   20  C   UNK N   1      34.991  14.591   5.475  0.00  0.00     0.210 C 
HETATM   21  N   UNK N   1      34.092  13.939   4.558  0.00  0.00    -0.342 N 
HETATM   22  C   UNK N   1      33.424  14.569   3.563  0.00  0.00     0.241 C 
HETATM   23  O   UNK N   1      33.593  15.764   3.357  0.00  0.00    -0.271 OA
HETATM   24  C   UNK N   1      32.535  13.758   2.657  0.00  0.00     0.181 C 
HETATM   25  C   UNK N   1      30.479  13.034   1.778  0.00  0.00     0.159 C 
HETATM   26  C   UNK N   1      32.476  12.289   3.000  0.00  0.00     0.069 C 
HETATM   27  C   UNK N   1      31.306  11.788   2.155  0.00  0.00     0.154 C 
HETATM   28  H   UNK N   1      33.052  17.742   8.415  0.00  0.00     0.163 HD
HETATM   29  H   UNK N   1      28.788  18.432   6.825  0.00  0.00     0.163 HD
HETATM   30  H   UNK N   1      34.831  13.868   8.021  0.00  0.00     0.163 HD
HETATM   31  H   UNK N   1      28.963  17.207   2.155  0.00  0.00     0.163 HD
HETATM   32  H   UNK N   1      33.955  12.969   4.660  0.00  0.00     0.163 HD
ENDROOT
BRANCH  10  33
HETATM   33  C   UNK N   1      27.785  15.478   5.795  0.00  0.00     0.073 C 
BRANCH  33  34
HETATM   34  C   UNK N   1      26.437  15.783   6.295  0.00  0.00    -0.056 C 
HETATM   35  C   UNK N   1      25.652  16.609   5.482  0.00  0.00     0.010 C 
HETATM   36  C   UNK N   1      24.307  16.320   5.318  0.00  0.00     0.037 C 
HETATM   37  C   UNK N   1      23.752  15.208   5.973  0.00  0.00     0.069 C 
HETATM   38  C   UNK N   1      24.496  14.503   6.915  0.00  0.00     0.037 C 
HETATM   39  C   UNK N   1      25.847  14.776   7.056  0.00  0.00     0.010 C 
BRANCH  37  40
HETATM   40  O   UNK N   1      22.550  14.726   5.622  0.00  0.00    -0.347 OA
BRANCH  40  41
HETATM   41  C   UNK N   1      21.534  15.563   5.228  0.00  0.00     0.214 C 
BRANCH  41  42
HETATM   42  C   UNK N   1      21.160  15.210   3.855  0.00  0.00    -0.034 A 
HETATM   43  C   UNK N   1      20.751  13.910   3.559  0.00  0.00     0.009 A 
HETATM   44  C   UNK N   1      20.449  13.564   2.243  0.00  0.00     0.001 A 
HETATM   45  C   UNK N   1      20.562  14.520   1.227  0.00  0.00     0.000 A 
HETATM   46  C   UNK N   1      20.971  15.823   1.531  0.00  0.00     0.001 A 
HETATM   47  C   UNK N   1      21.272  16.167   2.846  0.00  0.00     0.009 A 
ENDBRANCH  41  42
ENDBRANCH  40  41
ENDBRANCH  37  40
ENDBRANCH  33  34
ENDBRANCH  10  33
BRANCH   1  48
HETATM   48  C   UNK N   1      30.573  19.025   8.701  0.00  0.00     0.035 C 
BRANCH  48  49
HETATM   49  C   UNK N   1      29.837  18.654   9.960  0.00  0.00     0.004 C 
BRANCH  49  50
HETATM   50  C   UNK N   1      28.532  17.979   9.608  0.00  0.00     0.019 C 
BRANCH  50  51
HETATM   51  C   UNK N   1      28.464  16.637  10.307  0.00  0.00     0.111 C 
BRANCH  51  52
HETATM   52  N   UNK N   1      29.668  16.430  11.091  0.00  0.00    -0.430 N 
HETATM   53  H   UNK N   1      30.360  17.173  11.190  0.00  0.00     0.149 HD
HETATM   54  H   UNK N   1      29.824  15.531  11.548  0.00  0.00     0.149 HD
ENDBRANCH  51  52
ENDBRANCH  50  51
ENDBRANCH  49  50
ENDBRANCH  48  49
ENDBRANCH   1  48
BRANCH  14  55
HETATM   55  C   UNK N   1      28.214  14.719   1.914  0.00  0.00     0.073 C 
BRANCH  55  56
HETATM   56  C   UNK N   1      26.826  14.268   2.279  0.00  0.00    -0.056 A 
HETATM   57  C   UNK N   1      25.685  14.876   1.730  0.00  0.00     0.007 A 
HETATM   58  C   UNK N   1      24.409  14.427   2.079  0.00  0.00     0.001 A 
HETATM   59  C   UNK N   1      24.264  13.355   2.963  0.00  0.00     0.000 A 
HETATM   60  C   UNK N   1      25.397  12.734   3.497  0.00  0.00     0.001 A 
HETATM   61  C   UNK N   1      26.674  13.192   3.158  0.00  0.00     0.007 A 
ENDBRANCH  55  56
ENDBRANCH  14  55
BRANCH   7  62
HETATM   62  C   UNK N   1      33.937  14.634  10.377  0.00  0.00     0.075 C 
BRANCH  62  63
HETATM   63  C   UNK N   1      35.413  14.451  10.552  0.00  0.00    -0.028 A 
HETATM   64  C   UNK N   1      36.072  13.251  10.536  0.00  0.00    -0.002 A 
HETATM   65  C   UNK N   1      37.402  13.532  10.501  0.00  0.00     0.042 A 
HETATM   66  C   UNK N   1      35.583  11.947  10.488  0.00  0.00     0.014 A 
HETATM   67  N   UNK N   1      37.617  14.862  10.511  0.00  0.00    -0.365 N 
HETATM   68  C   UNK N   1      38.359  12.524  10.415  0.00  0.00     0.030 A 
HETATM   69  C   UNK N   1      36.389  15.442  10.535  0.00  0.00     0.096 A 
HETATM   70  H   UNK N   1      38.488  15.321  10.503  0.00  0.00     0.165 HD
HETATM   71  C   UNK N   1      37.903  11.191  10.373  0.00  0.00     0.002 A 
HETATM   72  C   UNK N   1      36.520  10.904  10.414  0.00  0.00     0.001 A 
ENDBRANCH  62  63
ENDBRANCH   7  62
BRANCH  27  73
HETATM   73  O   UNK N   1      31.728  11.061   1.052  0.00  0.00    -0.297 OA
BRANCH  73  74
HETATM   74  C   UNK N   1      30.933  10.290   0.257  0.00  0.00     0.361 C 
HETATM   75  O   UNK N   1      30.364   9.335   0.754  0.00  0.00    -0.239 OA
HETATM   76  N   UNK N   1      30.828  10.486  -1.086  0.00  0.00    -0.335 N 
HETATM   77  H   UNK N   1      30.243   9.876  -1.588  0.00  0.00     0.164 HD
BRANCH  76  78
HETATM   78  C   UNK N   1      31.507  11.518  -1.829  0.00  0.00     0.144 C 
BRANCH  78  79
HETATM   79  C   UNK N   1      31.402  11.209  -3.314  0.00  0.00     0.130 C 
BRANCH  79  80
HETATM   80  N   UNK N   1      30.021  11.313  -3.746  0.00  0.00    -0.429 N 
HETATM   81  H   UNK N   1      29.750  11.398  -4.726  0.00  0.00     0.149 HD
HETATM   82  H   UNK N   1      29.287  11.301  -3.039  0.00  0.00     0.149 HD
ENDBRANCH  79  80
ENDBRANCH  78  79
ENDBRANCH  76  78
ENDBRANCH  73  74
ENDBRANCH  27  73
BRANCH  20  83
HETATM   83  C   UNK N   1      36.033  13.633   5.940  0.00  0.00    -0.026 A 
HETATM   84  C   UNK N   1      35.730  12.276   6.114  0.00  0.00     0.010 A 
HETATM   85  C   UNK N   1      36.708  11.398   6.579  0.00  0.00     0.001 A 
HETATM   86  C   UNK N   1      37.984  11.877   6.890  0.00  0.00     0.000 A 
HETATM   87  C   UNK N   1      38.284  13.233   6.729  0.00  0.00     0.001 A 
HETATM   88  C   UNK N   1      37.309  14.110   6.249  0.00  0.00     0.010 A 
ENDBRANCH  20  83
TORSDOF 20
ENDMDL
MODEL 5
REMARK VINA RESULT:      -8.2      3.176      5.369
REMARK  20 active torsions:
REMARK  status: ('A' for Active; 'I' for Inactive)
REMARK    1  A    between atoms: C_1  and  C_2 
REMARK    2  A    between atoms: C_2  and  C_5 
REMARK    3  A    between atoms: C_5  and  C_6 
REMARK    4  A    between atoms: C_6  and  C_7 
REMARK    5  A    between atoms: C_7  and  N_8 
REMARK    6  A    between atoms: C_12  and  C_15 
REMARK    7  A    between atoms: C_15  and  C_69 
REMARK    8  A    between atoms: C_16  and  C_17 
REMARK    9  A    between atoms: C_17  and  C_21 
REMARK   10  A    between atoms: C_24  and  O_27 
REMARK   11  A    between atoms: O_27  and  C_28 
REMARK   12  A    between atoms: C_28  and  C_29 
REMARK   13  A    between atoms: C_35  and  C_37 
REMARK   14  A    between atoms: C_37  and  C_38 
REMARK   15  A    between atoms: C_48  and  C_49 
REMARK   16  A    between atoms: C_61  and  O_62 
REMARK   17  A    between atoms: O_62  and  C_63 
REMARK       I    between atoms: C_63  and  N_65 
REMARK   18  A    between atoms: N_65  and  C_66 
REMARK   19  A    between atoms: C_66  and  C_67 
REMARK   20  A    between atoms: C_67  and  N_68 
ROOT
HETATM    1  C   UNK N   1      31.030  17.759   8.062  0.00  0.00     0.176 C 
HETATM    2  N   UNK N   1      32.283  17.222   8.499  0.00  0.00    -0.346 N 
HETATM    3  C   UNK N   1      30.286  17.002   7.014  0.00  0.00     0.241 C 
HETATM    4  N   UNK N   1      29.169  17.518   6.476  0.00  0.00    -0.346 N 
HETATM    5  O   UNK N   1      30.701  15.918   6.635  0.00  0.00    -0.271 OA
HETATM    6  C   UNK N   1      32.434  15.944   8.915  0.00  0.00     0.241 C 
HETATM    7  C   UNK N   1      33.823  15.462   9.167  0.00  0.00     0.181 C 
HETATM    8  O   UNK N   1      31.475  15.194   9.046  0.00  0.00    -0.271 OA
HETATM    9  N   UNK N   1      34.435  14.800   8.030  0.00  0.00    -0.345 N 
HETATM   10  C   UNK N   1      28.457  16.821   5.437  0.00  0.00     0.180 C 
HETATM   11  C   UNK N   1      28.632  17.416   4.073  0.00  0.00     0.241 C 
HETATM   12  O   UNK N   1      28.500  18.621   3.935  0.00  0.00    -0.271 OA
HETATM   13  N   UNK N   1      29.001  16.670   3.011  0.00  0.00    -0.346 N 
HETATM   14  C   UNK N   1      29.187  15.245   3.099  0.00  0.00     0.181 C 
HETATM   15  C   UNK N   1      30.675  14.995   3.275  0.00  0.00     0.243 C 
HETATM   16  N   UNK N   1      31.381  14.034   2.591  0.00  0.00    -0.334 N 
HETATM   17  O   UNK N   1      31.242  15.693   4.088  0.00  0.00    -0.271 OA
HETATM   18  C   UNK N   1      34.338  15.267   6.744  0.00  0.00     0.245 C 
HETATM   19  O   UNK N   1      33.603  16.201   6.465  0.00  0.00    -0.271 OA
HETATM   20  C   UNK N   1      35.152  14.675   5.640  0.00  0.00     0.210 C 
HETATM   21  N   UNK N   1      34.292  13.992   4.708  0.00  0.00    -0.342 N 
HETATM   22  C   UNK N   1      33.634  14.595   3.691  0.00  0.00     0.241 C 
HETATM   23  O   UNK N   1      33.781  15.792   3.475  0.00  0.00    -0.271 OA
HETATM   24  C   UNK N   1      32.786  13.755   2.773  0.00  0.00     0.181 C 
HETATM   25  C   UNK N   1      30.769  12.975   1.852  0.00  0.00     0.159 C 
HETATM   26  C   UNK N   1      32.752  12.288   3.131  0.00  0.00     0.069 C 
HETATM   27  C   UNK N   1      31.615  11.751   2.263  0.00  0.00     0.154 C 
HETATM   28  H   UNK N   1      33.071  17.810   8.497  0.00  0.00     0.163 HD
HETATM   29  H   UNK N   1      28.833  18.385   6.797  0.00  0.00     0.163 HD
HETATM   30  H   UNK N   1      34.946  13.974   8.190  0.00  0.00     0.163 HD
HETATM   31  H   UNK N   1      29.149  17.115   2.146  0.00  0.00     0.163 HD
HETATM   32  H   UNK N   1      34.174  13.020   4.819  0.00  0.00     0.163 HD
ENDROOT
BRANCH  10  33
HETATM   33  C   UNK N   1      27.923  15.398   5.776  0.00  0.00     0.073 C 
BRANCH  33  34
HETATM   34  C   UNK N   1      26.576  15.682   6.294  0.00  0.00    -0.056 C 
HETATM   35  C   UNK N   1      25.822  16.610   5.567  0.00  0.00     0.010 C 
HETATM   36  C   UNK N   1      24.472  16.374   5.361  0.00  0.00     0.037 C 
HETATM   37  C   UNK N   1      23.882  15.214   5.889  0.00  0.00     0.069 C 
HETATM   38  C   UNK N   1      24.598  14.393   6.756  0.00  0.00     0.037 C 
HETATM   39  C   UNK N   1      25.954  14.615   6.938  0.00  0.00     0.010 C 
BRANCH  37  40
HETATM   40  O   UNK N   1      22.673  14.803   5.478  0.00  0.00    -0.347 OA
BRANCH  40  41
HETATM   41  C   UNK N   1      21.964  13.859   6.181  0.00  0.00     0.214 C 
BRANCH  41  42
HETATM   42  C   UNK N   1      21.154  14.552   7.186  0.00  0.00    -0.034 A 
HETATM   43  C   UNK N   1      21.057  14.036   8.477  0.00  0.00     0.009 A 
HETATM   44  C   UNK N   1      20.241  14.668   9.415  0.00  0.00     0.001 A 
HETATM   45  C   UNK N   1      19.521  15.811   9.053  0.00  0.00     0.000 A 
HETATM   46  C   UNK N   1      19.623  16.326   7.756  0.00  0.00     0.001 A 
HETATM   47  C   UNK N   1      20.439  15.693   6.822  0.00  0.00     0.009 A 
ENDBRANCH  41  42
ENDBRANCH  40  41
ENDBRANCH  37  40
ENDBRANCH  33  34
ENDBRANCH  10  33
BRANCH   1  48
HETATM   48  C   UNK N   1      30.557  19.039   8.709  0.00  0.00     0.035 C 
BRANCH  48  49
HETATM   49  C   UNK N   1      29.813  18.665   9.962  0.00  0.00     0.004 C 
BRANCH  49  50
HETATM   50  C   UNK N   1      28.506  18.000   9.602  0.00  0.00     0.019 C 
BRANCH  50  51
HETATM   51  C   UNK N   1      28.453  16.630  10.246  0.00  0.00     0.111 C 
BRANCH  51  52
HETATM   52  N   UNK N   1      29.636  16.425  11.061  0.00  0.00    -0.430 N 
HETATM   53  H   UNK N   1      29.556  16.255  12.063  0.00  0.00     0.149 HD
HETATM   54  H   UNK N   1      30.558  16.450  10.626  0.00  0.00     0.149 HD
ENDBRANCH  51  52
ENDBRANCH  50  51
ENDBRANCH  49  50
ENDBRANCH  48  49
ENDBRANCH   1  48
BRANCH  14  55
HETATM   55  C   UNK N   1      28.464  14.608   1.915  0.00  0.00     0.073 C 
BRANCH  55  56
HETATM   56  C   UNK N   1      27.035  14.246   2.215  0.00  0.00    -0.056 A 
HETATM   57  C   UNK N   1      26.706  13.142   3.019  0.00  0.00     0.007 A 
HETATM   58  C   UNK N   1      25.369  12.839   3.290  0.00  0.00     0.001 A 
HETATM   59  C   UNK N   1      24.353  13.648   2.777  0.00  0.00     0.000 A 
HETATM   60  C   UNK N   1      24.675  14.759   1.993  0.00  0.00     0.001 A 
HETATM   61  C   UNK N   1      26.013  15.055   1.710  0.00  0.00     0.007 A 
ENDBRANCH  55  56
ENDBRANCH  14  55
BRANCH   7  62
HETATM   62  C   UNK N   1      33.979  14.744  10.514  0.00  0.00     0.075 C 
BRANCH  62  63
HETATM   63  C   UNK N   1      35.444  14.468  10.659  0.00  0.00    -0.028 A 
HETATM   64  C   UNK N   1      36.021  13.227  10.654  0.00  0.00    -0.002 A 
HETATM   65  C   UNK N   1      37.366  13.419  10.582  0.00  0.00     0.042 A 
HETATM   66  C   UNK N   1      35.447  11.958  10.646  0.00  0.00     0.014 A 
HETATM   67  N   UNK N   1      37.668  14.731  10.558  0.00  0.00    -0.365 N 
HETATM   68  C   UNK N   1      38.252  12.348  10.497  0.00  0.00     0.030 A 
HETATM   69  C   UNK N   1      36.481  15.392  10.598  0.00  0.00     0.096 A 
HETATM   70  H   UNK N   1      38.567  15.132  10.520  0.00  0.00     0.165 HD
HETATM   71  C   UNK N   1      37.708  11.048  10.495  0.00  0.00     0.002 A 
HETATM   72  C   UNK N   1      36.311  10.853  10.574  0.00  0.00     0.001 A 
ENDBRANCH  62  63
ENDBRANCH   7  62
BRANCH  27  73
HETATM   73  O   UNK N   1      32.080  11.023   1.179  0.00  0.00    -0.297 OA
BRANCH  73  74
HETATM   74  C   UNK N   1      31.908  11.353  -0.132  0.00  0.00     0.361 C 
HETATM   75  O   UNK N   1      32.606  12.231  -0.608  0.00  0.00    -0.239 OA
HETATM   76  N   UNK N   1      30.925  10.812  -0.902  0.00  0.00    -0.335 N 
HETATM   77  H   UNK N   1      30.861  11.117  -1.835  0.00  0.00     0.164 HD
BRANCH  76  78
HETATM   78  C   UNK N   1      29.970   9.829  -0.457  0.00  0.00     0.144 C 
BRANCH  78  79
HETATM   79  C   UNK N   1      28.743  10.542   0.089  0.00  0.00     0.130 C 
BRANCH  79  80
HETATM   80  N   UNK N   1      28.470  10.097   1.442  0.00  0.00    -0.429 N 
HETATM   81  H   UNK N   1      29.186  10.045   2.166  0.00  0.00     0.149 HD
HETATM   82  H   UNK N   1      27.517   9.822   1.681  0.00  0.00     0.149 HD
ENDBRANCH  79  80
ENDBRANCH  78  79
ENDBRANCH  76  78
ENDBRANCH  73  74
ENDBRANCH  27  73
BRANCH  20  83
HETATM   83  C   UNK N   1      36.204  13.745   6.141  0.00  0.00    -0.026 A 
HETATM   84  C   UNK N   1      37.519  14.189   6.332  0.00  0.00     0.010 A 
HETATM   85  C   UNK N   1      38.498  13.299   6.773  0.00  0.00     0.001 A 
HETATM   86  C   UNK N   1      38.170  11.960   7.004  0.00  0.00     0.000 A 
HETATM   87  C   UNK N   1      36.861  11.513   6.802  0.00  0.00     0.001 A 
HETATM   88  C   UNK N   1      35.877  12.407   6.374  0.00  0.00     0.010 A 
ENDBRANCH  20  83
TORSDOF 20
ENDMDL
MODEL 6
REMARK VINA RESULT:      -7.9      3.653      6.135
REMARK  20 active torsions:
REMARK  status: ('A' for Active; 'I' for Inactive)
REMARK    1  A    between atoms: C_1  and  C_2 
REMARK    2  A    between atoms: C_2  and  C_5 
REMARK    3  A    between atoms: C_5  and  C_6 
REMARK    4  A    between atoms: C_6  and  C_7 
REMARK    5  A    between atoms: C_7  and  N_8 
REMARK    6  A    between atoms: C_12  and  C_15 
REMARK    7  A    between atoms: C_15  and  C_69 
REMARK    8  A    between atoms: C_16  and  C_17 
REMARK    9  A    between atoms: C_17  and  C_21 
REMARK   10  A    between atoms: C_24  and  O_27 
REMARK   11  A    between atoms: O_27  and  C_28 
REMARK   12  A    between atoms: C_28  and  C_29 
REMARK   13  A    between atoms: C_35  and  C_37 
REMARK   14  A    between atoms: C_37  and  C_38 
REMARK   15  A    between atoms: C_48  and  C_49 
REMARK   16  A    between atoms: C_61  and  O_62 
REMARK   17  A    between atoms: O_62  and  C_63 
REMARK       I    between atoms: C_63  and  N_65 
REMARK   18  A    between atoms: N_65  and  C_66 
REMARK   19  A    between atoms: C_66  and  C_67 
REMARK   20  A    between atoms: C_67  and  N_68 
ROOT
HETATM    1  C   UNK N   1      31.768  16.624   7.802  0.00  0.00     0.176 C 
HETATM    2  N   UNK N   1      32.962  15.886   8.087  0.00  0.00    -0.346 N 
HETATM    3  C   UNK N   1      30.860  16.082   6.750  0.00  0.00     0.241 C 
HETATM    4  N   UNK N   1      29.792  16.791   6.353  0.00  0.00    -0.346 N 
HETATM    5  O   UNK N   1      31.097  14.998   6.240  0.00  0.00    -0.271 OA
HETATM    6  C   UNK N   1      32.964  14.563   8.368  0.00  0.00     0.241 C 
HETATM    7  C   UNK N   1      34.287  13.882   8.463  0.00  0.00     0.181 C 
HETATM    8  O   UNK N   1      31.922  13.934   8.503  0.00  0.00    -0.271 OA
HETATM    9  N   UNK N   1      34.727  13.267   7.224  0.00  0.00    -0.345 N 
HETATM   10  C   UNK N   1      28.924  16.304   5.313  0.00  0.00     0.180 C 
HETATM   11  C   UNK N   1      29.088  17.008   4.001  0.00  0.00     0.241 C 
HETATM   12  O   UNK N   1      29.114  18.229   3.988  0.00  0.00    -0.271 OA
HETATM   13  N   UNK N   1      29.282  16.335   2.848  0.00  0.00    -0.346 N 
HETATM   14  C   UNK N   1      29.275  14.896   2.788  0.00  0.00     0.181 C 
HETATM   15  C   UNK N   1      30.724  14.439   2.820  0.00  0.00     0.243 C 
HETATM   16  N   UNK N   1      31.245  13.470   1.996  0.00  0.00    -0.334 N 
HETATM   17  O   UNK N   1      31.434  14.970   3.648  0.00  0.00    -0.271 OA
HETATM   18  C   UNK N   1      34.610  13.873   6.000  0.00  0.00     0.245 C 
HETATM   19  O   UNK N   1      33.993  14.918   5.868  0.00  0.00    -0.271 OA
HETATM   20  C   UNK N   1      35.261  13.297   4.784  0.00  0.00     0.210 C 
HETATM   21  N   UNK N   1      34.256  12.832   3.863  0.00  0.00    -0.342 N 
HETATM   22  C   UNK N   1      33.621  13.618   2.962  0.00  0.00     0.241 C 
HETATM   23  O   UNK N   1      33.916  14.801   2.849  0.00  0.00    -0.271 OA
HETATM   24  C   UNK N   1      32.607  12.994   2.039  0.00  0.00     0.181 C 
HETATM   25  C   UNK N   1      30.446  12.581   1.212  0.00  0.00     0.159 C 
HETATM   26  C   UNK N   1      32.396  11.515   2.260  0.00  0.00     0.069 C 
HETATM   27  C   UNK N   1      31.142  11.223   1.438  0.00  0.00     0.154 C 
HETATM   28  H   UNK N   1      33.821  16.364   8.077  0.00  0.00     0.163 HD
HETATM   29  H   UNK N   1      29.599  17.657   6.779  0.00  0.00     0.163 HD
HETATM   30  H   UNK N   1      35.129  12.370   7.265  0.00  0.00     0.163 HD
HETATM   31  H   UNK N   1      29.432  16.844   2.019  0.00  0.00     0.163 HD
HETATM   32  H   UNK N   1      34.013  11.878   3.891  0.00  0.00     0.163 HD
ENDROOT
BRANCH  10  33
HETATM   33  C   UNK N   1      28.223  14.934   5.558  0.00  0.00     0.073 C 
BRANCH  33  34
HETATM   34  C   UNK N   1      26.944  15.339   6.159  0.00  0.00    -0.056 C 
HETATM   35  C   UNK N   1      26.411  16.553   5.711  0.00  0.00     0.010 C 
HETATM   36  C   UNK N   1      25.049  16.652   5.480  0.00  0.00     0.037 C 
HETATM   37  C   UNK N   1      24.225  15.536   5.702  0.00  0.00     0.069 C 
HETATM   38  C   UNK N   1      24.736  14.396   6.314  0.00  0.00     0.037 C 
HETATM   39  C   UNK N   1      26.102  14.288   6.519  0.00  0.00     0.010 C 
BRANCH  37  40
HETATM   40  O   UNK N   1      22.972  15.494   5.224  0.00  0.00    -0.347 OA
BRANCH  40  41
HETATM   41  C   UNK N   1      22.158  16.601   5.258  0.00  0.00     0.214 C 
BRANCH  41  42
HETATM   42  C   UNK N   1      21.518  16.737   3.947  0.00  0.00    -0.034 A 
HETATM   43  C   UNK N   1      21.082  17.989   3.514  0.00  0.00     0.009 A 
HETATM   44  C   UNK N   1      20.425  18.105   2.290  0.00  0.00     0.001 A 
HETATM   45  C   UNK N   1      20.201  16.967   1.508  0.00  0.00     0.000 A 
HETATM   46  C   UNK N   1      20.641  15.714   1.947  0.00  0.00     0.001 A 
HETATM   47  C   UNK N   1      21.299  15.600   3.169  0.00  0.00     0.009 A 
ENDBRANCH  41  42
ENDBRANCH  40  41
ENDBRANCH  37  40
ENDBRANCH  33  34
ENDBRANCH  10  33
BRANCH   1  48
HETATM   48  C   UNK N   1      31.518  17.880   8.601  0.00  0.00     0.035 C 
BRANCH  48  49
HETATM   49  C   UNK N   1      30.322  17.629   9.478  0.00  0.00     0.004 C 
BRANCH  49  50
HETATM   50  C   UNK N   1      29.451  18.862   9.518  0.00  0.00     0.019 C 
BRANCH  50  51
HETATM   51  C   UNK N   1      28.185  18.601   8.728  0.00  0.00     0.111 C 
BRANCH  51  52
HETATM   52  N   UNK N   1      27.627  17.315   9.107  0.00  0.00    -0.430 N 
HETATM   53  H   UNK N   1      26.654  17.235   9.401  0.00  0.00     0.149 HD
HETATM   54  H   UNK N   1      28.216  16.482   9.078  0.00  0.00     0.149 HD
ENDBRANCH  51  52
ENDBRANCH  50  51
ENDBRANCH  49  50
ENDBRANCH  48  49
ENDBRANCH   1  48
BRANCH  14  55
HETATM   55  C   UNK N   1      28.396  14.484   1.610  0.00  0.00     0.073 C 
BRANCH  55  56
HETATM   56  C   UNK N   1      26.986  14.148   2.010  0.00  0.00    -0.056 A 
HETATM   57  C   UNK N   1      26.664  12.925   2.622  0.00  0.00     0.007 A 
HETATM   58  C   UNK N   1      25.346  12.647   2.994  0.00  0.00     0.001 A 
HETATM   59  C   UNK N   1      24.345  13.595   2.776  0.00  0.00     0.000 A 
HETATM   60  C   UNK N   1      24.662  14.821   2.184  0.00  0.00     0.001 A 
HETATM   61  C   UNK N   1      25.979  15.095   1.800  0.00  0.00     0.007 A 
ENDBRANCH  55  56
ENDBRANCH  14  55
BRANCH   7  62
HETATM   62  C   UNK N   1      34.431  13.014   9.721  0.00  0.00     0.075 C 
BRANCH  62  63
HETATM   63  C   UNK N   1      35.056  13.900  10.754  0.00  0.00    -0.028 A 
HETATM   64  C   UNK N   1      35.208  13.590  12.078  0.00  0.00    -0.002 A 
HETATM   65  C   UNK N   1      36.010  14.548  12.618  0.00  0.00     0.042 A 
HETATM   66  C   UNK N   1      34.745  12.503  12.816  0.00  0.00     0.014 A 
HETATM   67  N   UNK N   1      36.361  15.463  11.694  0.00  0.00    -0.365 N 
HETATM   68  C   UNK N   1      36.416  14.494  13.948  0.00  0.00     0.030 A 
HETATM   69  C   UNK N   1      35.780  15.066  10.531  0.00  0.00     0.096 A 
HETATM   70  H   UNK N   1      36.923  16.259  11.833  0.00  0.00     0.165 HD
HETATM   71  C   UNK N   1      35.960  13.413  14.729  0.00  0.00     0.002 A 
HETATM   72  C   UNK N   1      35.124  12.423  14.165  0.00  0.00     0.001 A 
ENDBRANCH  62  63
ENDBRANCH   7  62
BRANCH  27  73
HETATM   73  O   UNK N   1      31.431  10.556   0.258  0.00  0.00    -0.297 OA
BRANCH  73  74
HETATM   74  C   UNK N   1      30.865  10.810  -0.957  0.00  0.00     0.361 C 
HETATM   75  O   UNK N   1      29.830  10.237  -1.248  0.00  0.00    -0.239 OA
HETATM   76  N   UNK N   1      31.460  11.599  -1.893  0.00  0.00    -0.335 N 
HETATM   77  H   UNK N   1      30.991  11.718  -2.749  0.00  0.00     0.164 HD
BRANCH  76  78
HETATM   78  C   UNK N   1      32.724  12.272  -1.728  0.00  0.00     0.144 C 
BRANCH  78  79
HETATM   79  C   UNK N   1      33.741  11.655  -2.675  0.00  0.00     0.130 C 
BRANCH  79  80
HETATM   80  N   UNK N   1      33.675  12.309  -3.969  0.00  0.00    -0.429 N 
HETATM   81  H   UNK N   1      34.007  13.260  -4.129  0.00  0.00     0.149 HD
HETATM   82  H   UNK N   1      33.278  11.794  -4.755  0.00  0.00     0.149 HD
ENDBRANCH  79  80
ENDBRANCH  78  79
ENDBRANCH  76  78
ENDBRANCH  73  74
ENDBRANCH  27  73
BRANCH  20  83
HETATM   83  C   UNK N   1      36.206  12.192   5.111  0.00  0.00    -0.026 A 
HETATM   84  C   UNK N   1      37.513  12.470   5.534  0.00  0.00     0.010 A 
HETATM   85  C   UNK N   1      38.393  11.425   5.808  0.00  0.00     0.001 A 
HETATM   86  C   UNK N   1      37.979  10.101   5.639  0.00  0.00     0.000 A 
HETATM   87  C   UNK N   1      36.679   9.822   5.204  0.00  0.00     0.001 A 
HETATM   88  C   UNK N   1      35.791  10.868   4.944  0.00  0.00     0.010 A 
ENDBRANCH  20  83
TORSDOF 20
ENDMDL
MODEL 7
REMARK VINA RESULT:      -7.8      3.343      9.581
REMARK  20 active torsions:
REMARK  status: ('A' for Active; 'I' for Inactive)
REMARK    1  A    between atoms: C_1  and  C_2 
REMARK    2  A    between atoms: C_2  and  C_5 
REMARK    3  A    between atoms: C_5  and  C_6 
REMARK    4  A    between atoms: C_6  and  C_7 
REMARK    5  A    between atoms: C_7  and  N_8 
REMARK    6  A    between atoms: C_12  and  C_15 
REMARK    7  A    between atoms: C_15  and  C_69 
REMARK    8  A    between atoms: C_16  and  C_17 
REMARK    9  A    between atoms: C_17  and  C_21 
REMARK   10  A    between atoms: C_24  and  O_27 
REMARK   11  A    between atoms: O_27  and  C_28 
REMARK   12  A    between atoms: C_28  and  C_29 
REMARK   13  A    between atoms: C_35  and  C_37 
REMARK   14  A    between atoms: C_37  and  C_38 
REMARK   15  A    between atoms: C_48  and  C_49 
REMARK   16  A    between atoms: C_61  and  O_62 
REMARK   17  A    between atoms: O_62  and  C_63 
REMARK       I    between atoms: C_63  and  N_65 
REMARK   18  A    between atoms: N_65  and  C_66 
REMARK   19  A    between atoms: C_66  and  C_67 
REMARK   20  A    between atoms: C_67  and  N_68 
ROOT
HETATM    1  C   UNK N   1      28.503  15.658   6.032  0.00  0.00     0.176 C 
HETATM    2  N   UNK N   1      27.155  15.652   5.547  0.00  0.00    -0.346 N 
HETATM    3  C   UNK N   1      29.526  14.934   5.225  0.00  0.00     0.241 C 
HETATM    4  N   UNK N   1      30.778  14.799   5.689  0.00  0.00    -0.346 N 
HETATM    5  O   UNK N   1      29.220  14.450   4.146  0.00  0.00    -0.271 OA
HETATM    6  C   UNK N   1      26.822  16.008   4.286  0.00  0.00     0.241 C 
HETATM    7  C   UNK N   1      25.411  15.780   3.857  0.00  0.00     0.181 C 
HETATM    8  O   UNK N   1      27.649  16.465   3.508  0.00  0.00    -0.271 OA
HETATM    9  N   UNK N   1      25.193  14.512   3.188  0.00  0.00    -0.345 N 
HETATM   10  C   UNK N   1      31.772  14.072   4.944  0.00  0.00     0.180 C 
HETATM   11  C   UNK N   1      32.092  12.722   5.509  0.00  0.00     0.241 C 
HETATM   12  O   UNK N   1      32.310  12.622   6.706  0.00  0.00    -0.271 OA
HETATM   13  N   UNK N   1      32.073  11.607   4.750  0.00  0.00    -0.346 N 
HETATM   14  C   UNK N   1      31.813  11.645   3.334  0.00  0.00     0.181 C 
HETATM   15  C   UNK N   1      30.344  11.308   3.139  0.00  0.00     0.243 C 
HETATM   16  N   UNK N   1      29.873  10.438   2.184  0.00  0.00    -0.334 N 
HETATM   17  O   UNK N   1      29.563  11.873   3.875  0.00  0.00    -0.271 OA
HETATM   18  C   UNK N   1      25.738  13.329   3.619  0.00  0.00     0.245 C 
HETATM   19  O   UNK N   1      26.560  13.304   4.520  0.00  0.00    -0.271 OA
HETATM   20  C   UNK N   1      25.322  12.022   3.026  0.00  0.00     0.210 C 
HETATM   21  N   UNK N   1      26.419  11.445   2.292  0.00  0.00    -0.342 N 
HETATM   22  C   UNK N   1      27.405  10.703   2.848  0.00  0.00     0.241 C 
HETATM   23  O   UNK N   1      27.387  10.436   4.043  0.00  0.00    -0.271 OA
HETATM   24  C   UNK N   1      28.479  10.137   1.957  0.00  0.00     0.181 C 
HETATM   25  C   UNK N   1      30.656   9.963   1.087  0.00  0.00     0.159 C 
HETATM   26  C   UNK N   1      28.332  10.504   0.499  0.00  0.00     0.069 C 
HETATM   27  C   UNK N   1      29.673  10.079  -0.097  0.00  0.00     0.154 C 
HETATM   28  H   UNK N   1      26.438  15.376   6.162  0.00  0.00     0.163 HD
HETATM   29  H   UNK N   1      31.021  15.204   6.553  0.00  0.00     0.163 HD
HETATM   30  H   UNK N   1      24.626  14.499   2.384  0.00  0.00     0.163 HD
HETATM   31  H   UNK N   1      32.244  10.737   5.178  0.00  0.00     0.163 HD
HETATM   32  H   UNK N   1      26.454  11.601   1.320  0.00  0.00     0.163 HD
ENDROOT
BRANCH  10  33
HETATM   33  C   UNK N   1      32.103  14.589   3.512  0.00  0.00     0.073 C 
BRANCH  33  34
HETATM   34  C   UNK N   1      33.084  15.651   3.781  0.00  0.00    -0.056 C 
HETATM   35  C   UNK N   1      32.588  16.959   3.785  0.00  0.00     0.010 C 
HETATM   36  C   UNK N   1      33.034  17.852   4.746  0.00  0.00     0.037 C 
HETATM   37  C   UNK N   1      33.978  17.431   5.697  0.00  0.00     0.069 C 
HETATM   38  C   UNK N   1      34.594  16.189   5.575  0.00  0.00     0.037 C 
HETATM   39  C   UNK N   1      34.127  15.289   4.631  0.00  0.00     0.010 C 
BRANCH  37  40
HETATM   40  O   UNK N   1      34.217  18.153   6.803  0.00  0.00    -0.347 OA
BRANCH  40  41
HETATM   41  C   UNK N   1      33.291  18.235   7.814  0.00  0.00     0.214 C 
BRANCH  41  42
HETATM   42  C   UNK N   1      33.386  17.014   8.619  0.00  0.00    -0.034 A 
HETATM   43  C   UNK N   1      32.322  16.113   8.644  0.00  0.00     0.009 A 
HETATM   44  C   UNK N   1      32.395  14.981   9.454  0.00  0.00     0.001 A 
HETATM   45  C   UNK N   1      33.530  14.758  10.241  0.00  0.00     0.000 A 
HETATM   46  C   UNK N   1      34.595  15.665  10.211  0.00  0.00     0.001 A 
HETATM   47  C   UNK N   1      34.521  16.795   9.400  0.00  0.00     0.009 A 
ENDBRANCH  41  42
ENDBRANCH  40  41
ENDBRANCH  37  40
ENDBRANCH  33  34
ENDBRANCH  10  33
BRANCH   1  48
HETATM   48  C   UNK N   1      28.780  16.411   7.311  0.00  0.00     0.035 C 
BRANCH  48  49
HETATM   49  C   UNK N   1      28.912  17.868   6.960  0.00  0.00     0.004 C 
BRANCH  49  50
HETATM   50  C   UNK N   1      28.400  18.717   8.099  0.00  0.00     0.019 C 
BRANCH  50  51
HETATM   51  C   UNK N   1      28.683  18.011   9.409  0.00  0.00     0.111 C 
BRANCH  51  52
HETATM   52  N   UNK N   1      29.860  18.587  10.033  0.00  0.00    -0.430 N 
HETATM   53  H   UNK N   1      30.121  18.336  10.986  0.00  0.00     0.149 HD
HETATM   54  H   UNK N   1      30.433  19.250   9.511  0.00  0.00     0.149 HD
ENDBRANCH  51  52
ENDBRANCH  50  51
ENDBRANCH  49  50
ENDBRANCH  48  49
ENDBRANCH   1  48
BRANCH  14  55
HETATM   55  C   UNK N   1      32.867  10.783   2.644  0.00  0.00     0.073 C 
BRANCH  55  56
HETATM   56  C   UNK N   1      33.942  11.588   1.966  0.00  0.00    -0.056 A 
HETATM   57  C   UNK N   1      33.927  11.819   0.580  0.00  0.00     0.007 A 
HETATM   58  C   UNK N   1      34.933  12.582  -0.019  0.00  0.00     0.001 A 
HETATM   59  C   UNK N   1      35.948  13.135   0.764  0.00  0.00     0.000 A 
HETATM   60  C   UNK N   1      35.958  12.924   2.145  0.00  0.00     0.001 A 
HETATM   61  C   UNK N   1      34.958  12.149   2.743  0.00  0.00     0.007 A 
ENDBRANCH  55  56
ENDBRANCH  14  55
BRANCH   7  62
HETATM   62  C   UNK N   1      24.781  17.005   3.179  0.00  0.00     0.075 C 
BRANCH  62  63
HETATM   63  C   UNK N   1      23.547  17.314   3.968  0.00  0.00    -0.028 A 
HETATM   64  C   UNK N   1      22.316  16.750   3.770  0.00  0.00    -0.002 A 
HETATM   65  C   UNK N   1      21.537  17.123   4.821  0.00  0.00     0.042 A 
HETATM   66  C   UNK N   1      21.860  15.891   2.772  0.00  0.00     0.014 A 
HETATM   67  N   UNK N   1      22.218  17.916   5.671  0.00  0.00    -0.365 N 
HETATM   68  C   UNK N   1      20.230  16.665   4.960  0.00  0.00     0.030 A 
HETATM   69  C   UNK N   1      23.469  18.034   5.155  0.00  0.00     0.096 A 
HETATM   70  H   UNK N   1      21.878  18.326   6.499  0.00  0.00     0.165 HD
HETATM   71  C   UNK N   1      19.731  15.800   3.965  0.00  0.00     0.002 A 
HETATM   72  C   UNK N   1      20.542  15.418   2.872  0.00  0.00     0.001 A 
ENDBRANCH  62  63
ENDBRANCH   7  62
BRANCH  27  73
HETATM   73  O   UNK N   1      29.573   8.910  -0.836  0.00  0.00    -0.297 OA
BRANCH  73  74
HETATM   74  C   UNK N   1      28.693   8.687  -1.853  0.00  0.00     0.361 C 
HETATM   75  O   UNK N   1      27.612   8.192  -1.590  0.00  0.00    -0.239 OA
HETATM   76  N   UNK N   1      29.012   8.902  -3.159  0.00  0.00    -0.335 N 
HETATM   77  H   UNK N   1      28.323   8.701  -3.832  0.00  0.00     0.164 HD
BRANCH  76  78
HETATM   78  C   UNK N   1      30.279   9.401  -3.632  0.00  0.00     0.144 C 
BRANCH  78  79
HETATM   79  C   UNK N   1      30.208  10.917  -3.731  0.00  0.00     0.130 C 
BRANCH  79  80
HETATM   80  N   UNK N   1      31.470  11.502  -3.320  0.00  0.00    -0.429 N 
HETATM   81  H   UNK N   1      32.086  11.069  -2.632  0.00  0.00     0.149 HD
HETATM   82  H   UNK N   1      31.755  12.387  -3.738  0.00  0.00     0.149 HD
ENDBRANCH  79  80
ENDBRANCH  78  79
ENDBRANCH  76  78
ENDBRANCH  73  74
ENDBRANCH  27  73
BRANCH  20  83
HETATM   83  C   UNK N   1      24.126  12.148   2.145  0.00  0.00    -0.026 A 
HETATM   84  C   UNK N   1      24.269  12.447   0.784  0.00  0.00     0.010 A 
HETATM   85  C   UNK N   1      23.140  12.591  -0.020  0.00  0.00     0.001 A 
HETATM   86  C   UNK N   1      21.865  12.459   0.538  0.00  0.00     0.000 A 
HETATM   87  C   UNK N   1      21.720  12.174   1.899  0.00  0.00     0.001 A 
HETATM   88  C   UNK N   1      22.852  12.014   2.702  0.00  0.00     0.010 A 
ENDBRANCH  20  83
TORSDOF 20
ENDMDL
MODEL 8
REMARK VINA RESULT:      -7.7      5.792      9.641
REMARK  20 active torsions:
REMARK  status: ('A' for Active; 'I' for Inactive)
REMARK    1  A    between atoms: C_1  and  C_2 
REMARK    2  A    between atoms: C_2  and  C_5 
REMARK    3  A    between atoms: C_5  and  C_6 
REMARK    4  A    between atoms: C_6  and  C_7 
REMARK    5  A    between atoms: C_7  and  N_8 
REMARK    6  A    between atoms: C_12  and  C_15 
REMARK    7  A    between atoms: C_15  and  C_69 
REMARK    8  A    between atoms: C_16  and  C_17 
REMARK    9  A    between atoms: C_17  and  C_21 
REMARK   10  A    between atoms: C_24  and  O_27 
REMARK   11  A    between atoms: O_27  and  C_28 
REMARK   12  A    between atoms: C_28  and  C_29 
REMARK   13  A    between atoms: C_35  and  C_37 
REMARK   14  A    between atoms: C_37  and  C_38 
REMARK   15  A    between atoms: C_48  and  C_49 
REMARK   16  A    between atoms: C_61  and  O_62 
REMARK   17  A    between atoms: O_62  and  C_63 
REMARK       I    between atoms: C_63  and  N_65 
REMARK   18  A    between atoms: N_65  and  C_66 
REMARK   19  A    between atoms: C_66  and  C_67 
REMARK   20  A    between atoms: C_67  and  N_68 
ROOT
HETATM    1  C   UNK N   1      35.042  14.468  10.361  0.00  0.00     0.176 C 
HETATM    2  N   UNK N   1      35.859  13.293  10.433  0.00  0.00    -0.346 N 
HETATM    3  C   UNK N   1      34.341  14.738   9.072  0.00  0.00     0.241 C 
HETATM    4  N   UNK N   1      33.662  15.883   8.903  0.00  0.00    -0.346 N 
HETATM    5  O   UNK N   1      34.397  13.922   8.165  0.00  0.00    -0.271 OA
HETATM    6  C   UNK N   1      35.416  12.063  10.090  0.00  0.00     0.241 C 
HETATM    7  C   UNK N   1      36.420  10.961  10.036  0.00  0.00     0.181 C 
HETATM    8  O   UNK N   1      34.245  11.861   9.797  0.00  0.00    -0.271 OA
HETATM    9  N   UNK N   1      36.991  10.744   8.720  0.00  0.00    -0.345 N 
HETATM   10  C   UNK N   1      33.010  16.181   7.655  0.00  0.00     0.180 C 
HETATM   11  C   UNK N   1      33.714  17.215   6.829  0.00  0.00     0.241 C 
HETATM   12  O   UNK N   1      34.081  18.247   7.367  0.00  0.00    -0.271 OA
HETATM   13  N   UNK N   1      34.019  17.006   5.532  0.00  0.00    -0.346 N 
HETATM   14  C   UNK N   1      33.629  15.809   4.833  0.00  0.00     0.181 C 
HETATM   15  C   UNK N   1      34.828  14.874   4.840  0.00  0.00     0.243 C 
HETATM   16  N   UNK N   1      35.262  14.170   3.742  0.00  0.00    -0.334 N 
HETATM   17  O   UNK N   1      35.404  14.752   5.901  0.00  0.00    -0.271 OA
HETATM   18  C   UNK N   1      37.385  11.763   7.892  0.00  0.00     0.245 C 
HETATM   19  O   UNK N   1      37.143  12.928   8.166  0.00  0.00    -0.271 OA
HETATM   20  C   UNK N   1      38.155  11.494   6.640  0.00  0.00     0.210 C 
HETATM   21  N   UNK N   1      37.350  11.816   5.490  0.00  0.00    -0.342 N 
HETATM   22  C   UNK N   1      37.229  13.057   4.964  0.00  0.00     0.241 C 
HETATM   23  O   UNK N   1      37.861  13.996   5.430  0.00  0.00    -0.271 OA
HETATM   24  C   UNK N   1      36.373  13.248   3.740  0.00  0.00     0.181 C 
HETATM   25  C   UNK N   1      34.492  14.005   2.550  0.00  0.00     0.159 C 
HETATM   26  C   UNK N   1      35.707  11.985   3.247  0.00  0.00     0.069 C 
HETATM   27  C   UNK N   1      34.694  12.508   2.230  0.00  0.00     0.154 C 
HETATM   28  H   UNK N   1      36.786  13.387  10.747  0.00  0.00     0.163 HD
HETATM   29  H   UNK N   1      33.610  16.530   9.644  0.00  0.00     0.163 HD
HETATM   30  H   UNK N   1      37.101   9.818   8.405  0.00  0.00     0.163 HD
HETATM   31  H   UNK N   1      34.524  17.696   5.045  0.00  0.00     0.163 HD
HETATM   32  H   UNK N   1      36.854  11.083   5.057  0.00  0.00     0.163 HD
ENDROOT
BRANCH  10  33
HETATM   33  C   UNK N   1      31.917  15.183   7.170  0.00  0.00     0.073 C 
BRANCH  33  34
HETATM   34  C   UNK N   1      30.674  15.857   7.575  0.00  0.00    -0.056 C 
HETATM   35  C   UNK N   1      30.801  16.834   8.568  0.00  0.00     0.010 C 
HETATM   36  C   UNK N   1      30.081  18.013   8.457  0.00  0.00     0.037 C 
HETATM   37  C   UNK N   1      29.234  18.206   7.353  0.00  0.00     0.069 C 
HETATM   38  C   UNK N   1      28.982  17.161   6.469  0.00  0.00     0.037 C 
HETATM   39  C   UNK N   1      29.722  15.994   6.566  0.00  0.00     0.010 C 
BRANCH  37  40
HETATM   40  O   UNK N   1      28.751  19.422   7.054  0.00  0.00    -0.347 OA
BRANCH  40  41
HETATM   41  C   UNK N   1      27.409  19.698   7.144  0.00  0.00     0.214 C 
BRANCH  41  42
HETATM   42  C   UNK N   1      26.890  19.886   5.787  0.00  0.00    -0.034 A 
HETATM   43  C   UNK N   1      25.528  19.722   5.535  0.00  0.00     0.009 A 
HETATM   44  C   UNK N   1      25.046  19.849   4.232  0.00  0.00     0.001 A 
HETATM   45  C   UNK N   1      25.932  20.132   3.187  0.00  0.00     0.000 A 
HETATM   46  C   UNK N   1      27.296  20.297   3.445  0.00  0.00     0.001 A 
HETATM   47  C   UNK N   1      27.775  20.172   4.747  0.00  0.00     0.009 A 
ENDBRANCH  41  42
ENDBRANCH  40  41
ENDBRANCH  37  40
ENDBRANCH  33  34
ENDBRANCH  10  33
BRANCH   1  48
HETATM   48  C   UNK N   1      34.944  15.325  11.599  0.00  0.00     0.035 C 
BRANCH  48  49
HETATM   49  C   UNK N   1      36.073  14.933  12.513  0.00  0.00     0.004 C 
BRANCH  49  50
HETATM   50  C   UNK N   1      35.575  13.950  13.546  0.00  0.00     0.019 C 
BRANCH  50  51
HETATM   51  C   UNK N   1      36.689  13.658  14.529  0.00  0.00     0.111 C 
BRANCH  51  52
HETATM   52  N   UNK N   1      36.182  13.748  15.887  0.00  0.00    -0.430 N 
HETATM   53  H   UNK N   1      36.673  13.295  16.657  0.00  0.00     0.149 HD
HETATM   54  H   UNK N   1      35.326  14.271  16.071  0.00  0.00     0.149 HD
ENDBRANCH  51  52
ENDBRANCH  50  51
ENDBRANCH  49  50
ENDBRANCH  48  49
ENDBRANCH   1  48
BRANCH  14  55
HETATM   55  C   UNK N   1      33.025  16.226   3.495  0.00  0.00     0.073 C 
BRANCH  55  56
HETATM   56  C   UNK N   1      31.593  15.795   3.329  0.00  0.00    -0.056 A 
HETATM   57  C   UNK N   1      31.194  14.465   3.537  0.00  0.00     0.007 A 
HETATM   58  C   UNK N   1      29.854  14.098   3.387  0.00  0.00     0.001 A 
HETATM   59  C   UNK N   1      28.901  15.061   3.048  0.00  0.00     0.000 A 
HETATM   60  C   UNK N   1      29.290  16.389   2.858  0.00  0.00     0.001 A 
HETATM   61  C   UNK N   1      30.633  16.755   2.995  0.00  0.00     0.007 A 
ENDBRANCH  55  56
ENDBRANCH  14  55
BRANCH   7  62
HETATM   62  C   UNK N   1      35.969   9.696  10.779  0.00  0.00     0.075 C 
BRANCH  62  63
HETATM   63  C   UNK N   1      36.396   9.889  12.202  0.00  0.00    -0.028 A 
HETATM   64  C   UNK N   1      35.561  10.168  13.249  0.00  0.00    -0.002 A 
HETATM   65  C   UNK N   1      36.298  10.043  14.386  0.00  0.00     0.042 A 
HETATM   66  C   UNK N   1      34.198  10.460  13.273  0.00  0.00     0.014 A 
HETATM   67  N   UNK N   1      37.573   9.712  14.102  0.00  0.00    -0.365 N 
HETATM   68  C   UNK N   1      35.729  10.202  15.646  0.00  0.00     0.030 A 
HETATM   69  C   UNK N   1      37.642   9.607  12.749  0.00  0.00     0.096 A 
HETATM   70  H   UNK N   1      38.306   9.575  14.745  0.00  0.00     0.165 HD
HETATM   71  C   UNK N   1      34.354  10.507  15.710  0.00  0.00     0.002 A 
HETATM   72  C   UNK N   1      33.593  10.640  14.527  0.00  0.00     0.001 A 
ENDBRANCH  62  63
ENDBRANCH   7  62
BRANCH  27  73
HETATM   73  O   UNK N   1      35.096  12.281   0.923  0.00  0.00    -0.297 OA
BRANCH  73  74
HETATM   74  C   UNK N   1      34.645  12.953  -0.175  0.00  0.00     0.361 C 
HETATM   75  O   UNK N   1      35.272  13.923  -0.561  0.00  0.00    -0.239 OA
HETATM   76  N   UNK N   1      33.473  12.643  -0.794  0.00  0.00    -0.335 N 
HETATM   77  H   UNK N   1      33.215  13.188  -1.572  0.00  0.00     0.164 HD
BRANCH  76  78
HETATM   78  C   UNK N   1      32.582  11.581  -0.400  0.00  0.00     0.144 C 
BRANCH  78  79
HETATM   79  C   UNK N   1      31.199  11.861  -0.966  0.00  0.00     0.130 C 
BRANCH  79  80
HETATM   80  N   UNK N   1      31.206  11.687  -2.406  0.00  0.00    -0.429 N 
HETATM   81  H   UNK N   1      30.354  11.632  -2.964  0.00  0.00     0.149 HD
HETATM   82  H   UNK N   1      32.104  11.616  -2.884  0.00  0.00     0.149 HD
ENDBRANCH  79  80
ENDBRANCH  78  79
ENDBRANCH  76  78
ENDBRANCH  73  74
ENDBRANCH  27  73
BRANCH  20  83
HETATM   83  C   UNK N   1      38.630  10.083   6.554  0.00  0.00    -0.026 A 
HETATM   84  C   UNK N   1      39.809   9.685   7.197  0.00  0.00     0.010 A 
HETATM   85  C   UNK N   1      40.254   8.369   7.083  0.00  0.00     0.001 A 
HETATM   86  C   UNK N   1      39.535   7.454   6.309  0.00  0.00     0.000 A 
HETATM   87  C   UNK N   1      38.365   7.853   5.656  0.00  0.00     0.001 A 
HETATM   88  C   UNK N   1      37.909   9.167   5.783  0.00  0.00     0.010 A 
ENDBRANCH  20  83
TORSDOF 20
ENDMDL
MODEL 9
REMARK VINA RESULT:      -7.6      3.668      6.879
REMARK  20 active torsions:
REMARK  status: ('A' for Active; 'I' for Inactive)
REMARK    1  A    between atoms: C_1  and  C_2 
REMARK    2  A    between atoms: C_2  and  C_5 
REMARK    3  A    between atoms: C_5  and  C_6 
REMARK    4  A    between atoms: C_6  and  C_7 
REMARK    5  A    between atoms: C_7  and  N_8 
REMARK    6  A    between atoms: C_12  and  C_15 
REMARK    7  A    between atoms: C_15  and  C_69 
REMARK    8  A    between atoms: C_16  and  C_17 
REMARK    9  A    between atoms: C_17  and  C_21 
REMARK   10  A    between atoms: C_24  and  O_27 
REMARK   11  A    between atoms: O_27  and  C_28 
REMARK   12  A    between atoms: C_28  and  C_29 
REMARK   13  A    between atoms: C_35  and  C_37 
REMARK   14  A    between atoms: C_37  and  C_38 
REMARK   15  A    between atoms: C_48  and  C_49 
REMARK   16  A    between atoms: C_61  and  O_62 
REMARK   17  A    between atoms: O_62  and  C_63 
REMARK       I    between atoms: C_63  and  N_65 
REMARK   18  A    between atoms: N_65  and  C_66 
REMARK   19  A    between atoms: C_66  and  C_67 
REMARK   20  A    between atoms: C_67  and  N_68 
ROOT
HETATM    1  C   UNK N   1      34.028  15.540   7.145  0.00  0.00     0.176 C 
HETATM    2  N   UNK N   1      34.641  14.829   8.226  0.00  0.00    -0.346 N 
HETATM    3  C   UNK N   1      32.901  14.869   6.434  0.00  0.00     0.241 C 
HETATM    4  N   UNK N   1      32.369  15.430   5.337  0.00  0.00    -0.346 N 
HETATM    5  O   UNK N   1      32.471  13.802   6.844  0.00  0.00    -0.271 OA
HETATM    6  C   UNK N   1      33.940  14.296   9.252  0.00  0.00     0.241 C 
HETATM    7  C   UNK N   1      34.680  13.426  10.212  0.00  0.00     0.181 C 
HETATM    8  O   UNK N   1      32.737  14.484   9.373  0.00  0.00    -0.271 OA
HETATM    9  N   UNK N   1      34.625  12.011   9.893  0.00  0.00    -0.345 N 
HETATM   10  C   UNK N   1      31.306  14.782   4.614  0.00  0.00     0.180 C 
HETATM   11  C   UNK N   1      31.736  14.163   3.319  0.00  0.00     0.241 C 
HETATM   12  O   UNK N   1      32.423  14.820   2.554  0.00  0.00    -0.271 OA
HETATM   13  N   UNK N   1      31.449  12.882   3.010  0.00  0.00    -0.346 N 
HETATM   14  C   UNK N   1      30.654  12.043   3.868  0.00  0.00     0.181 C 
HETATM   15  C   UNK N   1      31.616  11.200   4.689  0.00  0.00     0.243 C 
HETATM   16  N   UNK N   1      31.464   9.851   4.908  0.00  0.00    -0.334 N 
HETATM   17  O   UNK N   1      32.556  11.787   5.180  0.00  0.00    -0.271 OA
HETATM   18  C   UNK N   1      34.773  11.520   8.621  0.00  0.00     0.245 C 
HETATM   19  O   UNK N   1      34.819  12.266   7.657  0.00  0.00    -0.271 OA
HETATM   20  C   UNK N   1      34.917  10.054   8.367  0.00  0.00     0.210 C 
HETATM   21  N   UNK N   1      33.760   9.562   7.666  0.00  0.00    -0.342 N 
HETATM   22  C   UNK N   1      33.596   9.621   6.324  0.00  0.00     0.241 C 
HETATM   23  O   UNK N   1      34.480  10.071   5.606  0.00  0.00    -0.271 OA
HETATM   24  C   UNK N   1      32.345   9.042   5.717  0.00  0.00     0.181 C 
HETATM   25  C   UNK N   1      30.258   9.134   4.639  0.00  0.00     0.159 C 
HETATM   26  C   UNK N   1      31.376   8.468   6.724  0.00  0.00     0.069 C 
HETATM   27  C   UNK N   1      30.113   8.248   5.894  0.00  0.00     0.154 C 
HETATM   28  H   UNK N   1      35.619  14.724   8.222  0.00  0.00     0.163 HD
HETATM   29  H   UNK N   1      32.711  16.297   5.021  0.00  0.00     0.163 HD
HETATM   30  H   UNK N   1      34.473  11.372  10.626  0.00  0.00     0.163 HD
HETATM   31  H   UNK N   1      31.796  12.508   2.168  0.00  0.00     0.163 HD
HETATM   32  H   UNK N   1      33.038   9.154   8.199  0.00  0.00     0.163 HD
ENDROOT
BRANCH  10  33
HETATM   33  C   UNK N   1      29.990  14.494   5.397  0.00  0.00     0.073 C 
BRANCH  33  34
HETATM   34  C   UNK N   1      29.160  15.658   5.055  0.00  0.00    -0.056 C 
HETATM   35  C   UNK N   1      28.796  15.780   3.710  0.00  0.00     0.010 C 
HETATM   36  C   UNK N   1      27.509  16.180   3.388  0.00  0.00     0.037 C 
HETATM   37  C   UNK N   1      26.593  16.460   4.415  0.00  0.00     0.069 C 
HETATM   38  C   UNK N   1      27.016  16.508   5.740  0.00  0.00     0.037 C 
HETATM   39  C   UNK N   1      28.294  16.082   6.062  0.00  0.00     0.010 C 
BRANCH  37  40
HETATM   40  O   UNK N   1      25.279  16.565   4.163  0.00  0.00    -0.347 OA
BRANCH  40  41
HETATM   41  C   UNK N   1      24.451  17.291   4.984  0.00  0.00     0.214 C 
BRANCH  41  42
HETATM   42  C   UNK N   1      23.860  18.374   4.194  0.00  0.00    -0.034 A 
HETATM   43  C   UNK N   1      24.660  19.423   3.744  0.00  0.00     0.009 A 
HETATM   44  C   UNK N   1      24.083  20.479   3.039  0.00  0.00     0.001 A 
HETATM   45  C   UNK N   1      22.706  20.482   2.793  0.00  0.00     0.000 A 
HETATM   46  C   UNK N   1      21.908  19.426   3.245  0.00  0.00     0.001 A 
HETATM   47  C   UNK N   1      22.486  18.372   3.948  0.00  0.00     0.009 A 
ENDBRANCH  41  42
ENDBRANCH  40  41
ENDBRANCH  37  40
ENDBRANCH  33  34
ENDBRANCH  10  33
BRANCH   1  48
HETATM   48  C   UNK N   1      34.561  16.915   6.824  0.00  0.00     0.035 C 
BRANCH  48  49
HETATM   49  C   UNK N   1      33.424  17.888   6.972  0.00  0.00     0.004 C 
BRANCH  49  50
HETATM   50  C   UNK N   1      32.971  17.928   8.412  0.00  0.00     0.019 C 
BRANCH  50  51
HETATM   51  C   UNK N   1      31.458  17.877   8.457  0.00  0.00     0.111 C 
BRANCH  51  52
HETATM   52  N   UNK N   1      31.028  16.741   9.252  0.00  0.00    -0.430 N 
HETATM   53  H   UNK N   1      30.046  16.616   9.494  0.00  0.00     0.149 HD
HETATM   54  H   UNK N   1      31.718  16.061   9.572  0.00  0.00     0.149 HD
ENDBRANCH  51  52
ENDBRANCH  50  51
ENDBRANCH  49  50
ENDBRANCH  48  49
ENDBRANCH   1  48
BRANCH  14  55
HETATM   55  C   UNK N   1      29.613  11.342   2.999  0.00  0.00     0.073 C 
BRANCH  55  56
HETATM   56  C   UNK N   1      28.229  11.910   3.155  0.00  0.00    -0.056 A 
HETATM   57  C   UNK N   1      27.644  12.090   4.419  0.00  0.00     0.007 A 
HETATM   58  C   UNK N   1      26.360  12.632   4.533  0.00  0.00     0.001 A 
HETATM   59  C   UNK N   1      25.662  13.016   3.386  0.00  0.00     0.000 A 
HETATM   60  C   UNK N   1      26.247  12.857   2.127  0.00  0.00     0.001 A 
HETATM   61  C   UNK N   1      27.526  12.302   2.012  0.00  0.00     0.007 A 
ENDBRANCH  55  56
ENDBRANCH  14  55
BRANCH   7  62
HETATM   62  C   UNK N   1      34.414  13.784  11.680  0.00  0.00     0.075 C 
BRANCH  62  63
HETATM   63  C   UNK N   1      35.510  13.128  12.462  0.00  0.00    -0.028 A 
HETATM   64  C   UNK N   1      35.350  12.078  13.325  0.00  0.00    -0.002 A 
HETATM   65  C   UNK N   1      36.597  11.641  13.648  0.00  0.00     0.042 A 
HETATM   66  C   UNK N   1      34.196  11.451  13.789  0.00  0.00     0.014 A 
HETATM   67  N   UNK N   1      37.544  12.381  13.040  0.00  0.00    -0.365 N 
HETATM   68  C   UNK N   1      36.791  10.533  14.469  0.00  0.00     0.030 A 
HETATM   69  C   UNK N   1      36.879  13.303  12.294  0.00  0.00     0.096 A 
HETATM   70  H   UNK N   1      38.519  12.276  13.119  0.00  0.00     0.165 HD
HETATM   71  C   UNK N   1      35.647   9.877  14.965  0.00  0.00     0.002 A 
HETATM   72  C   UNK N   1      34.353  10.338  14.630  0.00  0.00     0.001 A 
ENDBRANCH  62  63
ENDBRANCH   7  62
BRANCH  27  73
HETATM   73  O   UNK N   1      29.907   6.910   5.594  0.00  0.00    -0.297 OA
BRANCH  73  74
HETATM   74  C   UNK N   1      30.519   5.856   6.206  0.00  0.00     0.361 C 
HETATM   75  O   UNK N   1      31.467   5.331   5.649  0.00  0.00    -0.239 OA
HETATM   76  N   UNK N   1      30.053   5.307   7.360  0.00  0.00    -0.335 N 
HETATM   77  H   UNK N   1      30.546   4.538   7.727  0.00  0.00     0.164 HD
BRANCH  76  78
HETATM   78  C   UNK N   1      28.895   5.762   8.088  0.00  0.00     0.144 C 
BRANCH  78  79
HETATM   79  C   UNK N   1      29.293   6.038   9.529  0.00  0.00     0.130 C 
BRANCH  79  80
HETATM   80  N   UNK N   1      30.506   5.313   9.857  0.00  0.00    -0.429 N 
HETATM   81  H   UNK N   1      30.769   5.073  10.813  0.00  0.00     0.149 HD
HETATM   82  H   UNK N   1      31.125   5.031   9.097  0.00  0.00     0.149 HD
ENDBRANCH  79  80
ENDBRANCH  78  79
ENDBRANCH  76  78
ENDBRANCH  73  74
ENDBRANCH  27  73
BRANCH  20  83
HETATM   83  C   UNK N   1      35.125   9.275   9.621  0.00  0.00    -0.026 A 
HETATM   84  C   UNK N   1      34.055   8.617  10.241  0.00  0.00     0.010 A 
HETATM   85  C   UNK N   1      34.262   7.918  11.429  0.00  0.00     0.001 A 
HETATM   86  C   UNK N   1      35.532   7.892  12.011  0.00  0.00     0.000 A 
HETATM   87  C   UNK N   1      36.599   8.558  11.401  0.00  0.00     0.001 A 
HETATM   88  C   UNK N   1      36.396   9.246  10.202  0.00  0.00     0.010 A 
ENDBRANCH  20  83
TORSDOF 20
ENDMDL
