MODEL 1
REMARK VINA RESULT:      -6.1      0.000      0.000
REMARK  1 active torsions:
REMARK  status: ('A' for Active; 'I' for Inactive)
REMARK    1  A    between atoms: C_3  and  C_4 
ROOT
HETATM    1  C   UNK N   1      35.519   9.026  16.146  0.00  0.00     0.006 A 
HETATM    2  C   UNK N   1      35.645   9.936  14.925  0.00  0.00     0.017 A 
HETATM    3  C   UNK N   1      35.571  11.440  15.164  0.00  0.00     0.086 A 
HETATM    4  C   UNK N   1      35.443  11.996  16.557  0.00  0.00    -0.041 A 
HETATM    5  C   UNK N   1      35.396  13.383  16.764  0.00  0.00     0.008 A 
HETATM    6  C   UNK N   1      35.276  13.913  18.048  0.00  0.00     0.001 A 
HETATM    7  C   UNK N   1      35.200  13.059  19.144  0.00  0.00     0.001 A 
HETATM    8  C   UNK N   1      35.246  11.676  18.953  0.00  0.00     0.007 A 
HETATM    9  C   UNK N   1      35.367  11.136  17.667  0.00  0.00    -0.051 A 
HETATM   10  C   UNK N   1      35.414   9.644  17.542  0.00  0.00     0.039 A 
ENDROOT
BRANCH   3  11
HETATM   11  C   UNK N   1      35.663  12.337  13.953  0.00  0.00     0.081 A 
HETATM   12  N   UNK N   1      34.683  12.542  13.168  0.00  0.00    -0.378 N 
HETATM   13  C   UNK N   1      35.050  13.441  12.099  0.00  0.00     0.140 A 
ATOM     14  HN  UNK N   1      33.760  12.124  13.278  1.00  0.00     0.160 HD
HETATM   15  C   UNK N   1      36.535  13.781  12.384  0.00  0.00     0.140 A 
HETATM   16  N   UNK N   1      36.811  13.029  13.574  0.00  0.00    -0.378 N 
HETATM   17  H   UNK N   1      37.674  13.006  14.047  0.00  0.00     0.160 HD
ENDBRANCH   3  11
TORSDOF 1
ENDMDL
MODEL 2
REMARK VINA RESULT:      -5.9      1.312      1.689
REMARK  1 active torsions:
REMARK  status: ('A' for Active; 'I' for Inactive)
REMARK    1  A    between atoms: C_3  and  C_4 
ROOT
HETATM    1  C   UNK N   1      37.557   9.789  14.282  0.00  0.00     0.006 A 
HETATM    2  C   UNK N   1      37.172  10.957  13.376  0.00  0.00     0.017 A 
HETATM    3  C   UNK N   1      36.342  12.078  13.994  0.00  0.00     0.086 A 
HETATM    4  C   UNK N   1      35.976  12.052  15.454  0.00  0.00    -0.041 A 
HETATM    5  C   UNK N   1      35.229  13.100  16.014  0.00  0.00     0.008 A 
HETATM    6  C   UNK N   1      34.882  13.091  17.364  0.00  0.00     0.001 A 
HETATM    7  C   UNK N   1      35.278  12.030  18.173  0.00  0.00     0.001 A 
HETATM    8  C   UNK N   1      36.023  10.981  17.629  0.00  0.00     0.007 A 
HETATM    9  C   UNK N   1      36.377  10.983  16.274  0.00  0.00    -0.051 A 
HETATM   10  C   UNK N   1      37.179   9.826  15.765  0.00  0.00     0.039 A 
ENDROOT
BRANCH   3  11
HETATM   11  C   UNK N   1      35.935  13.215  13.089  0.00  0.00     0.081 A 
HETATM   12  N   UNK N   1      34.881  13.190  12.377  0.00  0.00    -0.378 N 
HETATM   13  C   UNK N   1      34.737  14.408  11.614  0.00  0.00     0.140 A 
ATOM     14  HN  UNK N   1      34.224  12.410  12.348  1.00  0.00     0.160 HD
HETATM   15  C   UNK N   1      35.976  15.250  12.010  0.00  0.00     0.140 A 
HETATM   16  N   UNK N   1      36.656  14.398  12.943  0.00  0.00    -0.378 N 
HETATM   17  H   UNK N   1      37.498  14.614  13.405  0.00  0.00     0.160 HD
ENDBRANCH   3  11
TORSDOF 1
ENDMDL
MODEL 3
REMARK VINA RESULT:      -5.8      8.646     11.517
REMARK  1 active torsions:
REMARK  status: ('A' for Active; 'I' for Inactive)
REMARK    1  A    between atoms: C_3  and  C_4 
ROOT
HETATM    1  C   UNK N   1      28.706  18.525   8.978  0.00  0.00     0.006 A 
HETATM    2  C   UNK N   1      30.221  18.529   9.176  0.00  0.00     0.017 A 
HETATM    3  C   UNK N   1      31.047  17.618   8.274  0.00  0.00     0.086 A 
HETATM    4  C   UNK N   1      30.391  16.800   7.193  0.00  0.00    -0.041 A 
HETATM    5  C   UNK N   1      31.166  15.982   6.357  0.00  0.00     0.008 A 
HETATM    6  C   UNK N   1      30.573  15.218   5.352  0.00  0.00     0.001 A 
HETATM    7  C   UNK N   1      29.194  15.263   5.172  0.00  0.00     0.001 A 
HETATM    8  C   UNK N   1      28.411  16.074   5.997  0.00  0.00     0.007 A 
HETATM    9  C   UNK N   1      28.998  16.845   7.008  0.00  0.00    -0.051 A 
HETATM   10  C   UNK N   1      28.094  17.692   7.849  0.00  0.00     0.039 A 
ENDROOT
BRANCH   3  11
HETATM   11  C   UNK N   1      32.541  17.598   8.493  0.00  0.00     0.081 A 
HETATM   12  N   UNK N   1      33.334  18.415   7.927  0.00  0.00    -0.378 N 
HETATM   13  C   UNK N   1      34.703  18.170   8.319  0.00  0.00     0.140 A 
ATOM     14  HN  UNK N   1      33.042  19.146   7.280  1.00  0.00     0.160 HD
HETATM   15  C   UNK N   1      34.607  16.972   9.297  0.00  0.00     0.140 A 
HETATM   16  N   UNK N   1      33.199  16.698   9.329  0.00  0.00    -0.378 N 
HETATM   17  H   UNK N   1      32.766  15.988   9.857  0.00  0.00     0.160 HD
ENDBRANCH   3  11
TORSDOF 1
ENDMDL
MODEL 4
REMARK VINA RESULT:      -5.6      0.789      3.049
REMARK  1 active torsions:
REMARK  status: ('A' for Active; 'I' for Inactive)
REMARK    1  A    between atoms: C_3  and  C_4 
ROOT
HETATM    1  C   UNK N   1      35.313  13.825  18.438  0.00  0.00     0.006 A 
HETATM    2  C   UNK N   1      35.475  13.956  16.924  0.00  0.00     0.017 A 
HETATM    3  C   UNK N   1      35.599  12.666  16.120  0.00  0.00     0.086 A 
HETATM    4  C   UNK N   1      35.501  11.323  16.793  0.00  0.00    -0.041 A 
HETATM    5  C   UNK N   1      35.596  10.144  16.038  0.00  0.00     0.008 A 
HETATM    6  C   UNK N   1      35.509   8.894  16.647  0.00  0.00     0.001 A 
HETATM    7  C   UNK N   1      35.324   8.806  18.024  0.00  0.00     0.001 A 
HETATM    8  C   UNK N   1      35.226   9.972  18.788  0.00  0.00     0.007 A 
HETATM    9  C   UNK N   1      35.313  11.232  18.184  0.00  0.00    -0.051 A 
HETATM   10  C   UNK N   1      35.195  12.435  19.068  0.00  0.00     0.039 A 
ENDROOT
BRANCH   3  11
HETATM   11  C   UNK N   1      35.792  12.798  14.628  0.00  0.00     0.081 A 
HETATM   12  N   UNK N   1      36.917  13.063  14.097  0.00  0.00    -0.378 N 
HETATM   13  C   UNK N   1      36.812  13.127  12.658  0.00  0.00     0.140 A 
ATOM     14  HN  UNK N   1      37.780  13.211  14.620  1.00  0.00     0.160 HD
HETATM   15  C   UNK N   1      35.318  12.834  12.374  0.00  0.00     0.140 A 
HETATM   16  N   UNK N   1      34.775  12.643  13.689  0.00  0.00    -0.378 N 
HETATM   17  H   UNK N   1      33.835  12.436  13.894  0.00  0.00     0.160 HD
ENDBRANCH   3  11
TORSDOF 1
ENDMDL
MODEL 5
REMARK VINA RESULT:      -5.6     26.754     28.557
REMARK  1 active torsions:
REMARK  status: ('A' for Active; 'I' for Inactive)
REMARK    1  A    between atoms: C_3  and  C_4 
ROOT
HETATM    1  C   UNK N   1      25.184  26.049  -5.862  0.00  0.00     0.006 A 
HETATM    2  C   UNK N   1      25.448  27.114  -4.799  0.00  0.00     0.017 A 
HETATM    3  C   UNK N   1      26.554  28.126  -5.082  0.00  0.00     0.086 A 
HETATM    4  C   UNK N   1      27.305  28.104  -6.387  0.00  0.00    -0.041 A 
HETATM    5  C   UNK N   1      28.307  29.053  -6.642  0.00  0.00     0.008 A 
HETATM    6  C   UNK N   1      29.012  29.046  -7.844  0.00  0.00     0.001 A 
HETATM    7  C   UNK N   1      28.724  28.085  -8.809  0.00  0.00     0.001 A 
HETATM    8  C   UNK N   1      27.728  27.135  -8.568  0.00  0.00     0.007 A 
HETATM    9  C   UNK N   1      27.015  27.136  -7.364  0.00  0.00    -0.051 A 
HETATM   10  C   UNK N   1      25.961  26.088  -7.180  0.00  0.00     0.039 A 
ENDROOT
BRANCH   3  11
HETATM   11  C   UNK N   1      26.836  29.157  -4.016  0.00  0.00     0.081 A 
HETATM   12  N   UNK N   1      26.235  30.276  -3.960  0.00  0.00    -0.378 N 
HETATM   13  C   UNK N   1      26.699  31.062  -2.840  0.00  0.00     0.140 A 
ATOM     14  HN  UNK N   1      25.519  30.579  -4.619  1.00  0.00     0.160 HD
HETATM   15  C   UNK N   1      27.770  30.166  -2.168  0.00  0.00     0.140 A 
HETATM   16  N   UNK N   1      27.769  28.994  -2.995  0.00  0.00    -0.378 N 
HETATM   17  H   UNK N   1      28.337  28.201  -2.861  0.00  0.00     0.160 HD
ENDBRANCH   3  11
TORSDOF 1
ENDMDL
MODEL 6
REMARK VINA RESULT:      -5.6      2.034      2.808
REMARK  1 active torsions:
REMARK  status: ('A' for Active; 'I' for Inactive)
REMARK    1  A    between atoms: C_3  and  C_4 
ROOT
HETATM    1  C   UNK N   1      33.844  10.470  13.301  0.00  0.00     0.006 A 
HETATM    2  C   UNK N   1      34.816  11.062  12.281  0.00  0.00     0.017 A 
HETATM    3  C   UNK N   1      35.713  12.203  12.750  0.00  0.00     0.086 A 
HETATM    4  C   UNK N   1      35.677  12.678  14.178  0.00  0.00    -0.041 A 
HETATM    5  C   UNK N   1      36.522  13.716  14.600  0.00  0.00     0.008 A 
HETATM    6  C   UNK N   1      36.499  14.167  15.919  0.00  0.00     0.001 A 
HETATM    7  C   UNK N   1      35.628  13.584  16.835  0.00  0.00     0.001 A 
HETATM    8  C   UNK N   1      34.782  12.549  16.428  0.00  0.00     0.007 A 
HETATM    9  C   UNK N   1      34.799  12.089  15.106  0.00  0.00    -0.051 A 
HETATM   10  C   UNK N   1      33.866  10.975  14.747  0.00  0.00     0.039 A 
ENDROOT
BRANCH   3  11
HETATM   11  C   UNK N   1      36.649  12.808  11.732  0.00  0.00     0.081 A 
HETATM   12  N   UNK N   1      36.285  13.699  10.900  0.00  0.00    -0.378 N 
HETATM   13  C   UNK N   1      37.382  14.099  10.050  0.00  0.00     0.140 A 
ATOM     14  HN  UNK N   1      35.341  14.080  10.841  1.00  0.00     0.160 HD
HETATM   15  C   UNK N   1      38.573  13.236  10.539  0.00  0.00     0.140 A 
HETATM   16  N   UNK N   1      37.992  12.464  11.600  0.00  0.00    -0.378 N 
HETATM   17  H   UNK N   1      38.467  11.797  12.147  0.00  0.00     0.160 HD
ENDBRANCH   3  11
TORSDOF 1
ENDMDL
MODEL 7
REMARK VINA RESULT:      -5.5      7.439     10.994
REMARK  1 active torsions:
REMARK  status: ('A' for Active; 'I' for Inactive)
REMARK    1  A    between atoms: C_3  and  C_4 
ROOT
HETATM    1  C   UNK N   1      33.002  17.262   4.553  0.00  0.00     0.006 A 
HETATM    2  C   UNK N   1      33.857  16.919   5.771  0.00  0.00     0.017 A 
HETATM    3  C   UNK N   1      33.158  16.874   7.126  0.00  0.00     0.086 A 
HETATM    4  C   UNK N   1      31.673  17.099   7.237  0.00  0.00    -0.041 A 
HETATM    5  C   UNK N   1      31.040  17.035   8.488  0.00  0.00     0.008 A 
HETATM    6  C   UNK N   1      29.666  17.242   8.607  0.00  0.00     0.001 A 
HETATM    7  C   UNK N   1      28.907  17.518   7.473  0.00  0.00     0.001 A 
HETATM    8  C   UNK N   1      29.525  17.583   6.222  0.00  0.00     0.007 A 
HETATM    9  C   UNK N   1      30.904  17.376   6.093  0.00  0.00    -0.051 A 
HETATM   10  C   UNK N   1      31.493  17.459   4.719  0.00  0.00     0.039 A 
ENDROOT
BRANCH   3  11
HETATM   11  C   UNK N   1      34.010  16.567   8.334  0.00  0.00     0.081 A 
HETATM   12  N   UNK N   1      34.377  15.389   8.640  0.00  0.00    -0.378 N 
HETATM   13  C   UNK N   1      35.185  15.388   9.838  0.00  0.00     0.140 A 
ATOM     14  HN  UNK N   1      34.133  14.553   8.109  1.00  0.00     0.160 HD
HETATM   15  C   UNK N   1      35.256  16.881  10.246  0.00  0.00     0.140 A 
HETATM   16  N   UNK N   1      34.480  17.527   9.226  0.00  0.00    -0.378 N 
HETATM   17  H   UNK N   1      34.308  18.495   9.167  0.00  0.00     0.160 HD
ENDBRANCH   3  11
TORSDOF 1
ENDMDL
MODEL 8
REMARK VINA RESULT:      -5.5     10.697     12.046
REMARK  1 active torsions:
REMARK  status: ('A' for Active; 'I' for Inactive)
REMARK    1  A    between atoms: C_3  and  C_4 
ROOT
HETATM    1  C   UNK N   1      33.393  17.593   7.139  0.00  0.00     0.006 A 
HETATM    2  C   UNK N   1      32.701  17.058   5.886  0.00  0.00     0.017 A 
HETATM    3  C   UNK N   1      31.181  16.938   5.923  0.00  0.00     0.086 A 
HETATM    4  C   UNK N   1      30.400  17.390   7.128  0.00  0.00    -0.041 A 
HETATM    5  C   UNK N   1      29.000  17.293   7.140  0.00  0.00     0.008 A 
HETATM    6  C   UNK N   1      28.262  17.707   8.248  0.00  0.00     0.001 A 
HETATM    7  C   UNK N   1      28.918  18.225   9.362  0.00  0.00     0.001 A 
HETATM    8  C   UNK N   1      30.311  18.328   9.362  0.00  0.00     0.007 A 
HETATM    9  C   UNK N   1      31.060  17.916   8.253  0.00  0.00    -0.051 A 
HETATM   10  C   UNK N   1      32.548  18.061   8.327  0.00  0.00     0.039 A 
ENDROOT
BRANCH   3  11
HETATM   11  C   UNK N   1      30.502  16.377   4.697  0.00  0.00     0.081 A 
HETATM   12  N   UNK N   1      30.157  17.097   3.707  0.00  0.00    -0.378 N 
HETATM   13  C   UNK N   1      29.533  16.302   2.675  0.00  0.00     0.140 A 
ATOM     14  HN  UNK N   1      30.301  18.105   3.650  1.00  0.00     0.160 HD
HETATM   15  C   UNK N   1      29.556  14.861   3.244  0.00  0.00     0.140 A 
HETATM   16  N   UNK N   1      30.189  15.032   4.520  0.00  0.00    -0.378 N 
HETATM   17  H   UNK N   1      30.373  14.313   5.167  0.00  0.00     0.160 HD
ENDBRANCH   3  11
TORSDOF 1
ENDMDL
MODEL 9
REMARK VINA RESULT:      -5.5     27.568     28.723
REMARK  1 active torsions:
REMARK  status: ('A' for Active; 'I' for Inactive)
REMARK    1  A    between atoms: C_3  and  C_4 
ROOT
HETATM    1  C   UNK N   1      28.980  28.873  -7.985  0.00  0.00     0.006 A 
HETATM    2  C   UNK N   1      28.279  27.587  -8.418  0.00  0.00     0.017 A 
HETATM    3  C   UNK N   1      27.205  27.029  -7.488  0.00  0.00     0.086 A 
HETATM    4  C   UNK N   1      26.818  27.759  -6.230  0.00  0.00    -0.041 A 
HETATM    5  C   UNK N   1      25.814  27.244  -5.394  0.00  0.00     0.008 A 
HETATM    6  C   UNK N   1      25.445  27.908  -4.225  0.00  0.00     0.001 A 
HETATM    7  C   UNK N   1      26.078  29.097  -3.876  0.00  0.00     0.001 A 
HETATM    8  C   UNK N   1      27.077  29.621  -4.699  0.00  0.00     0.007 A 
HETATM    9  C   UNK N   1      27.454  28.962  -5.875  0.00  0.00    -0.051 A 
HETATM   10  C   UNK N   1      28.530  29.587  -6.707  0.00  0.00     0.039 A 
ENDROOT
BRANCH   3  11
HETATM   11  C   UNK N   1      26.536  25.740  -7.901  0.00  0.00     0.081 A 
HETATM   12  N   UNK N   1      25.737  25.660  -8.886  0.00  0.00    -0.378 N 
HETATM   13  C   UNK N   1      25.248  24.312  -9.055  0.00  0.00     0.140 A 
ATOM     14  HN  UNK N   1      25.473  26.447  -9.480  1.00  0.00     0.160 HD
HETATM   15  C   UNK N   1      25.938  23.516  -7.918  0.00  0.00     0.140 A 
HETATM   16  N   UNK N   1      26.723  24.519  -7.258  0.00  0.00    -0.378 N 
HETATM   17  H   UNK N   1      27.302  24.368  -6.476  0.00  0.00     0.160 HD
ENDBRANCH   3  11
TORSDOF 1
ENDMDL
