MODEL 1
REMARK VINA RESULT:      -7.3      0.000      0.000
REMARK  7 active torsions:
REMARK  status: ('A' for Active; 'I' for Inactive)
REMARK    1  A    between atoms: C_14  and  C_6 
REMARK    2  A    between atoms: C_11  and  O_28 
REMARK    3  A    between atoms: C_19  and  C_14 
REMARK    4  A    between atoms: C_19  and  C_18 
REMARK    5  A    between atoms: C_22  and  C_18 
REMARK    6  A    between atoms: O_26  and  C_22 
REMARK    7  A    between atoms: C_24  and  O_27 
ROOT
HETATM    1  C   UNK N   1      21.640  15.364   4.638  0.00  0.00    -0.036 C 
HETATM    2  C   UNK N   1      20.883  15.877   5.911  0.00  0.00     0.001 C 
HETATM    3  C   UNK N   1      22.366  14.375   7.342  0.00  0.00     0.001 C 
HETATM    4  C   UNK N   1      20.905  14.844   7.085  0.00  0.00     0.024 C 
HETATM    5  C   UNK N   1      22.428  13.309   8.471  0.00  0.00    -0.036 C 
HETATM    6  C   UNK N   1      20.618  15.485   3.484  0.00  0.00    -0.002 C 
HETATM    7  C   UNK N   1      22.111  13.913   4.837  0.00  0.00     0.010 C 
HETATM    8  C   UNK N   1      23.022  13.813   6.061  0.00  0.00     0.007 C 
HETATM    9  C   UNK N   1      19.446  16.113   5.443  0.00  0.00     0.006 C 
HETATM   10  C   UNK N   1      19.295  15.274   4.191  0.00  0.00     0.006 C 
HETATM   11  C   UNK N   1      20.297  15.397   8.395  0.00  0.00     0.123 C 
HETATM   12  C   UNK N   1      21.776  13.871   9.762  0.00  0.00    -0.001 C 
HETATM   13  C   UNK N   1      20.344  14.341   9.504  0.00  0.00     0.037 C 
HETATM   14  C   UNK N   1      22.870  16.222   4.330  0.00  0.00     0.016 C 
HETATM   15  C   UNK N   1      21.705  12.031   8.015  0.00  0.00     0.016 C 
HETATM   16  C   UNK N   1      23.905  12.960   8.774  0.00  0.00     0.012 C 
HETATM   17  C   UNK N   1      21.774  12.835  10.905  0.00  0.00     0.037 C 
HETATM   18  C   UNK N   1      24.156  12.360  10.168  0.00  0.00     0.032 C 
HETATM   19  C   UNK N   1      22.885  11.782  10.781  0.00  0.00     0.118 C 
ENDROOT
BRANCH   6  20
HETATM   20  C   UNK N   1      20.795  14.501   2.293  0.00  0.00    -0.013 C 
HETATM   21  C   UNK N   1      21.283  15.192   1.031  0.00  0.00     0.010 C 
BRANCH  20  22
HETATM   22  C   UNK N   1      19.542  13.714   1.881  0.00  0.00     0.015 C 
BRANCH  22  23
HETATM   23  C   UNK N   1      19.282  13.550   0.391  0.00  0.00     0.110 C 
BRANCH  23  24
HETATM   24  C   UNK N   1      17.956  14.153   0.049  0.00  0.00     0.139 C 
HETATM   25  O   UNK N   1      16.941  13.482   0.135  0.00  0.00    -0.650 OA
BRANCH  24  26
HETATM   26  O   UNK N   1      17.878  15.438  -0.345  0.00  0.00    -0.776 OA
HETATM   27  H   UNK N   1      18.555  16.059  -0.538  0.00  0.00     0.167 HD
ENDBRANCH  24  26
ENDBRANCH  23  24
ENDBRANCH  22  23
ENDBRANCH  20  22
ENDBRANCH   6  20
BRANCH  11  28
HETATM   28  O   UNK N   1      18.970  15.785   8.213  0.00  0.00    -0.395 OA
HETATM   29  H   UNK N   1      18.411  15.840   7.422  0.00  0.00     0.210 HD
ENDBRANCH  11  28
BRANCH  19  30
HETATM   30  O   UNK N   1      23.156  11.218  12.025  0.00  0.00    -0.396 OA
HETATM   31  H   UNK N   1      23.207  11.778  12.815  0.00  0.00     0.210 HD
ENDBRANCH  19  30
TORSDOF 7
ENDMDL
MODEL 2
REMARK VINA RESULT:      -7.2     15.602     17.018
REMARK  7 active torsions:
REMARK  status: ('A' for Active; 'I' for Inactive)
REMARK    1  A    between atoms: C_14  and  C_6 
REMARK    2  A    between atoms: C_11  and  O_28 
REMARK    3  A    between atoms: C_19  and  C_14 
REMARK    4  A    between atoms: C_19  and  C_18 
REMARK    5  A    between atoms: C_22  and  C_18 
REMARK    6  A    between atoms: O_26  and  C_22 
REMARK    7  A    between atoms: C_24  and  O_27 
ROOT
HETATM    1  C   UNK N   1      29.175  24.635  -5.698  0.00  0.00    -0.036 C 
HETATM    2  C   UNK N   1      29.722  24.435  -4.243  0.00  0.00     0.001 C 
HETATM    3  C   UNK N   1      31.636  23.048  -5.205  0.00  0.00     0.001 C 
HETATM    4  C   UNK N   1      30.555  23.120  -4.086  0.00  0.00     0.024 C 
HETATM    5  C   UNK N   1      32.455  21.731  -5.115  0.00  0.00    -0.036 C 
HETATM    6  C   UNK N   1      27.649  24.832  -5.531  0.00  0.00    -0.002 C 
HETATM    7  C   UNK N   1      29.502  23.412  -6.572  0.00  0.00     0.010 C 
HETATM    8  C   UNK N   1      31.012  23.177  -6.613  0.00  0.00     0.007 C 
HETATM    9  C   UNK N   1      28.476  24.378  -3.359  0.00  0.00     0.006 C 
HETATM   10  C   UNK N   1      27.344  24.010  -4.295  0.00  0.00     0.006 C 
HETATM   11  C   UNK N   1      31.231  22.988  -2.701  0.00  0.00     0.123 C 
HETATM   12  C   UNK N   1      33.089  21.600  -3.704  0.00  0.00    -0.001 C 
HETATM   13  C   UNK N   1      32.027  21.683  -2.607  0.00  0.00     0.037 C 
HETATM   14  C   UNK N   1      29.784  25.870  -6.366  0.00  0.00     0.016 C 
HETATM   15  C   UNK N   1      31.540  20.531  -5.408  0.00  0.00     0.016 C 
HETATM   16  C   UNK N   1      33.591  21.755  -6.167  0.00  0.00     0.012 C 
HETATM   17  C   UNK N   1      33.882  20.287  -3.548  0.00  0.00     0.037 C 
HETATM   18  C   UNK N   1      34.774  20.820  -5.864  0.00  0.00     0.032 C 
HETATM   19  C   UNK N   1      34.397  19.719  -4.879  0.00  0.00     0.118 C 
ENDROOT
BRANCH   6  20
HETATM   20  C   UNK N   1      26.759  24.411  -6.734  0.00  0.00    -0.013 C 
HETATM   21  C   UNK N   1      25.746  25.479  -7.113  0.00  0.00     0.010 C 
BRANCH  20  22
HETATM   22  C   UNK N   1      25.952  23.116  -6.552  0.00  0.00     0.015 C 
BRANCH  22  23
HETATM   23  C   UNK N   1      26.240  21.977  -7.516  0.00  0.00     0.110 C 
BRANCH  23  24
HETATM   24  C   UNK N   1      25.053  21.767  -8.404  0.00  0.00     0.139 C 
HETATM   25  O   UNK N   1      23.994  22.312  -8.145  0.00  0.00    -0.650 OA
BRANCH  24  26
HETATM   26  O   UNK N   1      25.154  20.983  -9.495  0.00  0.00    -0.776 OA
HETATM   27  H   UNK N   1      25.736  21.033 -10.229  0.00  0.00     0.167 HD
ENDBRANCH  24  26
ENDBRANCH  23  24
ENDBRANCH  22  23
ENDBRANCH  20  22
ENDBRANCH   6  20
BRANCH  11  28
HETATM   28  O   UNK N   1      30.287  23.002  -1.674  0.00  0.00    -0.395 OA
HETATM   29  H   UNK N   1      30.369  22.888  -0.714  0.00  0.00     0.210 HD
ENDBRANCH  11  28
BRANCH  19  30
HETATM   30  O   UNK N   1      35.481  18.873  -4.656  0.00  0.00    -0.396 OA
HETATM   31  H   UNK N   1      35.756  18.661  -3.750  0.00  0.00     0.210 HD
ENDBRANCH  19  30
TORSDOF 7
ENDMDL
MODEL 3
REMARK VINA RESULT:      -7.2     15.039     16.886
REMARK  7 active torsions:
REMARK  status: ('A' for Active; 'I' for Inactive)
REMARK    1  A    between atoms: C_14  and  C_6 
REMARK    2  A    between atoms: C_11  and  O_28 
REMARK    3  A    between atoms: C_19  and  C_14 
REMARK    4  A    between atoms: C_19  and  C_18 
REMARK    5  A    between atoms: C_22  and  C_18 
REMARK    6  A    between atoms: O_26  and  C_22 
REMARK    7  A    between atoms: C_24  and  O_27 
ROOT
HETATM    1  C   UNK N   1      27.754  25.600  -6.712  0.00  0.00    -0.036 C 
HETATM    2  C   UNK N   1      27.611  25.399  -5.165  0.00  0.00     0.001 C 
HETATM    3  C   UNK N   1      29.902  24.276  -5.147  0.00  0.00     0.001 C 
HETATM    4  C   UNK N   1      28.435  24.179  -4.635  0.00  0.00     0.024 C 
HETATM    5  C   UNK N   1      30.744  23.056  -4.683  0.00  0.00    -0.036 C 
HETATM    6  C   UNK N   1      26.304  25.619  -7.252  0.00  0.00    -0.002 C 
HETATM    7  C   UNK N   1      28.581  24.460  -7.332  0.00  0.00     0.010 C 
HETATM    8  C   UNK N   1      29.965  24.396  -6.686  0.00  0.00     0.007 C 
HETATM    9  C   UNK N   1      26.117  25.165  -4.935  0.00  0.00     0.006 C 
HETATM   10  C   UNK N   1      25.577  24.715  -6.277  0.00  0.00     0.006 C 
HETATM   11  C   UNK N   1      28.428  24.063  -3.093  0.00  0.00     0.123 C 
HETATM   12  C   UNK N   1      30.689  22.935  -3.137  0.00  0.00    -0.001 C 
HETATM   13  C   UNK N   1      29.247  22.852  -2.636  0.00  0.00     0.037 C 
HETATM   14  C   UNK N   1      28.447  26.923  -7.048  0.00  0.00     0.016 C 
HETATM   15  C   UNK N   1      30.207  21.776  -5.343  0.00  0.00     0.016 C 
HETATM   16  C   UNK N   1      32.219  23.252  -5.111  0.00  0.00     0.012 C 
HETATM   17  C   UNK N   1      31.478  21.712  -2.625  0.00  0.00     0.037 C 
HETATM   18  C   UNK N   1      33.243  22.442  -4.297  0.00  0.00     0.032 C 
HETATM   19  C   UNK N   1      32.598  21.264  -3.576  0.00  0.00     0.118 C 
ENDROOT
BRANCH   6  20
HETATM   20  C   UNK N   1      26.104  25.155  -8.723  0.00  0.00    -0.013 C 
HETATM   21  C   UNK N   1      25.562  26.258  -9.616  0.00  0.00     0.010 C 
BRANCH  20  22
HETATM   22  C   UNK N   1      25.167  23.955  -8.926  0.00  0.00     0.015 C 
BRANCH  22  23
HETATM   23  C   UNK N   1      25.813  22.587  -9.086  0.00  0.00     0.110 C 
BRANCH  23  24
HETATM   24  C   UNK N   1      25.022  21.573  -8.321  0.00  0.00     0.139 C 
HETATM   25  O   UNK N   1      25.520  20.495  -8.043  0.00  0.00    -0.650 OA
BRANCH  24  26
HETATM   26  O   UNK N   1      23.763  21.850  -7.930  0.00  0.00    -0.776 OA
HETATM   27  H   UNK N   1      23.403  21.969  -7.072  0.00  0.00     0.167 HD
ENDBRANCH  24  26
ENDBRANCH  23  24
ENDBRANCH  22  23
ENDBRANCH  20  22
ENDBRANCH   6  20
BRANCH  11  28
HETATM   28  O   UNK N   1      27.130  23.928  -2.601  0.00  0.00    -0.395 OA
HETATM   29  H   UNK N   1      26.776  23.483  -1.814  0.00  0.00     0.210 HD
ENDBRANCH  11  28
BRANCH  19  30
HETATM   30  O   UNK N   1      33.559  20.534  -2.879  0.00  0.00    -0.396 OA
HETATM   31  H   UNK N   1      34.232  20.992  -2.351  0.00  0.00     0.210 HD
ENDBRANCH  19  30
TORSDOF 7
ENDMDL
MODEL 4
REMARK VINA RESULT:      -7.1      2.419      8.084
REMARK  7 active torsions:
REMARK  status: ('A' for Active; 'I' for Inactive)
REMARK    1  A    between atoms: C_14  and  C_6 
REMARK    2  A    between atoms: C_11  and  O_28 
REMARK    3  A    between atoms: C_19  and  C_14 
REMARK    4  A    between atoms: C_19  and  C_18 
REMARK    5  A    between atoms: C_22  and  C_18 
REMARK    6  A    between atoms: O_26  and  C_22 
REMARK    7  A    between atoms: C_24  and  O_27 
ROOT
HETATM    1  C   UNK N   1      22.979  13.694   6.248  0.00  0.00    -0.036 C 
HETATM    2  C   UNK N   1      21.729  13.730   5.305  0.00  0.00     0.001 C 
HETATM    3  C   UNK N   1      22.343  16.119   4.657  0.00  0.00     0.001 C 
HETATM    4  C   UNK N   1      21.180  15.177   5.083  0.00  0.00     0.024 C 
HETATM    5  C   UNK N   1      21.849  17.581   4.473  0.00  0.00    -0.036 C 
HETATM    6  C   UNK N   1      22.614  12.688   7.366  0.00  0.00    -0.002 C 
HETATM    7  C   UNK N   1      23.272  15.095   6.812  0.00  0.00     0.010 C 
HETATM    8  C   UNK N   1      23.507  16.088   5.673  0.00  0.00     0.007 C 
HETATM    9  C   UNK N   1      20.679  12.871   6.013  0.00  0.00     0.006 C 
HETATM   10  C   UNK N   1      21.109  12.837   7.464  0.00  0.00     0.006 C 
HETATM   11  C   UNK N   1      20.045  15.245   4.035  0.00  0.00     0.123 C 
HETATM   12  C   UNK N   1      20.684  17.618   3.449  0.00  0.00    -0.001 C 
HETATM   13  C   UNK N   1      19.548  16.683   3.864  0.00  0.00     0.037 C 
HETATM   14  C   UNK N   1      24.230  13.212   5.509  0.00  0.00     0.016 C 
HETATM   15  C   UNK N   1      21.394  18.147   5.828  0.00  0.00     0.016 C 
HETATM   16  C   UNK N   1      23.009  18.455   3.937  0.00  0.00     0.012 C 
HETATM   17  C   UNK N   1      20.129  19.044   3.260  0.00  0.00     0.037 C 
HETATM   18  C   UNK N   1      22.570  19.741   3.215  0.00  0.00     0.032 C 
HETATM   19  C   UNK N   1      21.148  20.148   3.583  0.00  0.00     0.118 C 
ENDROOT
BRANCH   6  20
HETATM   20  C   UNK N   1      23.303  12.900   8.743  0.00  0.00    -0.013 C 
HETATM   21  C   UNK N   1      24.817  12.958   8.637  0.00  0.00     0.010 C 
BRANCH  20  22
HETATM   22  C   UNK N   1      23.000  11.841   9.815  0.00  0.00     0.015 C 
BRANCH  22  23
HETATM   23  C   UNK N   1      22.440  12.334  11.140  0.00  0.00     0.110 C 
BRANCH  23  24
HETATM   24  C   UNK N   1      23.406  12.013  12.237  0.00  0.00     0.139 C 
HETATM   25  O   UNK N   1      22.996  11.606  13.311  0.00  0.00    -0.650 OA
BRANCH  24  26
HETATM   26  O   UNK N   1      24.730  12.164  12.039  0.00  0.00    -0.776 OA
HETATM   27  H   UNK N   1      25.383  12.570  12.575  0.00  0.00     0.167 HD
ENDBRANCH  24  26
ENDBRANCH  23  24
ENDBRANCH  22  23
ENDBRANCH  20  22
ENDBRANCH   6  20
BRANCH  11  28
HETATM   28  O   UNK N   1      18.963  14.447   4.407  0.00  0.00    -0.395 OA
HETATM   29  H   UNK N   1      18.461  13.768   3.929  0.00  0.00     0.210 HD
ENDBRANCH  11  28
BRANCH  19  30
HETATM   30  O   UNK N   1      20.797  21.332   2.939  0.00  0.00    -0.396 OA
HETATM   31  H   UNK N   1      20.933  21.427   1.984  0.00  0.00     0.210 HD
ENDBRANCH  19  30
TORSDOF 7
ENDMDL
MODEL 5
REMARK VINA RESULT:      -7.1     16.100     18.709
REMARK  7 active torsions:
REMARK  status: ('A' for Active; 'I' for Inactive)
REMARK    1  A    between atoms: C_14  and  C_6 
REMARK    2  A    between atoms: C_11  and  O_28 
REMARK    3  A    between atoms: C_19  and  C_14 
REMARK    4  A    between atoms: C_19  and  C_18 
REMARK    5  A    between atoms: C_22  and  C_18 
REMARK    6  A    between atoms: O_26  and  C_22 
REMARK    7  A    between atoms: C_24  and  O_27 
ROOT
HETATM    1  C   UNK N   1      29.658  23.884  -7.429  0.00  0.00    -0.036 C 
HETATM    2  C   UNK N   1      28.092  23.896  -7.388  0.00  0.00     0.001 C 
HETATM    3  C   UNK N   1      28.179  26.304  -6.550  0.00  0.00     0.001 C 
HETATM    4  C   UNK N   1      27.522  24.908  -6.341  0.00  0.00     0.024 C 
HETATM    5  C   UNK N   1      27.677  27.330  -5.497  0.00  0.00    -0.036 C 
HETATM    6  C   UNK N   1      30.056  22.404  -7.218  0.00  0.00    -0.002 C 
HETATM    7  C   UNK N   1      30.235  24.795  -6.332  0.00  0.00     0.010 C 
HETATM    8  C   UNK N   1      29.722  26.224  -6.503  0.00  0.00     0.007 C 
HETATM    9  C   UNK N   1      27.698  22.468  -7.009  0.00  0.00     0.006 C 
HETATM   10  C   UNK N   1      28.929  21.880  -6.351  0.00  0.00     0.006 C 
HETATM   11  C   UNK N   1      25.983  25.044  -6.398  0.00  0.00     0.123 C 
HETATM   12  C   UNK N   1      26.128  27.418  -5.544  0.00  0.00    -0.001 C 
HETATM   13  C   UNK N   1      25.486  26.044  -5.350  0.00  0.00     0.037 C 
HETATM   14  C   UNK N   1      30.191  24.374  -8.778  0.00  0.00     0.016 C 
HETATM   15  C   UNK N   1      28.149  26.906  -4.097  0.00  0.00     0.016 C 
HETATM   16  C   UNK N   1      28.262  28.727  -5.814  0.00  0.00     0.012 C 
HETATM   17  C   UNK N   1      25.574  28.394  -4.487  0.00  0.00     0.037 C 
HETATM   18  C   UNK N   1      27.472  29.909  -5.226  0.00  0.00     0.032 C 
HETATM   19  C   UNK N   1      26.576  29.480  -4.069  0.00  0.00     0.118 C 
ENDROOT
BRANCH   6  20
HETATM   20  C   UNK N   1      31.446  22.144  -6.572  0.00  0.00    -0.013 C 
HETATM   21  C   UNK N   1      32.256  21.104  -7.327  0.00  0.00     0.010 C 
BRANCH  20  22
HETATM   22  C   UNK N   1      31.428  21.678  -5.108  0.00  0.00     0.015 C 
BRANCH  22  23
HETATM   23  C   UNK N   1      32.266  22.470  -4.116  0.00  0.00     0.110 C 
BRANCH  23  24
HETATM   24  C   UNK N   1      31.965  22.001  -2.727  0.00  0.00     0.139 C 
HETATM   25  O   UNK N   1      31.007  22.454  -2.125  0.00  0.00    -0.650 OA
BRANCH  24  26
HETATM   26  O   UNK N   1      32.746  21.072  -2.142  0.00  0.00    -0.776 OA
HETATM   27  H   UNK N   1      32.598  20.159  -1.993  0.00  0.00     0.167 HD
ENDBRANCH  24  26
ENDBRANCH  23  24
ENDBRANCH  22  23
ENDBRANCH  20  22
ENDBRANCH   6  20
BRANCH  11  28
HETATM   28  O   UNK N   1      25.358  23.819  -6.168  0.00  0.00    -0.395 OA
HETATM   29  H   UNK N   1      25.253  23.028  -6.721  0.00  0.00     0.210 HD
ENDBRANCH  11  28
BRANCH  19  30
HETATM   30  O   UNK N   1      25.904  30.580  -3.540  0.00  0.00    -0.396 OA
HETATM   31  H   UNK N   1      25.993  30.800  -2.599  0.00  0.00     0.210 HD
ENDBRANCH  19  30
TORSDOF 7
ENDMDL
MODEL 6
REMARK VINA RESULT:      -7.0     10.039     14.276
REMARK  7 active torsions:
REMARK  status: ('A' for Active; 'I' for Inactive)
REMARK    1  A    between atoms: C_14  and  C_6 
REMARK    2  A    between atoms: C_11  and  O_28 
REMARK    3  A    between atoms: C_19  and  C_14 
REMARK    4  A    between atoms: C_19  and  C_18 
REMARK    5  A    between atoms: C_22  and  C_18 
REMARK    6  A    between atoms: O_26  and  C_22 
REMARK    7  A    between atoms: C_24  and  O_27 
ROOT
HETATM    1  C   UNK N   1      33.906  16.883   7.728  0.00  0.00    -0.036 C 
HETATM    2  C   UNK N   1      34.143  16.568   6.211  0.00  0.00     0.001 C 
HETATM    3  C   UNK N   1      31.693  17.120   5.763  0.00  0.00     0.001 C 
HETATM    4  C   UNK N   1      32.840  16.106   5.479  0.00  0.00     0.024 C 
HETATM    5  C   UNK N   1      30.365  16.672   5.092  0.00  0.00    -0.036 C 
HETATM    6  C   UNK N   1      34.941  16.018   8.486  0.00  0.00    -0.002 C 
HETATM    7  C   UNK N   1      32.463  16.537   8.133  0.00  0.00     0.010 C 
HETATM    8  C   UNK N   1      31.468  17.321   7.278  0.00  0.00     0.007 C 
HETATM    9  C   UNK N   1      35.180  15.444   6.201  0.00  0.00     0.006 C 
HETATM   10  C   UNK N   1      35.095  14.816   7.576  0.00  0.00     0.006 C 
HETATM   11  C   UNK N   1      33.024  15.942   3.952  0.00  0.00     0.123 C 
HETATM   12  C   UNK N   1      30.584  16.474   3.569  0.00  0.00    -0.001 C 
HETATM   13  C   UNK N   1      31.719  15.487   3.293  0.00  0.00     0.037 C 
HETATM   14  C   UNK N   1      34.143  18.363   8.041  0.00  0.00     0.016 C 
HETATM   15  C   UNK N   1      29.873  15.367   5.740  0.00  0.00     0.016 C 
HETATM   16  C   UNK N   1      29.287  17.763   5.299  0.00  0.00     0.012 C 
HETATM   17  C   UNK N   1      29.303  15.989   2.860  0.00  0.00     0.037 C 
HETATM   18  C   UNK N   1      28.131  17.733   4.284  0.00  0.00     0.032 C 
HETATM   19  C   UNK N   1      28.011  16.380   3.593  0.00  0.00     0.118 C 
ENDROOT
BRANCH   6  20
HETATM   20  C   UNK N   1      34.566  15.597   9.935  0.00  0.00    -0.013 C 
HETATM   21  C   UNK N   1      35.300  16.409  10.989  0.00  0.00     0.010 C 
BRANCH  20  22
HETATM   22  C   UNK N   1      34.818  14.124  10.292  0.00  0.00     0.015 C 
BRANCH  22  23
HETATM   23  C   UNK N   1      35.728  13.841  11.477  0.00  0.00     0.110 C 
BRANCH  23  24
HETATM   24  C   UNK N   1      34.973  13.063  12.508  0.00  0.00     0.139 C 
HETATM   25  O   UNK N   1      34.901  13.478  13.653  0.00  0.00    -0.650 OA
BRANCH  24  26
HETATM   26  O   UNK N   1      34.365  11.908  12.174  0.00  0.00    -0.776 OA
HETATM   27  H   UNK N   1      34.532  11.029  12.453  0.00  0.00     0.167 HD
ENDBRANCH  24  26
ENDBRANCH  23  24
ENDBRANCH  22  23
ENDBRANCH  20  22
ENDBRANCH   6  20
BRANCH  11  28
HETATM   28  O   UNK N   1      34.015  15.005   3.660  0.00  0.00    -0.395 OA
HETATM   29  H   UNK N   1      34.404  14.711   2.821  0.00  0.00     0.210 HD
ENDBRANCH  11  28
BRANCH  19  30
HETATM   30  O   UNK N   1      26.935  16.378   2.708  0.00  0.00    -0.396 OA
HETATM   31  H   UNK N   1      27.063  16.110   1.785  0.00  0.00     0.210 HD
ENDBRANCH  19  30
TORSDOF 7
ENDMDL
MODEL 7
REMARK VINA RESULT:      -6.9     10.711     13.299
REMARK  7 active torsions:
REMARK  status: ('A' for Active; 'I' for Inactive)
REMARK    1  A    between atoms: C_14  and  C_6 
REMARK    2  A    between atoms: C_11  and  O_28 
REMARK    3  A    between atoms: C_19  and  C_14 
REMARK    4  A    between atoms: C_19  and  C_18 
REMARK    5  A    between atoms: C_22  and  C_18 
REMARK    6  A    between atoms: O_26  and  C_22 
REMARK    7  A    between atoms: C_24  and  O_27 
ROOT
HETATM    1  C   UNK N   1      33.394  16.327   6.747  0.00  0.00    -0.036 C 
HETATM    2  C   UNK N   1      34.263  16.844   7.943  0.00  0.00     0.001 C 
HETATM    3  C   UNK N   1      35.194  14.486   8.226  0.00  0.00     0.001 C 
HETATM    4  C   UNK N   1      34.605  15.719   8.974  0.00  0.00     0.024 C 
HETATM    5  C   UNK N   1      35.504  13.324   9.210  0.00  0.00    -0.036 C 
HETATM    6  C   UNK N   1      32.157  17.256   6.714  0.00  0.00    -0.002 C 
HETATM    7  C   UNK N   1      32.999  14.855   6.962  0.00  0.00     0.010 C 
HETATM    8  C   UNK N   1      34.248  13.986   7.112  0.00  0.00     0.007 C 
HETATM    9  C   UNK N   1      33.410  17.926   8.609  0.00  0.00     0.006 C 
HETATM   10  C   UNK N   1      31.990  17.633   8.172  0.00  0.00     0.006 C 
HETATM   11  C   UNK N   1      35.589  16.178  10.075  0.00  0.00     0.123 C 
HETATM   12  C   UNK N   1      36.458  13.820  10.328  0.00  0.00    -0.001 C 
HETATM   13  C   UNK N   1      35.883  15.037  11.052  0.00  0.00     0.037 C 
HETATM   14  C   UNK N   1      34.147  16.424   5.418  0.00  0.00     0.016 C 
HETATM   15  C   UNK N   1      34.193  12.796   9.815  0.00  0.00     0.016 C 
HETATM   16  C   UNK N   1      36.195  12.169   8.445  0.00  0.00     0.012 C 
HETATM   17  C   UNK N   1      36.766  12.712  11.356  0.00  0.00     0.037 C 
HETATM   18  C   UNK N   1      37.023  11.215   9.322  0.00  0.00     0.032 C 
HETATM   19  C   UNK N   1      36.619  11.292  10.790  0.00  0.00     0.118 C 
ENDROOT
BRANCH   6  20
HETATM   20  C   UNK N   1      30.851  16.654   6.124  0.00  0.00    -0.013 C 
HETATM   21  C   UNK N   1      30.350  17.419   4.910  0.00  0.00     0.010 C 
BRANCH  20  22
HETATM   22  C   UNK N   1      29.656  16.569   7.086  0.00  0.00     0.015 C 
BRANCH  22  23
HETATM   23  C   UNK N   1      28.615  17.674   7.001  0.00  0.00     0.110 C 
BRANCH  23  24
HETATM   24  C   UNK N   1      28.194  18.068   8.382  0.00  0.00     0.139 C 
HETATM   25  O   UNK N   1      28.538  17.395   9.339  0.00  0.00    -0.650 OA
BRANCH  24  26
HETATM   26  O   UNK N   1      27.443  19.170   8.572  0.00  0.00    -0.776 OA
HETATM   27  H   UNK N   1      27.495  19.836   9.230  0.00  0.00     0.167 HD
ENDBRANCH  24  26
ENDBRANCH  23  24
ENDBRANCH  22  23
ENDBRANCH  20  22
ENDBRANCH   6  20
BRANCH  11  28
HETATM   28  O   UNK N   1      35.074  17.254  10.797  0.00  0.00    -0.395 OA
HETATM   29  H   UNK N   1      34.948  18.189  10.570  0.00  0.00     0.210 HD
ENDBRANCH  11  28
BRANCH  19  30
HETATM   30  O   UNK N   1      37.364  10.391  11.549  0.00  0.00    -0.396 OA
HETATM   31  H   UNK N   1      37.438   9.465  11.272  0.00  0.00     0.210 HD
ENDBRANCH  19  30
TORSDOF 7
ENDMDL
MODEL 8
REMARK VINA RESULT:      -6.9     13.497     16.077
REMARK  7 active torsions:
REMARK  status: ('A' for Active; 'I' for Inactive)
REMARK    1  A    between atoms: C_14  and  C_6 
REMARK    2  A    between atoms: C_11  and  O_28 
REMARK    3  A    between atoms: C_19  and  C_14 
REMARK    4  A    between atoms: C_19  and  C_18 
REMARK    5  A    between atoms: C_22  and  C_18 
REMARK    6  A    between atoms: O_26  and  C_22 
REMARK    7  A    between atoms: C_24  and  O_27 
ROOT
HETATM    1  C   UNK N   1      35.978  13.149  11.055  0.00  0.00    -0.036 C 
HETATM    2  C   UNK N   1      36.640  13.762  12.336  0.00  0.00     0.001 C 
HETATM    3  C   UNK N   1      35.981  11.661  13.625  0.00  0.00     0.001 C 
HETATM    4  C   UNK N   1      36.012  13.217  13.661  0.00  0.00     0.024 C 
HETATM    5  C   UNK N   1      35.319  11.079  14.904  0.00  0.00    -0.036 C 
HETATM    6  C   UNK N   1      35.533  14.366  10.209  0.00  0.00    -0.002 C 
HETATM    7  C   UNK N   1      34.789  12.251  11.438  0.00  0.00     0.010 C 
HETATM    8  C   UNK N   1      35.247  11.132  12.372  0.00  0.00     0.007 C 
HETATM    9  C   UNK N   1      36.401  15.268  12.219  0.00  0.00     0.006 C 
HETATM   10  C   UNK N   1      35.233  15.409  11.266  0.00  0.00     0.006 C 
HETATM   11  C   UNK N   1      36.757  13.693  14.929  0.00  0.00     0.123 C 
HETATM   12  C   UNK N   1      36.056  11.603  16.164  0.00  0.00    -0.001 C 
HETATM   13  C   UNK N   1      36.096  13.132  16.191  0.00  0.00     0.037 C 
HETATM   14  C   UNK N   1      36.972  12.302  10.256  0.00  0.00     0.016 C 
HETATM   15  C   UNK N   1      33.835  11.477  14.944  0.00  0.00     0.016 C 
HETATM   16  C   UNK N   1      35.416   9.534  14.880  0.00  0.00     0.012 C 
HETATM   17  C   UNK N   1      35.412  11.087  17.466  0.00  0.00     0.037 C 
HETATM   18  C   UNK N   1      35.305   8.857  16.257  0.00  0.00     0.032 C 
HETATM   19  C   UNK N   1      34.649   9.765  17.290  0.00  0.00     0.118 C 
ENDROOT
BRANCH   6  20
HETATM   20  C   UNK N   1      34.322  14.146   9.259  0.00  0.00    -0.013 C 
HETATM   21  C   UNK N   1      34.743  13.714   7.865  0.00  0.00     0.010 C 
BRANCH  20  22
HETATM   22  C   UNK N   1      33.397  15.356   9.061  0.00  0.00     0.015 C 
BRANCH  22  23
HETATM   23  C   UNK N   1      33.442  16.052   7.709  0.00  0.00     0.110 C 
BRANCH  23  24
HETATM   24  C   UNK N   1      34.172  17.351   7.844  0.00  0.00     0.139 C 
HETATM   25  O   UNK N   1      34.563  17.937   6.848  0.00  0.00    -0.650 OA
BRANCH  24  26
HETATM   26  O   UNK N   1      34.393  17.880   9.063  0.00  0.00    -0.776 OA
HETATM   27  H   UNK N   1      35.146  18.319   9.409  0.00  0.00     0.167 HD
ENDBRANCH  24  26
ENDBRANCH  23  24
ENDBRANCH  22  23
ENDBRANCH  20  22
ENDBRANCH   6  20
BRANCH  11  28
HETATM   28  O   UNK N   1      36.765  15.085  15.020  0.00  0.00    -0.395 OA
HETATM   29  H   UNK N   1      37.221  15.768  14.501  0.00  0.00     0.210 HD
ENDBRANCH  11  28
BRANCH  19  30
HETATM   30  O   UNK N   1      34.534   9.108  18.514  0.00  0.00    -0.396 OA
HETATM   31  H   UNK N   1      33.660   8.943  18.899  0.00  0.00     0.210 HD
ENDBRANCH  19  30
TORSDOF 7
ENDMDL
MODEL 9
REMARK VINA RESULT:      -6.8     15.777     17.850
REMARK  7 active torsions:
REMARK  status: ('A' for Active; 'I' for Inactive)
REMARK    1  A    between atoms: C_14  and  C_6 
REMARK    2  A    between atoms: C_11  and  O_28 
REMARK    3  A    between atoms: C_19  and  C_14 
REMARK    4  A    between atoms: C_19  and  C_18 
REMARK    5  A    between atoms: C_22  and  C_18 
REMARK    6  A    between atoms: O_26  and  C_22 
REMARK    7  A    between atoms: C_24  and  O_27 
ROOT
HETATM    1  C   UNK N   1      27.269  24.614  -4.912  0.00  0.00    -0.036 C 
HETATM    2  C   UNK N   1      27.520  23.368  -5.828  0.00  0.00     0.001 C 
HETATM    3  C   UNK N   1      29.552  22.786  -4.400  0.00  0.00     0.001 C 
HETATM    4  C   UNK N   1      29.022  22.931  -5.856  0.00  0.00     0.024 C 
HETATM    5  C   UNK N   1      31.057  22.400  -4.381  0.00  0.00    -0.036 C 
HETATM    6  C   UNK N   1      26.550  25.642  -5.818  0.00  0.00    -0.002 C 
HETATM    7  C   UNK N   1      28.599  25.162  -4.367  0.00  0.00     0.010 C 
HETATM    8  C   UNK N   1      29.337  24.079  -3.580  0.00  0.00     0.007 C 
HETATM    9  C   UNK N   1      27.074  23.810  -7.223  0.00  0.00     0.006 C 
HETATM   10  C   UNK N   1      27.111  25.323  -7.188  0.00  0.00     0.006 C 
HETATM   11  C   UNK N   1      29.259  21.613  -6.630  0.00  0.00     0.123 C 
HETATM   12  C   UNK N   1      31.277  21.099  -5.198  0.00  0.00    -0.001 C 
HETATM   13  C   UNK N   1      30.744  21.240  -6.624  0.00  0.00     0.037 C 
HETATM   14  C   UNK N   1      26.376  24.266  -3.718  0.00  0.00     0.016 C 
HETATM   15  C   UNK N   1      31.893  23.550  -4.965  0.00  0.00     0.016 C 
HETATM   16  C   UNK N   1      31.510  22.151  -2.922  0.00  0.00     0.012 C 
HETATM   17  C   UNK N   1      32.763  20.693  -5.246  0.00  0.00     0.037 C 
HETATM   18  C   UNK N   1      32.763  21.272  -2.774  0.00  0.00     0.032 C 
HETATM   19  C   UNK N   1      33.582  21.221  -4.058  0.00  0.00     0.118 C 
ENDROOT
BRANCH   6  20
HETATM   20  C   UNK N   1      26.741  27.142  -5.454  0.00  0.00    -0.013 C 
HETATM   21  C   UNK N   1      25.470  27.782  -4.923  0.00  0.00     0.010 C 
BRANCH  20  22
HETATM   22  C   UNK N   1      27.223  28.053  -6.593  0.00  0.00     0.015 C 
BRANCH  22  23
HETATM   23  C   UNK N   1      28.077  29.251  -6.212  0.00  0.00     0.110 C 
BRANCH  23  24
HETATM   24  C   UNK N   1      29.250  28.788  -5.406  0.00  0.00     0.139 C 
HETATM   25  O   UNK N   1      29.359  29.125  -4.239  0.00  0.00    -0.650 OA
BRANCH  24  26
HETATM   26  O   UNK N   1      30.183  27.992  -5.963  0.00  0.00    -0.776 OA
HETATM   27  H   UNK N   1      30.134  27.426  -6.709  0.00  0.00     0.167 HD
ENDBRANCH  24  26
ENDBRANCH  23  24
ENDBRANCH  22  23
ENDBRANCH  20  22
ENDBRANCH   6  20
BRANCH  11  28
HETATM   28  O   UNK N   1      28.838  21.721  -7.955  0.00  0.00    -0.395 OA
HETATM   29  H   UNK N   1      29.152  22.264  -8.695  0.00  0.00     0.210 HD
ENDBRANCH  11  28
BRANCH  19  30
HETATM   30  O   UNK N   1      34.726  20.446  -3.878  0.00  0.00    -0.396 OA
HETATM   31  H   UNK N   1      35.527  20.630  -4.392  0.00  0.00     0.210 HD
ENDBRANCH  19  30
TORSDOF 7
ENDMDL
