MODEL 1
REMARK VINA RESULT:      -8.1      0.000      0.000
REMARK  5 active torsions:
REMARK  status: ('A' for Active; 'I' for Inactive)
REMARK    1  A    between atoms: N_4  and  C_14 
REMARK    2  A    between atoms: N_5  and  C_23 
REMARK    3  A    between atoms: N_6  and  C_16 
REMARK    4  A    between atoms: C_8  and  C_13 
REMARK    5  A    between atoms: C_14  and  C_16 
ROOT
HETATM    1 Cl   UNK N   1      29.678  18.699  10.174  0.00  0.00    -0.084 Cl
HETATM    2  N   UNK N   1      30.465  16.701   4.712  0.00  0.00    -0.321 N 
HETATM    3  C   UNK N   1      28.542  17.768   5.134  0.00  0.00    -0.025 A 
HETATM    4  C   UNK N   1      29.292  17.767   6.288  0.00  0.00     0.001 A 
HETATM    5  C   UNK N   1      29.291  17.104   4.174  0.00  0.00     0.106 A 
HETATM    6  C   UNK N   1      30.462  17.105   6.005  0.00  0.00     0.050 A 
HETATM    7  C   UNK N   1      29.013  18.270   7.556  0.00  0.00     0.038 A 
HETATM    8  C   UNK N   1      31.439  16.906   6.984  0.00  0.00     0.032 A 
HETATM    9  C   UNK N   1      29.979  18.088   8.560  0.00  0.00     0.035 A 
HETATM   10  C   UNK N   1      31.186  17.409   8.276  0.00  0.00     0.026 A 
ENDROOT
BRANCH   3  11
HETATM   11  C   UNK N   1      27.153  18.294   4.934  0.00  0.00     0.024 C 
HETATM   12  C   UNK N   1      27.119  19.771   4.547  0.00  0.00     0.039 C 
HETATM   13  C   UNK N   1      25.658  20.207   4.371  0.00  0.00     0.273 C 
HETATM   14  N   UNK N   1      24.968  19.376   3.376  0.00  0.00     0.090 N 
HETATM   15  C   UNK N   1      24.988  17.979   3.820  0.00  0.00     0.273 C 
HETATM   16  C   UNK N   1      26.413  17.482   3.878  0.00  0.00     0.039 C 
BRANCH  14  17
HETATM   17  C   UNK N   1      23.585  19.848   3.325  0.00  0.00     0.292 C 
BRANCH  17  18
HETATM   18  C   UNK N   1      22.623  18.971   4.131  0.00  0.00     0.158 C 
BRANCH  18  19
HETATM   19  N   UNK N   1      21.405  18.726   3.400  0.00  0.00    -0.331 N 
HETATM   20  C   UNK N   1      21.126  17.528   2.649  0.00  0.00     0.147 A 
HETATM   21  C   UNK N   1      19.711  17.814   2.069  0.00  0.00     0.144 A 
HETATM   22  N   UNK N   1      19.398  19.143   2.548  0.00  0.00    -0.341 N 
HETATM   23  C   UNK N   1      20.402  19.591   3.293  0.00  0.00     0.318 A 
HETATM   24  H   UNK N   1      18.570  19.638   2.352  0.00  0.00     0.164 HD
HETATM   25  O   UNK N   1      20.403  20.699   3.811  0.00  0.00    -0.247 OA
ENDBRANCH  18  19
ENDBRANCH  17  18
ENDBRANCH  14  17
ENDBRANCH   3  11
BRANCH   2  26
HETATM   26  C   UNK N   1      31.443  15.952   3.963  0.00  0.00     0.039 A 
HETATM   27  C   UNK N   1      31.262  14.568   3.789  0.00  0.00     0.033 A 
HETATM   28  C   UNK N   1      32.197  13.806   3.093  0.00  0.00     0.044 A 
HETATM   29  C   UNK N   1      33.331  14.418   2.561  0.00  0.00     0.116 A 
HETATM   30  F   UNK N   1      34.241  13.673   1.888  0.00  0.00    -0.206 F 
HETATM   31  C   UNK N   1      33.527  15.794   2.724  0.00  0.00     0.044 A 
HETATM   32  C   UNK N   1      32.586  16.562   3.423  0.00  0.00     0.033 A 
ENDBRANCH   2  26
TORSDOF 5
ENDMDL
MODEL 2
REMARK VINA RESULT:      -7.9      9.299     13.093
REMARK  5 active torsions:
REMARK  status: ('A' for Active; 'I' for Inactive)
REMARK    1  A    between atoms: N_4  and  C_14 
REMARK    2  A    between atoms: N_5  and  C_23 
REMARK    3  A    between atoms: N_6  and  C_16 
REMARK    4  A    between atoms: C_8  and  C_13 
REMARK    5  A    between atoms: C_14  and  C_16 
ROOT
HETATM    1 Cl   UNK N   1      38.749   9.041  10.945  0.00  0.00    -0.084 Cl
HETATM    2  N   UNK N   1      35.966  12.419  14.856  0.00  0.00    -0.321 N 
HETATM    3  C   UNK N   1      36.061  13.174  12.750  0.00  0.00    -0.025 A 
HETATM    4  C   UNK N   1      36.691  11.950  12.794  0.00  0.00     0.001 A 
HETATM    5  C   UNK N   1      35.620  13.438  14.038  0.00  0.00     0.106 A 
HETATM    6  C   UNK N   1      36.624  11.511  14.094  0.00  0.00     0.050 A 
HETATM    7  C   UNK N   1      37.337  11.222  11.798  0.00  0.00     0.038 A 
HETATM    8  C   UNK N   1      37.200  10.299  14.482  0.00  0.00     0.032 A 
HETATM    9  C   UNK N   1      37.923   9.997  12.159  0.00  0.00     0.035 A 
HETATM   10  C   UNK N   1      37.856   9.537  13.494  0.00  0.00     0.026 A 
ENDROOT
BRANCH   3  11
HETATM   11  C   UNK N   1      35.930  14.105  11.583  0.00  0.00     0.024 C 
HETATM   12  C   UNK N   1      34.792  13.728  10.637  0.00  0.00     0.039 C 
HETATM   13  C   UNK N   1      34.748  14.738   9.482  0.00  0.00     0.273 C 
HETATM   14  N   UNK N   1      34.600  16.112   9.979  0.00  0.00     0.090 N 
HETATM   15  C   UNK N   1      35.740  16.437  10.841  0.00  0.00     0.273 C 
HETATM   16  C   UNK N   1      35.734  15.540  12.057  0.00  0.00     0.039 C 
BRANCH  14  17
HETATM   17  C   UNK N   1      34.615  16.984   8.805  0.00  0.00     0.292 C 
BRANCH  17  18
HETATM   18  C   UNK N   1      33.240  17.574   8.480  0.00  0.00     0.158 C 
BRANCH  18  19
HETATM   19  N   UNK N   1      32.664  16.944   7.320  0.00  0.00    -0.331 N 
HETATM   20  C   UNK N   1      31.594  15.979   7.356  0.00  0.00     0.147 A 
HETATM   21  C   UNK N   1      31.396  15.634   5.851  0.00  0.00     0.144 A 
HETATM   22  N   UNK N   1      32.399  16.429   5.176  0.00  0.00    -0.341 N 
HETATM   23  C   UNK N   1      33.074  17.142   6.071  0.00  0.00     0.318 A 
HETATM   24  H   UNK N   1      32.557  16.440   4.205  0.00  0.00     0.164 HD
HETATM   25  O   UNK N   1      33.992  17.891   5.769  0.00  0.00    -0.247 OA
ENDBRANCH  18  19
ENDBRANCH  17  18
ENDBRANCH  14  17
ENDBRANCH   3  11
BRANCH   2  26
HETATM   26  C   UNK N   1      35.672  12.424  16.268  0.00  0.00     0.039 A 
HETATM   27  C   UNK N   1      35.507  13.654  16.929  0.00  0.00     0.033 A 
HETATM   28  C   UNK N   1      35.245  13.702  18.296  0.00  0.00     0.044 A 
HETATM   29  C   UNK N   1      35.148  12.517  19.025  0.00  0.00     0.116 A 
HETATM   30  F   UNK N   1      34.898  12.567  20.354  0.00  0.00    -0.206 F 
HETATM   31  C   UNK N   1      35.309  11.284  18.382  0.00  0.00     0.044 A 
HETATM   32  C   UNK N   1      35.571  11.235  17.006  0.00  0.00     0.033 A 
ENDBRANCH   2  26
TORSDOF 5
ENDMDL
MODEL 3
REMARK VINA RESULT:      -7.8      5.636     10.641
REMARK  5 active torsions:
REMARK  status: ('A' for Active; 'I' for Inactive)
REMARK    1  A    between atoms: N_4  and  C_14 
REMARK    2  A    between atoms: N_5  and  C_23 
REMARK    3  A    between atoms: N_6  and  C_16 
REMARK    4  A    between atoms: C_8  and  C_13 
REMARK    5  A    between atoms: C_14  and  C_16 
ROOT
HETATM    1 Cl   UNK N   1      30.714  12.351   2.083  0.00  0.00    -0.084 Cl
HETATM    2  N   UNK N   1      28.524  17.359   4.221  0.00  0.00    -0.321 N 
HETATM    3  C   UNK N   1      30.406  16.592   5.162  0.00  0.00    -0.025 A 
HETATM    4  C   UNK N   1      30.048  15.725   4.154  0.00  0.00     0.001 A 
HETATM    5  C   UNK N   1      29.448  17.594   5.181  0.00  0.00     0.106 A 
HETATM    6  C   UNK N   1      28.892  16.214   3.596  0.00  0.00     0.050 A 
HETATM    7  C   UNK N   1      30.638  14.541   3.718  0.00  0.00     0.038 A 
HETATM    8  C   UNK N   1      28.249  15.544   2.553  0.00  0.00     0.032 A 
HETATM    9  C   UNK N   1      30.015  13.846   2.668  0.00  0.00     0.035 A 
HETATM   10  C   UNK N   1      28.826  14.345   2.088  0.00  0.00     0.026 A 
ENDROOT
BRANCH   3  11
HETATM   11  C   UNK N   1      31.547  16.469   6.126  0.00  0.00     0.024 C 
HETATM   12  C   UNK N   1      32.700  17.421   5.819  0.00  0.00     0.039 C 
HETATM   13  C   UNK N   1      33.811  17.211   6.858  0.00  0.00     0.273 C 
HETATM   14  N   UNK N   1      33.307  17.402   8.224  0.00  0.00     0.090 N 
HETATM   15  C   UNK N   1      32.238  16.433   8.481  0.00  0.00     0.273 C 
HETATM   16  C   UNK N   1      31.073  16.699   7.556  0.00  0.00     0.039 C 
BRANCH  14  17
HETATM   17  C   UNK N   1      34.429  17.136   9.122  0.00  0.00     0.292 C 
BRANCH  17  18
HETATM   18  C   UNK N   1      35.036  15.743   8.926  0.00  0.00     0.158 C 
BRANCH  18  19
HETATM   19  N   UNK N   1      35.393  15.148  10.188  0.00  0.00    -0.331 N 
HETATM   20  C   UNK N   1      34.468  14.882  11.261  0.00  0.00     0.147 A 
HETATM   21  C   UNK N   1      35.387  14.266  12.356  0.00  0.00     0.144 A 
HETATM   22  N   UNK N   1      36.706  14.295  11.762  0.00  0.00    -0.341 N 
HETATM   23  C   UNK N   1      36.628  14.805  10.539  0.00  0.00     0.318 A 
HETATM   24  H   UNK N   1      37.532  13.985  12.198  0.00  0.00     0.164 HD
HETATM   25  O   UNK N   1      37.605  14.957   9.818  0.00  0.00    -0.247 OA
ENDBRANCH  18  19
ENDBRANCH  17  18
ENDBRANCH  14  17
ENDBRANCH   3  11
BRANCH   2  26
HETATM   26  C   UNK N   1      27.382  18.215   4.019  0.00  0.00     0.039 A 
HETATM   27  C   UNK N   1      27.575  19.605   3.924  0.00  0.00     0.033 A 
HETATM   28  C   UNK N   1      26.495  20.467   3.752  0.00  0.00     0.044 A 
HETATM   29  C   UNK N   1      25.202  19.951   3.676  0.00  0.00     0.116 A 
HETATM   30  F   UNK N   1      24.154  20.793   3.513  0.00  0.00    -0.206 F 
HETATM   31  C   UNK N   1      24.992  18.570   3.768  0.00  0.00     0.044 A 
HETATM   32  C   UNK N   1      26.078  17.702   3.939  0.00  0.00     0.033 A 
ENDBRANCH   2  26
TORSDOF 5
ENDMDL
MODEL 4
REMARK VINA RESULT:      -7.7      4.862      9.856
REMARK  5 active torsions:
REMARK  status: ('A' for Active; 'I' for Inactive)
REMARK    1  A    between atoms: N_4  and  C_14 
REMARK    2  A    between atoms: N_5  and  C_23 
REMARK    3  A    between atoms: N_6  and  C_16 
REMARK    4  A    between atoms: C_8  and  C_13 
REMARK    5  A    between atoms: C_14  and  C_16 
ROOT
HETATM    1 Cl   UNK N   1      24.608  12.826   8.394  0.00  0.00    -0.084 Cl
HETATM    2  N   UNK N   1      25.013  17.390   4.726  0.00  0.00    -0.321 N 
HETATM    3  C   UNK N   1      26.928  16.391   5.317  0.00  0.00    -0.025 A 
HETATM    4  C   UNK N   1      25.891  15.723   5.928  0.00  0.00     0.001 A 
HETATM    5  C   UNK N   1      26.357  17.416   4.578  0.00  0.00     0.106 A 
HETATM    6  C   UNK N   1      24.731  16.356   5.554  0.00  0.00     0.050 A 
HETATM    7  C   UNK N   1      25.896  14.637   6.800  0.00  0.00     0.038 A 
HETATM    8  C   UNK N   1      23.487  15.933   6.031  0.00  0.00     0.032 A 
HETATM    9  C   UNK N   1      24.659  14.187   7.293  0.00  0.00     0.035 A 
HETATM   10  C   UNK N   1      23.460  14.832   6.911  0.00  0.00     0.026 A 
ENDROOT
BRANCH   3  11
HETATM   11  C   UNK N   1      28.399  16.147   5.462  0.00  0.00     0.024 C 
HETATM   12  C   UNK N   1      29.193  16.482   4.202  0.00  0.00     0.039 C 
HETATM   13  C   UNK N   1      30.679  16.194   4.456  0.00  0.00     0.273 C 
HETATM   14  N   UNK N   1      31.177  16.941   5.618  0.00  0.00     0.090 N 
HETATM   15  C   UNK N   1      30.415  16.545   6.806  0.00  0.00     0.273 C 
HETATM   16  C   UNK N   1      28.966  16.936   6.637  0.00  0.00     0.039 C 
BRANCH  14  17
HETATM   17  C   UNK N   1      32.577  16.557   5.790  0.00  0.00     0.292 C 
BRANCH  17  18
HETATM   18  C   UNK N   1      33.419  17.648   6.459  0.00  0.00     0.158 C 
BRANCH  18  19
HETATM   19  N   UNK N   1      33.925  17.208   7.734  0.00  0.00    -0.331 N 
HETATM   20  C   UNK N   1      33.701  15.902   8.299  0.00  0.00     0.147 A 
HETATM   21  C   UNK N   1      34.445  15.989   9.663  0.00  0.00     0.144 A 
HETATM   22  N   UNK N   1      34.962  17.341   9.692  0.00  0.00    -0.341 N 
HETATM   23  C   UNK N   1      34.629  17.966   8.569  0.00  0.00     0.318 A 
HETATM   24  H   UNK N   1      35.480  17.735  10.430  0.00  0.00     0.164 HD
HETATM   25  O   UNK N   1      34.928  19.130   8.341  0.00  0.00    -0.247 OA
ENDBRANCH  18  19
ENDBRANCH  17  18
ENDBRANCH  14  17
ENDBRANCH   3  11
BRANCH   2  26
HETATM   26  C   UNK N   1      24.146  18.358   4.102  0.00  0.00     0.039 A 
HETATM   27  C   UNK N   1      24.695  19.561   3.621  0.00  0.00     0.033 A 
HETATM   28  C   UNK N   1      23.886  20.531   3.033  0.00  0.00     0.044 A 
HETATM   29  C   UNK N   1      22.514  20.314   2.920  0.00  0.00     0.116 A 
HETATM   30  F   UNK N   1      21.730  21.260   2.352  0.00  0.00    -0.206 F 
HETATM   31  C   UNK N   1      21.952  19.122   3.392  0.00  0.00     0.044 A 
HETATM   32  C   UNK N   1      22.764  18.144   3.982  0.00  0.00     0.033 A 
ENDBRANCH   2  26
TORSDOF 5
ENDMDL
MODEL 5
REMARK VINA RESULT:      -7.7     11.109     15.057
REMARK  5 active torsions:
REMARK  status: ('A' for Active; 'I' for Inactive)
REMARK    1  A    between atoms: N_4  and  C_14 
REMARK    2  A    between atoms: N_5  and  C_23 
REMARK    3  A    between atoms: N_6  and  C_16 
REMARK    4  A    between atoms: C_8  and  C_13 
REMARK    5  A    between atoms: C_14  and  C_16 
ROOT
HETATM    1 Cl   UNK N   1      39.892   7.810  12.970  0.00  0.00    -0.084 Cl
HETATM    2  N   UNK N   1      36.121  10.727  16.395  0.00  0.00    -0.321 N 
HETATM    3  C   UNK N   1      36.698  11.701  14.462  0.00  0.00    -0.025 A 
HETATM    4  C   UNK N   1      37.342  10.486  14.538  0.00  0.00     0.001 A 
HETATM    5  C   UNK N   1      35.947  11.824  15.622  0.00  0.00     0.106 A 
HETATM    6  C   UNK N   1      36.976   9.912  15.731  0.00  0.00     0.050 A 
HETATM    7  C   UNK N   1      38.236   9.874  13.664  0.00  0.00     0.038 A 
HETATM    8  C   UNK N   1      37.485   8.672  16.126  0.00  0.00     0.032 A 
HETATM    9  C   UNK N   1      38.762   8.624  14.033  0.00  0.00     0.035 A 
HETATM   10  C   UNK N   1      38.388   8.026  15.258  0.00  0.00     0.026 A 
ENDROOT
BRANCH   3  11
HETATM   11  C   UNK N   1      36.820  12.748  13.398  0.00  0.00     0.024 C 
HETATM   12  C   UNK N   1      36.458  12.237  12.005  0.00  0.00     0.039 C 
HETATM   13  C   UNK N   1      36.620  13.382  10.995  0.00  0.00     0.273 C 
HETATM   14  N   UNK N   1      35.804  14.544  11.370  0.00  0.00     0.090 N 
HETATM   15  C   UNK N   1      36.226  15.022  12.689  0.00  0.00     0.273 C 
HETATM   16  C   UNK N   1      35.956  13.959  13.728  0.00  0.00     0.039 C 
BRANCH  14  17
HETATM   17  C   UNK N   1      36.070  15.578  10.371  0.00  0.00     0.292 C 
BRANCH  17  18
HETATM   18  C   UNK N   1      35.146  16.792  10.506  0.00  0.00     0.158 C 
BRANCH  18  19
HETATM   19  N   UNK N   1      34.423  17.035   9.284  0.00  0.00    -0.331 N 
HETATM   20  C   UNK N   1      33.468  16.126   8.701  0.00  0.00     0.147 A 
HETATM   21  C   UNK N   1      33.026  16.877   7.413  0.00  0.00     0.144 A 
HETATM   22  N   UNK N   1      33.810  18.093   7.431  0.00  0.00    -0.341 N 
HETATM   23  C   UNK N   1      34.573  18.110   8.517  0.00  0.00     0.318 A 
HETATM   24  H   UNK N   1      33.783  18.798   6.744  0.00  0.00     0.164 HD
HETATM   25  O   UNK N   1      35.350  19.021   8.772  0.00  0.00    -0.247 OA
ENDBRANCH  18  19
ENDBRANCH  17  18
ENDBRANCH  14  17
ENDBRANCH   3  11
BRANCH   2  26
HETATM   26  C   UNK N   1      35.493  10.580  17.684  0.00  0.00     0.039 A 
HETATM   27  C   UNK N   1      35.717  11.557  18.671  0.00  0.00     0.033 A 
HETATM   28  C   UNK N   1      35.147  11.439  19.937  0.00  0.00     0.044 A 
HETATM   29  C   UNK N   1      34.346  10.339  20.235  0.00  0.00     0.116 A 
HETATM   30  F   UNK N   1      33.797  10.224  21.468  0.00  0.00    -0.206 F 
HETATM   31  C   UNK N   1      34.111   9.358  19.264  0.00  0.00     0.044 A 
HETATM   32  C   UNK N   1      34.683   9.477  17.990  0.00  0.00     0.033 A 
ENDBRANCH   2  26
TORSDOF 5
ENDMDL
MODEL 6
REMARK VINA RESULT:      -7.5      7.833     11.430
REMARK  5 active torsions:
REMARK  status: ('A' for Active; 'I' for Inactive)
REMARK    1  A    between atoms: N_4  and  C_14 
REMARK    2  A    between atoms: N_5  and  C_23 
REMARK    3  A    between atoms: N_6  and  C_16 
REMARK    4  A    between atoms: C_8  and  C_13 
REMARK    5  A    between atoms: C_14  and  C_16 
ROOT
HETATM    1 Cl   UNK N   1      38.589  10.275   8.692  0.00  0.00    -0.084 Cl
HETATM    2  N   UNK N   1      35.935  13.536  12.788  0.00  0.00    -0.321 N 
HETATM    3  C   UNK N   1      35.761  14.233  10.667  0.00  0.00    -0.025 A 
HETATM    4  C   UNK N   1      36.490  13.065  10.675  0.00  0.00     0.001 A 
HETATM    5  C   UNK N   1      35.428  14.500  11.987  0.00  0.00     0.106 A 
HETATM    6  C   UNK N   1      36.586  12.661  11.984  0.00  0.00     0.050 A 
HETATM    7  C   UNK N   1      37.093  12.362   9.635  0.00  0.00     0.038 A 
HETATM    8  C   UNK N   1      37.295  11.510  12.338  0.00  0.00     0.032 A 
HETATM    9  C   UNK N   1      37.810  11.198   9.962  0.00  0.00     0.035 A 
HETATM   10  C   UNK N   1      37.911  10.774  11.306  0.00  0.00     0.026 A 
ENDROOT
BRANCH   3  11
HETATM   11  C   UNK N   1      35.440  15.116   9.500  0.00  0.00     0.024 C 
HETATM   12  C   UNK N   1      34.464  14.480   8.514  0.00  0.00     0.039 C 
HETATM   13  C   UNK N   1      34.208  15.461   7.362  0.00  0.00     0.273 C 
HETATM   14  N   UNK N   1      33.706  16.749   7.858  0.00  0.00     0.090 N 
HETATM   15  C   UNK N   1      34.701  17.337   8.759  0.00  0.00     0.273 C 
HETATM   16  C   UNK N   1      34.879  16.452   9.971  0.00  0.00     0.039 C 
BRANCH  14  17
HETATM   17  C   UNK N   1      33.543  17.611   6.688  0.00  0.00     0.292 C 
BRANCH  17  18
HETATM   18  C   UNK N   1      33.607  16.842   5.365  0.00  0.00     0.158 C 
BRANCH  18  19
HETATM   19  N   UNK N   1      32.350  16.904   4.664  0.00  0.00    -0.331 N 
HETATM   20  C   UNK N   1      31.072  17.138   5.290  0.00  0.00     0.147 A 
HETATM   21  C   UNK N   1      30.089  17.085   4.085  0.00  0.00     0.144 A 
HETATM   22  N   UNK N   1      30.942  16.801   2.950  0.00  0.00    -0.341 N 
HETATM   23  C   UNK N   1      32.203  16.715   3.357  0.00  0.00     0.318 A 
HETATM   24  H   UNK N   1      30.635  16.690   2.022  0.00  0.00     0.164 HD
HETATM   25  O   UNK N   1      33.131  16.466   2.599  0.00  0.00    -0.247 OA
ENDBRANCH  18  19
ENDBRANCH  17  18
ENDBRANCH  14  17
ENDBRANCH   3  11
BRANCH   2  26
HETATM   26  C   UNK N   1      35.781  13.559  14.222  0.00  0.00     0.039 A 
HETATM   27  C   UNK N   1      36.683  14.311  14.996  0.00  0.00     0.033 A 
HETATM   28  C   UNK N   1      36.582  14.340  16.385  0.00  0.00     0.044 A 
HETATM   29  C   UNK N   1      35.578  13.613  17.022  0.00  0.00     0.116 A 
HETATM   30  F   UNK N   1      35.485  13.640  18.372  0.00  0.00    -0.206 F 
HETATM   31  C   UNK N   1      34.672  12.859  16.266  0.00  0.00     0.044 A 
HETATM   32  C   UNK N   1      34.771  12.831  14.869  0.00  0.00     0.033 A 
ENDBRANCH   2  26
TORSDOF 5
ENDMDL
MODEL 7
REMARK VINA RESULT:      -7.4      7.132     10.051
REMARK  5 active torsions:
REMARK  status: ('A' for Active; 'I' for Inactive)
REMARK    1  A    between atoms: N_4  and  C_14 
REMARK    2  A    between atoms: N_5  and  C_23 
REMARK    3  A    between atoms: N_6  and  C_16 
REMARK    4  A    between atoms: C_8  and  C_13 
REMARK    5  A    between atoms: C_14  and  C_16 
ROOT
HETATM    1 Cl   UNK N   1      39.440  13.343   7.497  0.00  0.00    -0.084 Cl
HETATM    2  N   UNK N   1      35.662  13.617  11.980  0.00  0.00    -0.321 N 
HETATM    3  C   UNK N   1      34.953  14.403  10.007  0.00  0.00    -0.025 A 
HETATM    4  C   UNK N   1      36.235  13.931   9.843  0.00  0.00     0.001 A 
HETATM    5  C   UNK N   1      34.622  14.195  11.338  0.00  0.00     0.106 A 
HETATM    6  C   UNK N   1      36.649  13.459  11.065  0.00  0.00     0.050 A 
HETATM    7  C   UNK N   1      37.063  13.915   8.723  0.00  0.00     0.038 A 
HETATM    8  C   UNK N   1      37.929  12.930  11.244  0.00  0.00     0.032 A 
HETATM    9  C   UNK N   1      38.357  13.386   8.873  0.00  0.00     0.035 A 
HETATM   10  C   UNK N   1      38.788  12.896  10.127  0.00  0.00     0.026 A 
ENDROOT
BRANCH   3  11
HETATM   11  C   UNK N   1      34.084  15.090   8.998  0.00  0.00     0.024 C 
HETATM   12  C   UNK N   1      32.734  14.406   8.800  0.00  0.00     0.039 C 
HETATM   13  C   UNK N   1      31.929  15.183   7.750  0.00  0.00     0.273 C 
HETATM   14  N   UNK N   1      31.765  16.591   8.137  0.00  0.00     0.090 N 
HETATM   15  C   UNK N   1      33.086  17.210   8.265  0.00  0.00     0.273 C 
HETATM   16  C   UNK N   1      33.856  16.547   9.383  0.00  0.00     0.039 C 
BRANCH  14  17
HETATM   17  C   UNK N   1      31.029  17.238   7.052  0.00  0.00     0.292 C 
BRANCH  17  18
HETATM   18  C   UNK N   1      29.760  17.949   7.530  0.00  0.00     0.158 C 
BRANCH  18  19
HETATM   19  N   UNK N   1      28.586  17.161   7.257  0.00  0.00    -0.331 N 
HETATM   20  C   UNK N   1      28.257  16.596   5.972  0.00  0.00     0.147 A 
HETATM   21  C   UNK N   1      26.905  15.879   6.252  0.00  0.00     0.144 A 
HETATM   22  N   UNK N   1      26.642  16.161   7.646  0.00  0.00    -0.341 N 
HETATM   23  C   UNK N   1      27.635  16.888   8.145  0.00  0.00     0.318 A 
HETATM   24  H   UNK N   1      25.850  15.861   8.148  0.00  0.00     0.164 HD
HETATM   25  O   UNK N   1      27.657  17.280   9.303  0.00  0.00    -0.247 OA
ENDBRANCH  18  19
ENDBRANCH  17  18
ENDBRANCH  14  17
ENDBRANCH   3  11
BRANCH   2  26
HETATM   26  C   UNK N   1      35.628  13.308  13.388  0.00  0.00     0.039 A 
HETATM   27  C   UNK N   1      36.423  14.058  14.274  0.00  0.00     0.033 A 
HETATM   28  C   UNK N   1      36.436  13.774  15.638  0.00  0.00     0.044 A 
HETATM   29  C   UNK N   1      35.655  12.733  16.137  0.00  0.00     0.116 A 
HETATM   30  F   UNK N   1      35.673  12.457  17.462  0.00  0.00    -0.206 F 
HETATM   31  C   UNK N   1      34.858  11.977  15.269  0.00  0.00     0.044 A 
HETATM   32  C   UNK N   1      34.842  12.262  13.897  0.00  0.00     0.033 A 
ENDBRANCH   2  26
TORSDOF 5
ENDMDL
MODEL 8
REMARK VINA RESULT:      -7.3      4.647      9.546
REMARK  5 active torsions:
REMARK  status: ('A' for Active; 'I' for Inactive)
REMARK    1  A    between atoms: N_4  and  C_14 
REMARK    2  A    between atoms: N_5  and  C_23 
REMARK    3  A    between atoms: N_6  and  C_16 
REMARK    4  A    between atoms: C_8  and  C_13 
REMARK    5  A    between atoms: C_14  and  C_16 
ROOT
HETATM    1 Cl   UNK N   1      27.474  21.073   5.660  0.00  0.00    -0.084 Cl
HETATM    2  N   UNK N   1      25.947  15.946   3.245  0.00  0.00    -0.321 N 
HETATM    3  C   UNK N   1      28.013  16.090   4.096  0.00  0.00    -0.025 A 
HETATM    4  C   UNK N   1      27.379  17.295   4.305  0.00  0.00     0.001 A 
HETATM    5  C   UNK N   1      27.103  15.273   3.441  0.00  0.00     0.106 A 
HETATM    6  C   UNK N   1      26.118  17.182   3.772  0.00  0.00     0.050 A 
HETATM    7  C   UNK N   1      27.834  18.473   4.892  0.00  0.00     0.038 A 
HETATM    8  C   UNK N   1      25.222  18.253   3.797  0.00  0.00     0.032 A 
HETATM    9  C   UNK N   1      26.952  19.566   4.934  0.00  0.00     0.035 A 
HETATM   10  C   UNK N   1      25.652  19.457   4.389  0.00  0.00     0.026 A 
ENDROOT
BRANCH   3  11
HETATM   11  C   UNK N   1      29.428  15.721   4.420  0.00  0.00     0.024 C 
HETATM   12  C   UNK N   1      30.456  16.630   3.749  0.00  0.00     0.039 C 
HETATM   13  C   UNK N   1      31.865  16.165   4.141  0.00  0.00     0.273 C 
HETATM   14  N   UNK N   1      32.035  16.149   5.600  0.00  0.00     0.090 N 
HETATM   15  C   UNK N   1      31.060  15.226   6.187  0.00  0.00     0.273 C 
HETATM   16  C   UNK N   1      29.659  15.730   5.926  0.00  0.00     0.039 C 
BRANCH  14  17
HETATM   17  C   UNK N   1      33.387  15.652   5.856  0.00  0.00     0.292 C 
BRANCH  17  18
HETATM   18  C   UNK N   1      34.321  16.724   6.424  0.00  0.00     0.158 C 
BRANCH  18  19
HETATM   19  N   UNK N   1      34.444  16.603   7.854  0.00  0.00    -0.331 N 
HETATM   20  C   UNK N   1      34.317  15.369   8.587  0.00  0.00     0.147 A 
HETATM   21  C   UNK N   1      34.519  15.827  10.061  0.00  0.00     0.144 A 
HETATM   22  N   UNK N   1      34.705  17.259   9.959  0.00  0.00    -0.341 N 
HETATM   23  C   UNK N   1      34.650  17.622   8.683  0.00  0.00     0.318 A 
HETATM   24  H   UNK N   1      34.849  17.869  10.718  0.00  0.00     0.164 HD
HETATM   25  O   UNK N   1      34.762  18.783   8.316  0.00  0.00    -0.247 OA
ENDBRANCH  18  19
ENDBRANCH  17  18
ENDBRANCH  14  17
ENDBRANCH   3  11
BRANCH   2  26
HETATM   26  C   UNK N   1      24.820  15.366   2.557  0.00  0.00     0.039 A 
HETATM   27  C   UNK N   1      25.026  14.737   1.315  0.00  0.00     0.033 A 
HETATM   28  C   UNK N   1      23.960  14.185   0.608  0.00  0.00     0.044 A 
HETATM   29  C   UNK N   1      22.670  14.258   1.131  0.00  0.00     0.116 A 
HETATM   30  F   UNK N   1      21.635  13.725   0.439  0.00  0.00    -0.206 F 
HETATM   31  C   UNK N   1      22.448  14.880   2.365  0.00  0.00     0.044 A 
HETATM   32  C   UNK N   1      23.520  15.434   3.078  0.00  0.00     0.033 A 
ENDBRANCH   2  26
TORSDOF 5
ENDMDL
MODEL 9
REMARK VINA RESULT:      -7.2      2.792      3.821
REMARK  5 active torsions:
REMARK  status: ('A' for Active; 'I' for Inactive)
REMARK    1  A    between atoms: N_4  and  C_14 
REMARK    2  A    between atoms: N_5  and  C_23 
REMARK    3  A    between atoms: N_6  and  C_16 
REMARK    4  A    between atoms: C_8  and  C_13 
REMARK    5  A    between atoms: C_14  and  C_16 
ROOT
HETATM    1 Cl   UNK N   1      27.247  12.744   2.721  0.00  0.00    -0.084 Cl
HETATM    2  N   UNK N   1      29.873  16.945   5.870  0.00  0.00    -0.321 N 
HETATM    3  C   UNK N   1      27.749  17.311   5.261  0.00  0.00    -0.025 A 
HETATM    4  C   UNK N   1      28.121  16.072   4.790  0.00  0.00     0.001 A 
HETATM    5  C   UNK N   1      28.850  17.828   5.928  0.00  0.00     0.106 A 
HETATM    6  C   UNK N   1      29.426  15.873   5.171  0.00  0.00     0.050 A 
HETATM    7  C   UNK N   1      27.418  15.137   4.035  0.00  0.00     0.038 A 
HETATM    8  C   UNK N   1      30.114  14.709   4.822  0.00  0.00     0.032 A 
HETATM    9  C   UNK N   1      28.085  13.954   3.671  0.00  0.00     0.035 A 
HETATM   10  C   UNK N   1      29.426  13.741   4.062  0.00  0.00     0.026 A 
ENDROOT
BRANCH   3  11
HETATM   11  C   UNK N   1      26.453  18.032   5.047  0.00  0.00     0.024 C 
HETATM   12  C   UNK N   1      26.391  18.777   3.716  0.00  0.00     0.039 C 
HETATM   13  C   UNK N   1      25.031  19.479   3.600  0.00  0.00     0.273 C 
HETATM   14  N   UNK N   1      23.923  18.523   3.732  0.00  0.00     0.090 N 
HETATM   15  C   UNK N   1      24.003  17.874   5.043  0.00  0.00     0.273 C 
HETATM   16  C   UNK N   1      25.277  17.067   5.138  0.00  0.00     0.039 C 
BRANCH  14  17
HETATM   17  C   UNK N   1      22.689  19.302   3.651  0.00  0.00     0.292 C 
BRANCH  17  18
HETATM   18  C   UNK N   1      21.471  18.554   4.201  0.00  0.00     0.158 C 
BRANCH  18  19
HETATM   19  N   UNK N   1      20.766  17.864   3.151  0.00  0.00    -0.331 N 
HETATM   20  C   UNK N   1      21.126  16.568   2.635  0.00  0.00     0.147 A 
HETATM   21  C   UNK N   1      20.054  16.332   1.531  0.00  0.00     0.144 A 
HETATM   22  N   UNK N   1      19.255  17.538   1.557  0.00  0.00    -0.341 N 
HETATM   23  C   UNK N   1      19.717  18.354   2.497  0.00  0.00     0.318 A 
HETATM   24  H   UNK N   1      18.488  17.725   0.969  0.00  0.00     0.164 HD
HETATM   25  O   UNK N   1      19.231  19.454   2.722  0.00  0.00    -0.247 OA
ENDBRANCH  18  19
ENDBRANCH  17  18
ENDBRANCH  14  17
ENDBRANCH   3  11
BRANCH   2  26
HETATM   26  C   UNK N   1      31.166  17.217   6.447  0.00  0.00     0.039 A 
HETATM   27  C   UNK N   1      31.261  17.462   7.829  0.00  0.00     0.033 A 
HETATM   28  C   UNK N   1      32.489  17.753   8.420  0.00  0.00     0.044 A 
HETATM   29  C   UNK N   1      33.641  17.805   7.636  0.00  0.00     0.116 A 
HETATM   30  F   UNK N   1      34.831  18.091   8.213  0.00  0.00    -0.206 F 
HETATM   31  C   UNK N   1      33.563  17.562   6.260  0.00  0.00     0.044 A 
HETATM   32  C   UNK N   1      32.329  17.268   5.664  0.00  0.00     0.033 A 
ENDBRANCH   2  26
TORSDOF 5
ENDMDL
