MODEL 1
REMARK VINA RESULT:      -5.9      0.000      0.000
REMARK  5 active torsions:
REMARK  status: ('A' for Active; 'I' for Inactive)
REMARK    1  A    between atoms: C_2  and  C_1 
REMARK    2  A    between atoms: C_3  and  C_1 
REMARK    3  A    between atoms: S_4  and  C_1 
REMARK    4  A    between atoms: S_4  and  C_9 
REMARK    5  A    between atoms: C_15  and  C_9 
REMARK       I    between atoms: N_18  and  C_15 
ROOT
HETATM    1  C   UNK N   1      27.358  25.276  -4.963  0.00  0.00     0.145 C 
ENDROOT
BRANCH   1   2
HETATM    2  C   UNK N   1      27.173  26.766  -4.703  0.00  0.00    -0.038 A 
HETATM    3  C   UNK N   1      27.624  27.690  -5.658  0.00  0.00     0.009 A 
HETATM    4  C   UNK N   1      27.443  29.063  -5.461  0.00  0.00     0.001 A 
HETATM    5  C   UNK N   1      26.793  29.524  -4.314  0.00  0.00     0.000 A 
HETATM    6  C   UNK N   1      26.331  28.615  -3.360  0.00  0.00     0.001 A 
HETATM    7  C   UNK N   1      26.523  27.243  -3.552  0.00  0.00     0.009 A 
ENDBRANCH   1   2
BRANCH   1   8
HETATM    8  C   UNK N   1      28.324  24.589  -4.009  0.00  0.00    -0.038 A 
HETATM    9  C   UNK N   1      27.814  23.849  -2.931  0.00  0.00     0.009 A 
HETATM   10  C   UNK N   1      28.673  23.182  -2.054  0.00  0.00     0.001 A 
HETATM   11  C   UNK N   1      30.054  23.243  -2.248  0.00  0.00     0.000 A 
HETATM   12  C   UNK N   1      30.576  23.975  -3.316  0.00  0.00     0.001 A 
HETATM   13  C   UNK N   1      29.718  24.645  -4.193  0.00  0.00     0.009 A 
ENDBRANCH   1   8
BRANCH   1  14
HETATM   14  S   UNK N   1      25.772  24.336  -5.061  0.00  0.00     0.037 S 
HETATM   15  O   UNK N   1      25.180  25.232  -6.161  0.00  0.00    -0.257 OA
BRANCH  14  16
HETATM   16  C   UNK N   1      26.386  23.188  -6.333  0.00  0.00     0.212 C 
BRANCH  16  17
HETATM   17  C   UNK N   1      25.249  22.629  -7.121  0.00  0.00     0.227 C 
HETATM   18  N   UNK N   1      24.920  23.180  -8.304  0.00  0.00    -0.369 N 
HETATM   19  H   UNK N   1      25.616  23.564  -8.884  0.00  0.00     0.159 HD
HETATM   20  H   UNK N   1      23.977  23.198  -8.591  0.00  0.00     0.159 HD
HETATM   21  O   UNK N   1      24.607  21.686  -6.688  0.00  0.00    -0.273 OA
ENDBRANCH  16  17
ENDBRANCH  14  16
ENDBRANCH   1  14
TORSDOF 5
ENDMDL
MODEL 2
REMARK VINA RESULT:      -5.8     21.963     25.022
REMARK  5 active torsions:
REMARK  status: ('A' for Active; 'I' for Inactive)
REMARK    1  A    between atoms: C_2  and  C_1 
REMARK    2  A    between atoms: C_3  and  C_1 
REMARK    3  A    between atoms: S_4  and  C_1 
REMARK    4  A    between atoms: S_4  and  C_9 
REMARK    5  A    between atoms: C_15  and  C_9 
REMARK       I    between atoms: N_18  and  C_15 
ROOT
HETATM    1  C   UNK N   1      35.873  12.667  14.375  0.00  0.00     0.145 C 
ENDROOT
BRANCH   1   2
HETATM    2  C   UNK N   1      36.172  11.207  14.693  0.00  0.00    -0.038 A 
HETATM    3  C   UNK N   1      37.493  10.820  14.964  0.00  0.00     0.009 A 
HETATM    4  C   UNK N   1      37.793   9.492  15.286  0.00  0.00     0.001 A 
HETATM    5  C   UNK N   1      36.772   8.542  15.356  0.00  0.00     0.000 A 
HETATM    6  C   UNK N   1      35.452   8.916  15.098  0.00  0.00     0.001 A 
HETATM    7  C   UNK N   1      35.154  10.240  14.764  0.00  0.00     0.009 A 
ENDBRANCH   1   2
BRANCH   1   8
HETATM    8  C   UNK N   1      36.091  13.619  15.542  0.00  0.00    -0.038 A 
HETATM    9  C   UNK N   1      35.342  13.448  16.717  0.00  0.00     0.009 A 
HETATM   10  C   UNK N   1      35.537  14.285  17.817  0.00  0.00     0.001 A 
HETATM   11  C   UNK N   1      36.491  15.303  17.759  0.00  0.00     0.000 A 
HETATM   12  C   UNK N   1      37.246  15.485  16.598  0.00  0.00     0.001 A 
HETATM   13  C   UNK N   1      37.048  14.649  15.495  0.00  0.00     0.009 A 
ENDBRANCH   1   8
BRANCH   1  14
HETATM   14  S   UNK N   1      36.736  13.291  12.867  0.00  0.00     0.037 S 
HETATM   15  O   UNK N   1      36.143  12.212  11.946  0.00  0.00    -0.257 OA
BRANCH  14  16
HETATM   16  C   UNK N   1      35.385  14.419  12.407  0.00  0.00     0.212 C 
BRANCH  16  17
HETATM   17  C   UNK N   1      35.861  15.422  11.410  0.00  0.00     0.227 C 
HETATM   18  N   UNK N   1      36.983  15.186  10.706  0.00  0.00    -0.369 N 
HETATM   19  H   UNK N   1      37.222  14.267  10.447  0.00  0.00     0.159 HD
HETATM   20  H   UNK N   1      37.568  15.936  10.448  0.00  0.00     0.159 HD
HETATM   21  O   UNK N   1      35.245  16.463  11.244  0.00  0.00    -0.273 OA
ENDBRANCH  16  17
ENDBRANCH  14  16
ENDBRANCH   1  14
TORSDOF 5
ENDMDL
MODEL 3
REMARK VINA RESULT:      -5.6      1.301      4.627
REMARK  5 active torsions:
REMARK  status: ('A' for Active; 'I' for Inactive)
REMARK    1  A    between atoms: C_2  and  C_1 
REMARK    2  A    between atoms: C_3  and  C_1 
REMARK    3  A    between atoms: S_4  and  C_1 
REMARK    4  A    between atoms: S_4  and  C_9 
REMARK    5  A    between atoms: C_15  and  C_9 
REMARK       I    between atoms: N_18  and  C_15 
ROOT
HETATM    1  C   UNK N   1      27.273  24.813  -4.904  0.00  0.00     0.145 C 
ENDROOT
BRANCH   1   2
HETATM    2  C   UNK N   1      28.359  24.279  -3.977  0.00  0.00    -0.038 A 
HETATM    3  C   UNK N   1      27.989  23.542  -2.841  0.00  0.00     0.009 A 
HETATM    4  C   UNK N   1      28.963  23.015  -1.987  0.00  0.00     0.001 A 
HETATM    5  C   UNK N   1      30.317  23.205  -2.270  0.00  0.00     0.000 A 
HETATM    6  C   UNK N   1      30.699  23.928  -3.402  0.00  0.00     0.001 A 
HETATM    7  C   UNK N   1      29.725  24.465  -4.249  0.00  0.00     0.009 A 
ENDBRANCH   1   2
BRANCH   1   8
HETATM    8  C   UNK N   1      26.996  26.301  -4.751  0.00  0.00    -0.038 A 
HETATM    9  C   UNK N   1      27.503  27.196  -5.707  0.00  0.00     0.009 A 
HETATM   10  C   UNK N   1      27.242  28.565  -5.613  0.00  0.00     0.001 A 
HETATM   11  C   UNK N   1      26.465  29.056  -4.562  0.00  0.00     0.000 A 
HETATM   12  C   UNK N   1      25.953  28.179  -3.604  0.00  0.00     0.001 A 
HETATM   13  C   UNK N   1      26.216  26.809  -3.696  0.00  0.00     0.009 A 
ENDBRANCH   1   8
BRANCH   1  14
HETATM   14  S   UNK N   1      27.537  24.386  -6.681  0.00  0.00     0.037 S 
HETATM   15  O   UNK N   1      27.540  22.869  -6.431  0.00  0.00    -0.257 OA
BRANCH  14  16
HETATM   16  C   UNK N   1      25.758  24.316  -7.057  0.00  0.00     0.212 C 
BRANCH  16  17
HETATM   17  C   UNK N   1      25.520  23.521  -8.298  0.00  0.00     0.227 C 
HETATM   18  N   UNK N   1      26.503  23.392  -9.209  0.00  0.00    -0.369 N 
HETATM   19  H   UNK N   1      27.443  23.354  -8.923  0.00  0.00     0.159 HD
HETATM   20  H   UNK N   1      26.279  23.334 -10.167  0.00  0.00     0.159 HD
HETATM   21  O   UNK N   1      24.433  23.004  -8.497  0.00  0.00    -0.273 OA
ENDBRANCH  16  17
ENDBRANCH  14  16
ENDBRANCH   1  14
TORSDOF 5
ENDMDL
MODEL 4
REMARK VINA RESULT:      -5.6     11.434     13.642
REMARK  5 active torsions:
REMARK  status: ('A' for Active; 'I' for Inactive)
REMARK    1  A    between atoms: C_2  and  C_1 
REMARK    2  A    between atoms: C_3  and  C_1 
REMARK    3  A    between atoms: S_4  and  C_1 
REMARK    4  A    between atoms: S_4  and  C_9 
REMARK    5  A    between atoms: C_15  and  C_9 
REMARK       I    between atoms: N_18  and  C_15 
ROOT
HETATM    1  C   UNK N   1      29.133  17.110   5.909  0.00  0.00     0.145 C 
ENDROOT
BRANCH   1   2
HETATM    2  C   UNK N   1      30.650  17.211   5.804  0.00  0.00    -0.038 A 
HETATM    3  C   UNK N   1      31.240  17.378   4.542  0.00  0.00     0.009 A 
HETATM    4  C   UNK N   1      32.628  17.502   4.416  0.00  0.00     0.001 A 
HETATM    5  C   UNK N   1      33.437  17.477   5.554  0.00  0.00     0.000 A 
HETATM    6  C   UNK N   1      32.862  17.321   6.816  0.00  0.00     0.001 A 
HETATM    7  C   UNK N   1      31.476  17.184   6.941  0.00  0.00     0.009 A 
ENDBRANCH   1   2
BRANCH   1   8
HETATM    8  C   UNK N   1      28.405  18.438   5.765  0.00  0.00    -0.038 A 
HETATM    9  C   UNK N   1      28.033  18.882   4.486  0.00  0.00     0.009 A 
HETATM   10  C   UNK N   1      27.338  20.082   4.321  0.00  0.00     0.001 A 
HETATM   11  C   UNK N   1      27.001  20.852   5.435  0.00  0.00     0.000 A 
HETATM   12  C   UNK N   1      27.363  20.424   6.714  0.00  0.00     0.001 A 
HETATM   13  C   UNK N   1      28.061  19.224   6.880  0.00  0.00     0.009 A 
ENDBRANCH   1   8
BRANCH   1  14
HETATM   14  S   UNK N   1      28.393  15.844   4.787  0.00  0.00     0.037 S 
HETATM   15  O   UNK N   1      29.156  14.672   5.423  0.00  0.00    -0.257 OA
BRANCH  14  16
HETATM   16  C   UNK N   1      26.980  15.515   5.884  0.00  0.00     0.212 C 
BRANCH  16  17
HETATM   17  C   UNK N   1      25.705  15.935   5.232  0.00  0.00     0.227 C 
HETATM   18  N   UNK N   1      25.080  17.055   5.641  0.00  0.00    -0.369 N 
HETATM   19  H   UNK N   1      25.602  17.826   5.959  0.00  0.00     0.159 HD
HETATM   20  H   UNK N   1      24.097  17.103   5.621  0.00  0.00     0.159 HD
HETATM   21  O   UNK N   1      25.219  15.257   4.341  0.00  0.00    -0.273 OA
ENDBRANCH  16  17
ENDBRANCH  14  16
ENDBRANCH   1  14
TORSDOF 5
ENDMDL
MODEL 5
REMARK VINA RESULT:      -5.6      3.089      4.565
REMARK  5 active torsions:
REMARK  status: ('A' for Active; 'I' for Inactive)
REMARK    1  A    between atoms: C_2  and  C_1 
REMARK    2  A    between atoms: C_3  and  C_1 
REMARK    3  A    between atoms: S_4  and  C_1 
REMARK    4  A    between atoms: S_4  and  C_9 
REMARK    5  A    between atoms: C_15  and  C_9 
REMARK       I    between atoms: N_18  and  C_15 
ROOT
HETATM    1  C   UNK N   1      27.750  24.453  -4.540  0.00  0.00     0.145 C 
ENDROOT
BRANCH   1   2
HETATM    2  C   UNK N   1      27.176  25.865  -4.578  0.00  0.00    -0.038 A 
HETATM    3  C   UNK N   1      27.401  26.667  -5.708  0.00  0.00     0.009 A 
HETATM    4  C   UNK N   1      26.863  27.956  -5.783  0.00  0.00     0.001 A 
HETATM    5  C   UNK N   1      26.081  28.449  -4.737  0.00  0.00     0.000 A 
HETATM    6  C   UNK N   1      25.842  27.658  -3.611  0.00  0.00     0.001 A 
HETATM    7  C   UNK N   1      26.390  26.374  -3.530  0.00  0.00     0.009 A 
ENDBRANCH   1   2
BRANCH   1   8
HETATM    8  C   UNK N   1      27.292  23.561  -5.684  0.00  0.00    -0.038 A 
HETATM    9  C   UNK N   1      28.250  22.864  -6.438  0.00  0.00     0.009 A 
HETATM   10  C   UNK N   1      27.862  22.014  -7.475  0.00  0.00     0.001 A 
HETATM   11  C   UNK N   1      26.508  21.844  -7.769  0.00  0.00     0.000 A 
HETATM   12  C   UNK N   1      25.543  22.529  -7.028  0.00  0.00     0.001 A 
HETATM   13  C   UNK N   1      25.931  23.383  -5.991  0.00  0.00     0.009 A 
ENDBRANCH   1   8
BRANCH   1  14
HETATM   14  S   UNK N   1      29.589  24.403  -4.380  0.00  0.00     0.037 S 
HETATM   15  O   UNK N   1      29.666  25.711  -3.576  0.00  0.00    -0.257 OA
BRANCH  14  16
HETATM   16  C   UNK N   1      29.553  23.456  -2.827  0.00  0.00     0.212 C 
BRANCH  16  17
HETATM   17  C   UNK N   1      30.527  22.326  -2.884  0.00  0.00     0.227 C 
HETATM   18  N   UNK N   1      30.327  21.312  -3.746  0.00  0.00    -0.369 N 
HETATM   19  H   UNK N   1      29.905  21.479  -4.619  0.00  0.00     0.159 HD
HETATM   20  H   UNK N   1      30.604  20.399  -3.502  0.00  0.00     0.159 HD
HETATM   21  O   UNK N   1      31.494  22.312  -2.141  0.00  0.00    -0.273 OA
ENDBRANCH  16  17
ENDBRANCH  14  16
ENDBRANCH   1  14
TORSDOF 5
ENDMDL
MODEL 6
REMARK VINA RESULT:      -5.5     21.855     24.674
REMARK  5 active torsions:
REMARK  status: ('A' for Active; 'I' for Inactive)
REMARK    1  A    between atoms: C_2  and  C_1 
REMARK    2  A    between atoms: C_3  and  C_1 
REMARK    3  A    between atoms: S_4  and  C_1 
REMARK    4  A    between atoms: S_4  and  C_9 
REMARK    5  A    between atoms: C_15  and  C_9 
REMARK       I    between atoms: N_18  and  C_15 
ROOT
HETATM    1  C   UNK N   1      36.636  12.970  14.303  0.00  0.00     0.145 C 
ENDROOT
BRANCH   1   2
HETATM    2  C   UNK N   1      36.477  13.811  15.564  0.00  0.00    -0.038 A 
HETATM    3  C   UNK N   1      35.569  13.400  16.553  0.00  0.00     0.009 A 
HETATM    4  C   UNK N   1      35.422  14.136  17.733  0.00  0.00     0.001 A 
HETATM    5  C   UNK N   1      36.193  15.281  17.943  0.00  0.00     0.000 A 
HETATM    6  C   UNK N   1      37.106  15.695  16.972  0.00  0.00     0.001 A 
HETATM    7  C   UNK N   1      37.245  14.967  15.787  0.00  0.00     0.009 A 
ENDBRANCH   1   2
BRANCH   1   8
HETATM    8  C   UNK N   1      36.522  11.470  14.533  0.00  0.00    -0.038 A 
HETATM    9  C   UNK N   1      35.303  10.825  14.271  0.00  0.00     0.009 A 
HETATM   10  C   UNK N   1      35.174   9.445  14.444  0.00  0.00     0.001 A 
HETATM   11  C   UNK N   1      36.267   8.690  14.875  0.00  0.00     0.000 A 
HETATM   12  C   UNK N   1      37.487   9.317  15.138  0.00  0.00     0.001 A 
HETATM   13  C   UNK N   1      37.616  10.699  14.969  0.00  0.00     0.009 A 
ENDBRANCH   1   8
BRANCH   1  14
HETATM   14  S   UNK N   1      35.535  13.494  12.917  0.00  0.00     0.037 S 
HETATM   15  O   UNK N   1      36.113  14.917  12.848  0.00  0.00    -0.257 OA
BRANCH  14  16
HETATM   16  C   UNK N   1      36.701  12.963  11.625  0.00  0.00     0.212 C 
BRANCH  16  17
HETATM   17  C   UNK N   1      36.685  13.924  10.483  0.00  0.00     0.227 C 
HETATM   18  N   UNK N   1      37.700  14.794  10.326  0.00  0.00    -0.369 N 
HETATM   19  H   UNK N   1      38.615  14.540  10.580  0.00  0.00     0.159 HD
HETATM   20  H   UNK N   1      37.524  15.690   9.955  0.00  0.00     0.159 HD
HETATM   21  O   UNK N   1      35.747  13.934   9.702  0.00  0.00    -0.273 OA
ENDBRANCH  16  17
ENDBRANCH  14  16
ENDBRANCH   1  14
TORSDOF 5
ENDMDL
MODEL 7
REMARK VINA RESULT:      -5.5      2.631      4.846
REMARK  5 active torsions:
REMARK  status: ('A' for Active; 'I' for Inactive)
REMARK    1  A    between atoms: C_2  and  C_1 
REMARK    2  A    between atoms: C_3  and  C_1 
REMARK    3  A    between atoms: S_4  and  C_1 
REMARK    4  A    between atoms: S_4  and  C_9 
REMARK    5  A    between atoms: C_15  and  C_9 
REMARK       I    between atoms: N_18  and  C_15 
ROOT
HETATM    1  C   UNK N   1      26.276  25.127  -4.893  0.00  0.00     0.145 C 
ENDROOT
BRANCH   1   2
HETATM    2  C   UNK N   1      25.935  24.375  -6.174  0.00  0.00    -0.038 A 
HETATM    3  C   UNK N   1      25.879  25.078  -7.388  0.00  0.00     0.009 A 
HETATM    4  C   UNK N   1      25.596  24.411  -8.584  0.00  0.00     0.001 A 
HETATM    5  C   UNK N   1      25.382  23.031  -8.580  0.00  0.00     0.000 A 
HETATM    6  C   UNK N   1      25.444  22.318  -7.382  0.00  0.00     0.001 A 
HETATM    7  C   UNK N   1      25.715  22.987  -6.184  0.00  0.00     0.009 A 
ENDBRANCH   1   2
BRANCH   1   8
HETATM    8  C   UNK N   1      27.508  24.603  -4.170  0.00  0.00    -0.038 A 
HETATM    9  C   UNK N   1      27.349  23.876  -2.980  0.00  0.00     0.009 A 
HETATM   10  C   UNK N   1      28.457  23.357  -2.307  0.00  0.00     0.001 A 
HETATM   11  C   UNK N   1      29.741  23.554  -2.820  0.00  0.00     0.000 A 
HETATM   12  C   UNK N   1      29.916  24.274  -4.003  0.00  0.00     0.001 A 
HETATM   13  C   UNK N   1      28.807  24.797  -4.676  0.00  0.00     0.009 A 
ENDBRANCH   1   8
BRANCH   1  14
HETATM   14  S   UNK N   1      26.387  26.957  -5.112  0.00  0.00     0.037 S 
HETATM   15  O   UNK N   1      24.865  27.148  -5.210  0.00  0.00    -0.257 OA
BRANCH  14  16
HETATM   16  C   UNK N   1      26.310  27.301  -3.327  0.00  0.00     0.212 C 
BRANCH  16  17
HETATM   17  C   UNK N   1      26.599  28.741  -3.062  0.00  0.00     0.227 C 
HETATM   18  N   UNK N   1      26.039  29.689  -3.836  0.00  0.00    -0.369 N 
HETATM   19  H   UNK N   1      25.138  29.557  -4.209  0.00  0.00     0.159 HD
HETATM   20  H   UNK N   1      26.532  30.520  -4.028  0.00  0.00     0.159 HD
HETATM   21  O   UNK N   1      27.354  29.059  -2.158  0.00  0.00    -0.273 OA
ENDBRANCH  16  17
ENDBRANCH  14  16
ENDBRANCH   1  14
TORSDOF 5
ENDMDL
MODEL 8
REMARK VINA RESULT:      -5.5     22.687     25.616
REMARK  5 active torsions:
REMARK  status: ('A' for Active; 'I' for Inactive)
REMARK    1  A    between atoms: C_2  and  C_1 
REMARK    2  A    between atoms: C_3  and  C_1 
REMARK    3  A    between atoms: S_4  and  C_1 
REMARK    4  A    between atoms: S_4  and  C_9 
REMARK    5  A    between atoms: C_15  and  C_9 
REMARK       I    between atoms: N_18  and  C_15 
ROOT
HETATM    1  C   UNK N   1      36.228  12.193  15.474  0.00  0.00     0.145 C 
ENDROOT
BRANCH   1   2
HETATM    2  C   UNK N   1      35.881  11.912  16.932  0.00  0.00    -0.038 A 
HETATM    3  C   UNK N   1      36.127  10.636  17.461  0.00  0.00     0.009 A 
HETATM    4  C   UNK N   1      35.845  10.355  18.802  0.00  0.00     0.001 A 
HETATM    5  C   UNK N   1      35.329  11.354  19.631  0.00  0.00     0.000 A 
HETATM    6  C   UNK N   1      35.088  12.630  19.119  0.00  0.00     0.001 A 
HETATM    7  C   UNK N   1      35.359  12.907  17.775  0.00  0.00     0.009 A 
ENDBRANCH   1   2
BRANCH   1   8
HETATM    8  C   UNK N   1      35.656  11.186  14.488  0.00  0.00    -0.038 A 
HETATM    9  C   UNK N   1      34.287  11.224  14.184  0.00  0.00     0.009 A 
HETATM   10  C   UNK N   1      33.734  10.333  13.261  0.00  0.00     0.001 A 
HETATM   11  C   UNK N   1      34.549   9.394  12.625  0.00  0.00     0.000 A 
HETATM   12  C   UNK N   1      35.914   9.344  12.916  0.00  0.00     0.001 A 
HETATM   13  C   UNK N   1      36.466  10.234  13.842  0.00  0.00     0.009 A 
ENDBRANCH   1   8
BRANCH   1  14
HETATM   14  S   UNK N   1      35.836  13.915  14.936  0.00  0.00     0.037 S 
HETATM   15  O   UNK N   1      37.168  14.495  15.441  0.00  0.00    -0.257 OA
BRANCH  14  16
HETATM   16  C   UNK N   1      36.563  13.698  13.282  0.00  0.00     0.212 C 
BRANCH  16  17
HETATM   17  C   UNK N   1      35.814  14.506  12.275  0.00  0.00     0.227 C 
HETATM   18  N   UNK N   1      36.449  15.472  11.586  0.00  0.00    -0.369 N 
HETATM   19  H   UNK N   1      37.397  15.367  11.343  0.00  0.00     0.159 HD
HETATM   20  H   UNK N   1      35.963  16.287  11.324  0.00  0.00     0.159 HD
HETATM   21  O   UNK N   1      34.625  14.304  12.088  0.00  0.00    -0.273 OA
ENDBRANCH  16  17
ENDBRANCH  14  16
ENDBRANCH   1  14
TORSDOF 5
ENDMDL
MODEL 9
REMARK VINA RESULT:      -5.5     20.569     23.663
REMARK  5 active torsions:
REMARK  status: ('A' for Active; 'I' for Inactive)
REMARK    1  A    between atoms: C_2  and  C_1 
REMARK    2  A    between atoms: C_3  and  C_1 
REMARK    3  A    between atoms: S_4  and  C_1 
REMARK    4  A    between atoms: S_4  and  C_9 
REMARK    5  A    between atoms: C_15  and  C_9 
REMARK       I    between atoms: N_18  and  C_15 
ROOT
HETATM    1  C   UNK N   1      35.147  12.625  12.775  0.00  0.00     0.145 C 
ENDROOT
BRANCH   1   2
HETATM    2  C   UNK N   1      35.246  11.126  12.515  0.00  0.00    -0.038 A 
HETATM    3  C   UNK N   1      34.107  10.428  12.084  0.00  0.00     0.009 A 
HETATM    4  C   UNK N   1      34.174   9.059  11.810  0.00  0.00     0.001 A 
HETATM    5  C   UNK N   1      35.385   8.377  11.948  0.00  0.00     0.000 A 
HETATM    6  C   UNK N   1      36.527   9.061  12.367  0.00  0.00     0.001 A 
HETATM    7  C   UNK N   1      36.458  10.428  12.653  0.00  0.00     0.009 A 
ENDBRANCH   1   2
BRANCH   1   8
HETATM    8  C   UNK N   1      35.423  13.030  14.215  0.00  0.00    -0.038 A 
HETATM    9  C   UNK N   1      36.509  13.874  14.496  0.00  0.00     0.009 A 
HETATM   10  C   UNK N   1      36.772  14.288  15.803  0.00  0.00     0.001 A 
HETATM   11  C   UNK N   1      35.948  13.867  16.848  0.00  0.00     0.000 A 
HETATM   12  C   UNK N   1      34.862  13.028  16.585  0.00  0.00     0.001 A 
HETATM   13  C   UNK N   1      34.600  12.611  15.277  0.00  0.00     0.009 A 
ENDBRANCH   1   8
BRANCH   1  14
HETATM   14  S   UNK N   1      36.154  13.649  11.614  0.00  0.00     0.037 S 
HETATM   15  O   UNK N   1      35.653  12.917  10.358  0.00  0.00    -0.257 OA
BRANCH  14  16
HETATM   16  C   UNK N   1      34.854  14.903  11.395  0.00  0.00     0.212 C 
BRANCH  16  17
HETATM   17  C   UNK N   1      35.423  16.140  10.783  0.00  0.00     0.227 C 
HETATM   18  N   UNK N   1      34.601  17.055  10.236  0.00  0.00    -0.369 N 
HETATM   19  H   UNK N   1      33.707  17.210  10.618  0.00  0.00     0.159 HD
HETATM   20  H   UNK N   1      34.896  17.572   9.451  0.00  0.00     0.159 HD
HETATM   21  O   UNK N   1      36.630  16.315  10.762  0.00  0.00    -0.273 OA
ENDBRANCH  16  17
ENDBRANCH  14  16
ENDBRANCH   1  14
TORSDOF 5
ENDMDL
