REMARK  3 active torsions:
REMARK  status: ('A' for Active; 'I' for Inactive)
REMARK    1  A    between atoms: Zn_10  and  S_11 
REMARK    2  A    between atoms: S_11  and  C_12 
REMARK    3  A    between atoms: N_17  and  O_18 
ROOT
HETATM    1  O   UNK N   1       3.111  -2.161   0.009  0.00  0.00    -0.282 OA
ATOM      2  HO  UNK N   1       2.185  -1.967   0.091  1.00  0.00     0.245 HD
HETATM    3  N   UNK N   1       3.497  -3.432   0.017  0.00  0.00    -0.229 N 
HETATM    4  C   UNK N   1       4.825  -3.710  -0.101  0.00  0.00     0.124 A 
HETATM    5  C   UNK N   1       5.275  -5.031  -0.103  0.00  0.00     0.020 A 
HETATM    6  C   UNK N   1       4.351  -6.066   0.015  0.00  0.00     0.004 A 
HETATM    7  C   UNK N   1       2.997  -5.770   0.137  0.00  0.00     0.040 A 
HETATM    8  C   UNK N   1       2.576  -4.439   0.139  0.00  0.00     0.109 A 
HETATM    9  S   UNK N   1       0.815  -4.122   0.298  0.00  0.00    -0.030 SA
HETATM   10 Zn   UNK N   1       0.762  -1.930   0.713  0.00  0.00     0.000 Zn
ENDROOT
BRANCH  10  11
HETATM   11  S   UNK N   1      -0.693  -1.127  -0.777  0.00  0.00    -0.030 SA
BRANCH  11  12
HETATM   12  C   UNK N   1      -0.453   0.582  -0.316  0.00  0.00     0.109 A 
HETATM   13  C   UNK N   1      -1.576   1.378  -0.079  0.00  0.00     0.040 A 
HETATM   14  C   UNK N   1      -1.407   2.720   0.255  0.00  0.00     0.004 A 
HETATM   15  C   UNK N   1      -0.122   3.251   0.349  0.00  0.00     0.020 A 
HETATM   16  C   UNK N   1       0.979   2.427   0.109  0.00  0.00     0.124 A 
HETATM   17  N   UNK N   1       0.800   1.118  -0.218  0.00  0.00    -0.229 N 
BRANCH  17  18
HETATM   18  O   UNK N   1       1.871   0.362  -0.447  0.00  0.00    -0.282 OA
ATOM     19  HO  UNK N   1       1.746  -0.552  -0.675  1.00  0.00     0.245 HD
ENDBRANCH  17  18
ENDBRANCH  11  12
ENDBRANCH  10  11
TORSDOF 3
