MODEL 1
REMARK VINA RESULT:      -7.1      0.000      0.000
REMARK  6 active torsions:
REMARK  status: ('A' for Active; 'I' for Inactive)
REMARK    1  A    between atoms: O_20  and  C_1 
REMARK    2  A    between atoms: C_4  and  O_22 
REMARK    3  A    between atoms: C_7  and  N_8 
REMARK    4  A    between atoms: N_8  and  S_9 
REMARK    5  A    between atoms: S_9  and  C_12 
REMARK    6  A    between atoms: C_15  and  N_16 
ROOT
HETATM    1  N   UNK N   1      30.726  16.709   8.984  0.00  0.00    -0.266 N 
HETATM    2  H   UNK N   1      30.589  15.839   9.423  0.00  0.00     0.180 HD
ENDROOT
BRANCH   1   3
HETATM    3  C   UNK N   1      32.026  17.028   8.525  0.00  0.00     0.121 A 
HETATM    4  N   UNK N   1      33.074  17.112   9.385  0.00  0.00    -0.307 N 
HETATM    5  C   UNK N   1      34.328  17.413   8.933  0.00  0.00     0.226 A 
ATOM      6  HN  UNK N   1      32.922  16.951  10.381  1.00  0.00     0.171 HD
HETATM    7  N   UNK N   1      34.527  17.662   7.609  0.00  0.00    -0.302 N 
HETATM    8  C   UNK N   1      33.501  17.598   6.718  0.00  0.00     0.148 A 
ATOM      9  HN  UNK N   1      35.462  17.902   7.280  1.00  0.00     0.171 HD
HETATM   10  C   UNK N   1      32.225  17.259   7.164  0.00  0.00     0.105 A 
BRANCH   5  11
HETATM   11  O   UNK N   1      35.380  17.453   9.778  0.00  0.00    -0.327 OA
HETATM   12  C   UNK N   1      35.532  16.559  10.810  0.00  0.00     0.213 C 
ENDBRANCH   5  11
BRANCH   8  13
HETATM   13  O   UNK N   1      33.697  17.861   5.407  0.00  0.00    -0.341 OA
HETATM   14  C   UNK N   1      32.756  17.567   4.447  0.00  0.00     0.211 C 
ENDBRANCH   8  13
ENDBRANCH   1   3
BRANCH   1  15
HETATM   15  S   UNK N   1      29.340  17.779   8.815  0.00  0.00     0.264 S 
HETATM   16  O   UNK N   1      29.715  18.961   9.722  0.00  0.00    -0.200 OA
HETATM   17  O   UNK N   1      28.249  17.130   9.678  0.00  0.00    -0.200 OA
BRANCH  15  18
HETATM   18  C   UNK N   1      28.644  18.410   7.285  0.00  0.00     0.080 A 
HETATM   19  C   UNK N   1      27.934  19.614   7.255  0.00  0.00     0.027 A 
HETATM   20  C   UNK N   1      27.510  20.145   6.029  0.00  0.00     0.030 A 
HETATM   21  C   UNK N   1      27.810  19.480   4.834  0.00  0.00     0.025 A 
HETATM   22  C   UNK N   1      28.518  18.277   4.864  0.00  0.00     0.030 A 
HETATM   23  C   UNK N   1      28.938  17.748   6.087  0.00  0.00     0.027 A 
BRANCH  21  24
HETATM   24  N   UNK N   1      27.411  20.029   3.600  0.00  0.00    -0.399 N 
HETATM   25  H   UNK N   1      28.024  20.605   3.090  0.00  0.00     0.156 HD
HETATM   26  H   UNK N   1      26.513  19.835   3.245  0.00  0.00     0.156 HD
ENDBRANCH  21  24
ENDBRANCH  15  18
ENDBRANCH   1  15
TORSDOF 6
ENDMDL
MODEL 2
REMARK VINA RESULT:      -6.4      7.420     11.210
REMARK  6 active torsions:
REMARK  status: ('A' for Active; 'I' for Inactive)
REMARK    1  A    between atoms: O_20  and  C_1 
REMARK    2  A    between atoms: C_4  and  O_22 
REMARK    3  A    between atoms: C_7  and  N_8 
REMARK    4  A    between atoms: N_8  and  S_9 
REMARK    5  A    between atoms: S_9  and  C_12 
REMARK    6  A    between atoms: C_15  and  N_16 
ROOT
HETATM    1  N   UNK N   1      37.058  12.485  13.472  0.00  0.00    -0.266 N 
HETATM    2  H   UNK N   1      37.489  11.629  13.695  0.00  0.00     0.180 HD
ENDROOT
BRANCH   1   3
HETATM    3  C   UNK N   1      37.245  13.008  12.170  0.00  0.00     0.121 A 
HETATM    4  N   UNK N   1      36.702  14.198  11.806  0.00  0.00    -0.307 N 
HETATM    5  C   UNK N   1      36.894  14.700  10.549  0.00  0.00     0.226 A 
ATOM      6  HN  UNK N   1      36.142  14.723  12.478  1.00  0.00     0.171 HD
HETATM    7  N   UNK N   1      37.612  13.986   9.639  0.00  0.00    -0.302 N 
HETATM    8  C   UNK N   1      38.163  12.785   9.962  0.00  0.00     0.148 A 
ATOM      9  HN  UNK N   1      37.738  14.357   8.698  1.00  0.00     0.171 HD
HETATM   10  C   UNK N   1      38.001  12.280  11.252  0.00  0.00     0.105 A 
BRANCH   5  11
HETATM   11  O   UNK N   1      36.394  15.904  10.198  0.00  0.00    -0.327 OA
HETATM   12  C   UNK N   1      35.381  16.515  10.896  0.00  0.00     0.213 C 
ENDBRANCH   5  11
BRANCH   8  13
HETATM   13  O   UNK N   1      38.862  12.069   9.053  0.00  0.00    -0.341 OA
HETATM   14  C   UNK N   1      39.662  12.663   8.104  0.00  0.00     0.211 C 
ENDBRANCH   8  13
ENDBRANCH   1   3
BRANCH   1  15
HETATM   15  S   UNK N   1      36.098  13.279  14.714  0.00  0.00     0.264 S 
HETATM   16  O   UNK N   1      34.784  13.585  13.980  0.00  0.00    -0.200 OA
HETATM   17  O   UNK N   1      36.680  14.697  14.797  0.00  0.00    -0.200 OA
BRANCH  15  18
HETATM   18  C   UNK N   1      35.724  12.653  16.354  0.00  0.00     0.080 A 
HETATM   19  C   UNK N   1      35.953  11.315  16.688  0.00  0.00     0.027 A 
HETATM   20  C   UNK N   1      35.770  10.883  18.008  0.00  0.00     0.030 A 
HETATM   21  C   UNK N   1      35.374  11.792  18.997  0.00  0.00     0.025 A 
HETATM   22  C   UNK N   1      35.144  13.128  18.663  0.00  0.00     0.030 A 
HETATM   23  C   UNK N   1      35.325  13.557  17.346  0.00  0.00     0.027 A 
BRANCH  21  24
HETATM   24  N   UNK N   1      35.219  11.365  20.330  0.00  0.00    -0.399 N 
HETATM   25  H   UNK N   1      34.324  11.172  20.689  0.00  0.00     0.156 HD
HETATM   26  H   UNK N   1      36.011  11.260  20.906  0.00  0.00     0.156 HD
ENDBRANCH  21  24
ENDBRANCH  15  18
ENDBRANCH   1  15
TORSDOF 6
ENDMDL
MODEL 3
REMARK VINA RESULT:      -6.4      6.209     10.454
REMARK  6 active torsions:
REMARK  status: ('A' for Active; 'I' for Inactive)
REMARK    1  A    between atoms: O_20  and  C_1 
REMARK    2  A    between atoms: C_4  and  O_22 
REMARK    3  A    between atoms: C_7  and  N_8 
REMARK    4  A    between atoms: N_8  and  S_9 
REMARK    5  A    between atoms: S_9  and  C_12 
REMARK    6  A    between atoms: C_15  and  N_16 
ROOT
HETATM    1  N   UNK N   1      36.455  14.782  13.535  0.00  0.00    -0.266 N 
HETATM    2  H   UNK N   1      36.930  15.485  14.033  0.00  0.00     0.180 HD
ENDROOT
BRANCH   1   3
HETATM    3  C   UNK N   1      36.278  14.955  12.142  0.00  0.00     0.121 A 
HETATM    4  N   UNK N   1      36.844  14.100  11.250  0.00  0.00    -0.307 N 
HETATM    5  C   UNK N   1      36.661  14.269   9.906  0.00  0.00     0.226 A 
ATOM      6  HN  UNK N   1      37.413  13.324  11.587  1.00  0.00     0.171 HD
HETATM    7  N   UNK N   1      35.930  15.323   9.451  0.00  0.00    -0.302 N 
HETATM    8  C   UNK N   1      35.356  16.207  10.312  0.00  0.00     0.148 A 
ATOM      9  HN  UNK N   1      35.811  15.454   8.446  1.00  0.00     0.171 HD
HETATM   10  C   UNK N   1      35.509  16.024  11.685  0.00  0.00     0.105 A 
BRANCH   5  11
HETATM   11  O   UNK N   1      37.183  13.396   9.019  0.00  0.00    -0.327 OA
HETATM   12  C   UNK N   1      37.925  12.305   9.405  0.00  0.00     0.213 C 
ENDBRANCH   5  11
BRANCH   8  13
HETATM   13  O   UNK N   1      34.643  17.262   9.858  0.00  0.00    -0.341 OA
HETATM   14  C   UNK N   1      34.463  17.509   8.517  0.00  0.00     0.211 C 
ENDBRANCH   8  13
ENDBRANCH   1   3
BRANCH   1  15
HETATM   15  S   UNK N   1      35.875  13.381  14.426  0.00  0.00     0.264 S 
HETATM   16  O   UNK N   1      36.767  12.250  13.893  0.00  0.00    -0.200 OA
HETATM   17  O   UNK N   1      34.554  13.011  13.738  0.00  0.00    -0.200 OA
BRANCH  15  18
HETATM   18  C   UNK N   1      35.725  13.221  16.208  0.00  0.00     0.080 A 
HETATM   19  C   UNK N   1      35.639  14.348  17.031  0.00  0.00     0.027 A 
HETATM   20  C   UNK N   1      35.396  14.195  18.403  0.00  0.00     0.030 A 
HETATM   21  C   UNK N   1      35.225  12.916  18.948  0.00  0.00     0.025 A 
HETATM   22  C   UNK N   1      35.313  11.791  18.126  0.00  0.00     0.030 A 
HETATM   23  C   UNK N   1      35.556  11.945  16.759  0.00  0.00     0.027 A 
BRANCH  21  24
HETATM   24  N   UNK N   1      34.952  12.763  20.321  0.00  0.00    -0.399 N 
HETATM   25  H   UNK N   1      35.517  13.207  20.993  0.00  0.00     0.156 HD
HETATM   26  H   UNK N   1      34.192  12.208  20.610  0.00  0.00     0.156 HD
ENDBRANCH  21  24
ENDBRANCH  15  18
ENDBRANCH   1  15
TORSDOF 6
ENDMDL
MODEL 4
REMARK VINA RESULT:      -6.4      3.210      5.502
REMARK  6 active torsions:
REMARK  status: ('A' for Active; 'I' for Inactive)
REMARK    1  A    between atoms: O_20  and  C_1 
REMARK    2  A    between atoms: C_4  and  O_22 
REMARK    3  A    between atoms: C_7  and  N_8 
REMARK    4  A    between atoms: N_8  and  S_9 
REMARK    5  A    between atoms: S_9  and  C_12 
REMARK    6  A    between atoms: C_15  and  N_16 
ROOT
HETATM    1  N   UNK N   1      34.682  17.088   9.894  0.00  0.00    -0.266 N 
HETATM    2  H   UNK N   1      35.095  17.732  10.513  0.00  0.00     0.180 HD
ENDROOT
BRANCH   1   3
HETATM    3  C   UNK N   1      34.618  15.730  10.288  0.00  0.00     0.121 A 
HETATM    4  N   UNK N   1      34.226  14.764   9.418  0.00  0.00    -0.307 N 
HETATM    5  C   UNK N   1      34.174  13.453   9.804  0.00  0.00     0.226 A 
ATOM      6  HN  UNK N   1      33.965  15.019   8.466  1.00  0.00     0.171 HD
HETATM    7  N   UNK N   1      34.489  13.113  11.084  0.00  0.00    -0.302 N 
HETATM    8  C   UNK N   1      34.875  14.053  11.988  0.00  0.00     0.148 A 
ATOM      9  HN  UNK N   1      34.432  12.136  11.371  1.00  0.00     0.171 HD
HETATM   10  C   UNK N   1      34.963  15.388  11.595  0.00  0.00     0.105 A 
BRANCH   5  11
HETATM   11  O   UNK N   1      33.830  12.485   8.929  0.00  0.00    -0.327 OA
HETATM   12  C   UNK N   1      33.490  11.215   9.328  0.00  0.00     0.213 C 
ENDBRANCH   5  11
BRANCH   8  13
HETATM   13  O   UNK N   1      35.172  13.717  13.263  0.00  0.00    -0.341 OA
HETATM   14  C   UNK N   1      36.311  14.157  13.896  0.00  0.00     0.211 C 
ENDBRANCH   8  13
ENDBRANCH   1   3
BRANCH   1  15
HETATM   15  S   UNK N   1      34.066  17.689   8.361  0.00  0.00     0.264 S 
HETATM   16  O   UNK N   1      34.922  16.934   7.334  0.00  0.00    -0.200 OA
HETATM   17  O   UNK N   1      34.680  19.089   8.226  0.00  0.00    -0.200 OA
BRANCH  15  18
HETATM   18  C   UNK N   1      32.357  17.694   7.812  0.00  0.00     0.080 A 
HETATM   19  C   UNK N   1      31.999  17.200   6.553  0.00  0.00     0.027 A 
HETATM   20  C   UNK N   1      30.646  17.099   6.201  0.00  0.00     0.030 A 
HETATM   21  C   UNK N   1      29.652  17.478   7.111  0.00  0.00     0.025 A 
HETATM   22  C   UNK N   1      30.010  17.973   8.367  0.00  0.00     0.030 A 
HETATM   23  C   UNK N   1      31.358  18.074   8.717  0.00  0.00     0.027 A 
BRANCH  21  24
HETATM   24  N   UNK N   1      28.292  17.350   6.768  0.00  0.00    -0.399 N 
HETATM   25  H   UNK N   1      27.825  16.494   6.902  0.00  0.00     0.156 HD
HETATM   26  H   UNK N   1      27.807  18.119   6.393  0.00  0.00     0.156 HD
ENDBRANCH  21  24
ENDBRANCH  15  18
ENDBRANCH   1  15
TORSDOF 6
ENDMDL
MODEL 5
REMARK VINA RESULT:      -6.4     10.383     12.372
REMARK  6 active torsions:
REMARK  status: ('A' for Active; 'I' for Inactive)
REMARK    1  A    between atoms: O_20  and  C_1 
REMARK    2  A    between atoms: C_4  and  O_22 
REMARK    3  A    between atoms: C_7  and  N_8 
REMARK    4  A    between atoms: N_8  and  S_9 
REMARK    5  A    between atoms: S_9  and  C_12 
REMARK    6  A    between atoms: C_15  and  N_16 
ROOT
HETATM    1  N   UNK N   1      21.055  16.725   6.618  0.00  0.00    -0.266 N 
HETATM    2  H   UNK N   1      21.917  16.593   7.072  0.00  0.00     0.180 HD
ENDROOT
BRANCH   1   3
HETATM    3  C   UNK N   1      21.068  17.210   5.288  0.00  0.00     0.121 A 
HETATM    4  N   UNK N   1      20.710  16.414   4.247  0.00  0.00    -0.307 N 
HETATM    5  C   UNK N   1      20.718  16.892   2.966  0.00  0.00     0.226 A 
ATOM      6  HN  UNK N   1      20.435  15.448   4.422  1.00  0.00     0.171 HD
HETATM    7  N   UNK N   1      21.118  18.170   2.724  0.00  0.00    -0.302 N 
HETATM    8  C   UNK N   1      21.494  18.994   3.739  0.00  0.00     0.148 A 
ATOM      9  HN  UNK N   1      21.138  18.516   1.765  1.00  0.00     0.171 HD
HETATM   10  C   UNK N   1      21.458  18.527   5.052  0.00  0.00     0.105 A 
BRANCH   5  11
HETATM   11  O   UNK N   1      20.320  16.118   1.934  0.00  0.00    -0.327 OA
HETATM   12  C   UNK N   1      19.860  16.644   0.751  0.00  0.00     0.213 C 
ENDBRANCH   5  11
BRANCH   8  13
HETATM   13  O   UNK N   1      21.906  20.259   3.497  0.00  0.00    -0.341 OA
HETATM   14  C   UNK N   1      23.082  20.538   2.839  0.00  0.00     0.211 C 
ENDBRANCH   8  13
ENDBRANCH   1   3
BRANCH   1  15
HETATM   15  S   UNK N   1      19.584  16.346   7.504  0.00  0.00     0.264 S 
HETATM   16  O   UNK N   1      19.901  14.971   8.110  0.00  0.00    -0.200 OA
HETATM   17  O   UNK N   1      18.584  15.922   6.419  0.00  0.00    -0.200 OA
BRANCH  15  18
HETATM   18  C   UNK N   1      18.777  17.363   8.744  0.00  0.00     0.080 A 
HETATM   19  C   UNK N   1      17.494  17.059   9.207  0.00  0.00     0.027 A 
HETATM   20  C   UNK N   1      16.940  17.794  10.264  0.00  0.00     0.030 A 
HETATM   21  C   UNK N   1      17.674  18.823  10.866  0.00  0.00     0.025 A 
HETATM   22  C   UNK N   1      18.955  19.128  10.401  0.00  0.00     0.030 A 
HETATM   23  C   UNK N   1      19.506  18.395   9.347  0.00  0.00     0.027 A 
BRANCH  21  24
HETATM   24  N   UNK N   1      17.130  19.543  11.947  0.00  0.00    -0.399 N 
HETATM   25  H   UNK N   1      16.923  20.500  11.852  0.00  0.00     0.156 HD
HETATM   26  H   UNK N   1      16.956  19.086  12.801  0.00  0.00     0.156 HD
ENDBRANCH  21  24
ENDBRANCH  15  18
ENDBRANCH   1  15
TORSDOF 6
ENDMDL
MODEL 6
REMARK VINA RESULT:      -6.3      8.653     11.865
REMARK  6 active torsions:
REMARK  status: ('A' for Active; 'I' for Inactive)
REMARK    1  A    between atoms: O_20  and  C_1 
REMARK    2  A    between atoms: C_4  and  O_22 
REMARK    3  A    between atoms: C_7  and  N_8 
REMARK    4  A    between atoms: N_8  and  S_9 
REMARK    5  A    between atoms: S_9  and  C_12 
REMARK    6  A    between atoms: C_15  and  N_16 
ROOT
HETATM    1  N   UNK N   1      20.201  19.042   1.777  0.00  0.00    -0.266 N 
HETATM    2  H   UNK N   1      19.750  19.372   0.967  0.00  0.00     0.180 HD
ENDROOT
BRANCH   1   3
HETATM    3  C   UNK N   1      19.964  17.706   2.177  0.00  0.00     0.121 A 
HETATM    4  N   UNK N   1      19.554  17.413   3.439  0.00  0.00    -0.307 N 
HETATM    5  C   UNK N   1      19.319  16.120   3.816  0.00  0.00     0.226 A 
ATOM      6  HN  UNK N   1      19.423  18.166   4.114  1.00  0.00     0.171 HD
HETATM    7  N   UNK N   1      19.527  15.109   2.928  0.00  0.00    -0.302 N 
HETATM    8  C   UNK N   1      19.947  15.362   1.659  0.00  0.00     0.148 A 
ATOM      9  HN  UNK N   1      19.366  14.146   3.220  1.00  0.00     0.171 HD
HETATM   10  C   UNK N   1      20.157  16.679   1.255  0.00  0.00     0.105 A 
BRANCH   5  11
HETATM   11  O   UNK N   1      18.868  15.829   5.054  0.00  0.00    -0.327 OA
HETATM   12  C   UNK N   1      19.620  16.046   6.184  0.00  0.00     0.213 C 
ENDBRANCH   5  11
BRANCH   8  13
HETATM   13  O   UNK N   1      20.168  14.356   0.783  0.00  0.00    -0.341 OA
HETATM   14  C   UNK N   1      21.302  13.578   0.824  0.00  0.00     0.211 C 
ENDBRANCH   8  13
ENDBRANCH   1   3
BRANCH   1  15
HETATM   15  S   UNK N   1      21.259  20.148   2.644  0.00  0.00     0.264 S 
HETATM   16  O   UNK N   1      20.390  20.582   3.834  0.00  0.00    -0.200 OA
HETATM   17  O   UNK N   1      21.222  21.440   1.816  0.00  0.00    -0.200 OA
BRANCH  15  18
HETATM   18  C   UNK N   1      22.925  19.817   3.224  0.00  0.00     0.080 A 
HETATM   19  C   UNK N   1      23.215  18.680   3.985  0.00  0.00     0.027 A 
HETATM   20  C   UNK N   1      24.544  18.381   4.316  0.00  0.00     0.030 A 
HETATM   21  C   UNK N   1      25.582  19.210   3.875  0.00  0.00     0.025 A 
HETATM   22  C   UNK N   1      25.292  20.346   3.117  0.00  0.00     0.030 A 
HETATM   23  C   UNK N   1      23.968  20.644   2.788  0.00  0.00     0.027 A 
BRANCH  21  24
HETATM   24  N   UNK N   1      26.920  18.893   4.182  0.00  0.00    -0.399 N 
HETATM   25  H   UNK N   1      27.389  18.184   3.688  0.00  0.00     0.156 HD
HETATM   26  H   UNK N   1      27.387  19.384   4.896  0.00  0.00     0.156 HD
ENDBRANCH  21  24
ENDBRANCH  15  18
ENDBRANCH   1  15
TORSDOF 6
ENDMDL
MODEL 7
REMARK VINA RESULT:      -6.3      9.708     11.398
REMARK  6 active torsions:
REMARK  status: ('A' for Active; 'I' for Inactive)
REMARK    1  A    between atoms: O_20  and  C_1 
REMARK    2  A    between atoms: C_4  and  O_22 
REMARK    3  A    between atoms: C_7  and  N_8 
REMARK    4  A    between atoms: N_8  and  S_9 
REMARK    5  A    between atoms: S_9  and  C_12 
REMARK    6  A    between atoms: C_15  and  N_16 
ROOT
HETATM    1  N   UNK N   1      21.723  16.088   5.814  0.00  0.00    -0.266 N 
HETATM    2  H   UNK N   1      21.946  15.369   5.181  0.00  0.00     0.180 HD
ENDROOT
BRANCH   1   3
HETATM    3  C   UNK N   1      21.106  15.735   7.037  0.00  0.00     0.121 A 
HETATM    4  N   UNK N   1      19.894  16.242   7.385  0.00  0.00    -0.307 N 
HETATM    5  C   UNK N   1      19.301  15.889   8.565  0.00  0.00     0.226 A 
ATOM      6  HN  UNK N   1      19.423  16.895   6.760  1.00  0.00     0.171 HD
HETATM    7  N   UNK N   1      19.943  15.044   9.418  0.00  0.00    -0.302 N 
HETATM    8  C   UNK N   1      21.161  14.524   9.110  0.00  0.00     0.148 A 
ATOM      9  HN  UNK N   1      19.503  14.798  10.304  1.00  0.00     0.171 HD
HETATM   10  C   UNK N   1      21.760  14.851   7.894  0.00  0.00     0.105 A 
BRANCH   5  11
HETATM   11  O   UNK N   1      18.078  16.355   8.894  0.00  0.00    -0.327 OA
HETATM   12  C   UNK N   1      17.895  17.520   9.599  0.00  0.00     0.213 C 
ENDBRANCH   5  11
BRANCH   8  13
HETATM   13  O   UNK N   1      21.805  13.698   9.964  0.00  0.00    -0.341 OA
HETATM   14  C   UNK N   1      21.171  12.657  10.603  0.00  0.00     0.211 C 
ENDBRANCH   8  13
ENDBRANCH   1   3
BRANCH   1  15
HETATM   15  S   UNK N   1      22.114  17.742   5.360  0.00  0.00     0.264 S 
HETATM   16  O   UNK N   1      23.646  17.768   5.468  0.00  0.00    -0.200 OA
HETATM   17  O   UNK N   1      21.756  18.573   6.600  0.00  0.00    -0.200 OA
BRANCH  15  18
HETATM   18  C   UNK N   1      21.616  18.597   3.862  0.00  0.00     0.080 A 
HETATM   19  C   UNK N   1      20.402  18.306   3.231  0.00  0.00     0.027 A 
HETATM   20  C   UNK N   1      19.982  19.074   2.137  0.00  0.00     0.030 A 
HETATM   21  C   UNK N   1      20.767  20.142   1.684  0.00  0.00     0.025 A 
HETATM   22  C   UNK N   1      21.979  20.430   2.313  0.00  0.00     0.030 A 
HETATM   23  C   UNK N   1      22.399  19.663   3.402  0.00  0.00     0.027 A 
BRANCH  21  24
HETATM   24  N   UNK N   1      20.330  20.933   0.604  0.00  0.00    -0.399 N 
HETATM   25  H   UNK N   1      19.371  21.005   0.397  0.00  0.00     0.156 HD
HETATM   26  H   UNK N   1      20.988  21.415   0.052  0.00  0.00     0.156 HD
ENDBRANCH  21  24
ENDBRANCH  15  18
ENDBRANCH   1  15
TORSDOF 6
ENDMDL
MODEL 8
REMARK VINA RESULT:      -6.2      0.678      2.820
REMARK  6 active torsions:
REMARK  status: ('A' for Active; 'I' for Inactive)
REMARK    1  A    between atoms: O_20  and  C_1 
REMARK    2  A    between atoms: C_4  and  O_22 
REMARK    3  A    between atoms: C_7  and  N_8 
REMARK    4  A    between atoms: N_8  and  S_9 
REMARK    5  A    between atoms: S_9  and  C_12 
REMARK    6  A    between atoms: C_15  and  N_16 
ROOT
HETATM    1  N   UNK N   1      30.554  16.758   8.651  0.00  0.00    -0.266 N 
HETATM    2  H   UNK N   1      30.389  15.852   8.999  0.00  0.00     0.180 HD
ENDROOT
BRANCH   1   3
HETATM    3  C   UNK N   1      31.862  17.079   8.217  0.00  0.00     0.121 A 
HETATM    4  N   UNK N   1      32.137  17.274   6.901  0.00  0.00    -0.307 N 
HETATM    5  C   UNK N   1      33.402  17.592   6.491  0.00  0.00     0.226 A 
ATOM      6  HN  UNK N   1      31.392  17.181   6.212  1.00  0.00     0.171 HD
HETATM    7  N   UNK N   1      34.406  17.683   7.406  0.00  0.00    -0.302 N 
HETATM    8  C   UNK N   1      34.172  17.484   8.731  0.00  0.00     0.148 A 
ATOM      9  HN  UNK N   1      35.351  17.904   7.092  1.00  0.00     0.171 HD
HETATM   10  C   UNK N   1      32.879  17.192   9.164  0.00  0.00     0.105 A 
BRANCH   5  11
HETATM   11  O   UNK N   1      33.670  17.832   5.190  0.00  0.00    -0.327 OA
HETATM   12  C   UNK N   1      32.759  17.589   4.191  0.00  0.00     0.213 C 
ENDBRANCH   5  11
BRANCH   8  13
HETATM   13  O   UNK N   1      35.173  17.559   9.637  0.00  0.00    -0.341 OA
HETATM   14  C   UNK N   1      35.374  16.594  10.596  0.00  0.00     0.211 C 
ENDBRANCH   8  13
ENDBRANCH   1   3
BRANCH   1  15
HETATM   15  S   UNK N   1      29.205  17.886   8.603  0.00  0.00     0.264 S 
HETATM   16  O   UNK N   1      29.708  19.049   9.471  0.00  0.00    -0.200 OA
HETATM   17  O   UNK N   1      28.169  17.282   9.561  0.00  0.00    -0.200 OA
BRANCH  15  18
HETATM   18  C   UNK N   1      28.403  18.548   7.140  0.00  0.00     0.080 A 
HETATM   19  C   UNK N   1      27.758  19.789   7.167  0.00  0.00     0.027 A 
HETATM   20  C   UNK N   1      27.250  20.338   5.981  0.00  0.00     0.030 A 
HETATM   21  C   UNK N   1      27.400  19.654   4.769  0.00  0.00     0.025 A 
HETATM   22  C   UNK N   1      28.042  18.414   4.743  0.00  0.00     0.030 A 
HETATM   23  C   UNK N   1      28.547  17.867   5.925  0.00  0.00     0.027 A 
BRANCH  21  24
HETATM   24  N   UNK N   1      26.917  20.218   3.573  0.00  0.00    -0.399 N 
HETATM   25  H   UNK N   1      25.948  20.308   3.422  0.00  0.00     0.156 HD
HETATM   26  H   UNK N   1      27.550  20.524   2.884  0.00  0.00     0.156 HD
ENDBRANCH  21  24
ENDBRANCH  15  18
ENDBRANCH   1  15
TORSDOF 6
ENDMDL
MODEL 9
REMARK VINA RESULT:      -6.2     11.078     12.519
REMARK  6 active torsions:
REMARK  status: ('A' for Active; 'I' for Inactive)
REMARK    1  A    between atoms: O_20  and  C_1 
REMARK    2  A    between atoms: C_4  and  O_22 
REMARK    3  A    between atoms: C_7  and  N_8 
REMARK    4  A    between atoms: N_8  and  S_9 
REMARK    5  A    between atoms: S_9  and  C_12 
REMARK    6  A    between atoms: C_15  and  N_16 
ROOT
HETATM    1  N   UNK N   1      20.958  16.701   6.424  0.00  0.00    -0.266 N 
HETATM    2  H   UNK N   1      21.854  16.527   6.792  0.00  0.00     0.180 HD
ENDROOT
BRANCH   1   3
HETATM    3  C   UNK N   1      20.866  17.282   5.137  0.00  0.00     0.121 A 
HETATM    4  N   UNK N   1      20.908  18.629   4.970  0.00  0.00    -0.307 N 
HETATM    5  C   UNK N   1      20.827  19.182   3.722  0.00  0.00     0.226 A 
ATOM      6  HN  UNK N   1      21.000  19.235   5.785  1.00  0.00     0.171 HD
HETATM    7  N   UNK N   1      20.671  18.378   2.635  0.00  0.00    -0.302 N 
HETATM    8  C   UNK N   1      20.614  17.025   2.763  0.00  0.00     0.148 A 
ATOM      9  HN  UNK N   1      20.594  18.797   1.709  1.00  0.00     0.171 HD
HETATM   10  C   UNK N   1      20.729  16.449   4.027  0.00  0.00     0.105 A 
BRANCH   5  11
HETATM   11  O   UNK N   1      20.915  20.518   3.548  0.00  0.00    -0.327 OA
HETATM   12  C   UNK N   1      21.373  21.083   2.383  0.00  0.00     0.213 C 
ENDBRANCH   5  11
BRANCH   8  13
HETATM   13  O   UNK N   1      20.443  16.228   1.685  0.00  0.00    -0.341 OA
HETATM   14  C   UNK N   1      19.911  16.689   0.503  0.00  0.00     0.211 C 
ENDBRANCH   8  13
ENDBRANCH   1   3
BRANCH   1  15
HETATM   15  S   UNK N   1      19.562  16.271   7.403  0.00  0.00     0.264 S 
HETATM   16  O   UNK N   1      19.914  14.858   7.891  0.00  0.00    -0.200 OA
HETATM   17  O   UNK N   1      18.471  15.924   6.380  0.00  0.00    -0.200 OA
BRANCH  15  18
HETATM   18  C   UNK N   1      18.871  17.210   8.768  0.00  0.00     0.080 A 
HETATM   19  C   UNK N   1      19.562  18.289   9.328  0.00  0.00     0.027 A 
HETATM   20  C   UNK N   1      18.946  19.081  10.307  0.00  0.00     0.030 A 
HETATM   21  C   UNK N   1      17.635  18.803  10.714  0.00  0.00     0.025 A 
HETATM   22  C   UNK N   1      16.947  17.725  10.156  0.00  0.00     0.030 A 
HETATM   23  C   UNK N   1      17.562  16.935   9.182  0.00  0.00     0.027 A 
BRANCH  21  24
HETATM   24  N   UNK N   1      17.005  19.617  11.676  0.00  0.00    -0.399 N 
HETATM   25  H   UNK N   1      16.473  20.395  11.396  0.00  0.00     0.156 HD
HETATM   26  H   UNK N   1      17.098  19.405  12.633  0.00  0.00     0.156 HD
ENDBRANCH  21  24
ENDBRANCH  15  18
ENDBRANCH   1  15
TORSDOF 6
ENDMDL
