MODEL 1
REMARK VINA RESULT:      -5.8      0.000      0.000
REMARK  5 active torsions:
REMARK  status: ('A' for Active; 'I' for Inactive)
REMARK    1  A    between atoms: N_1  and  C_2 
REMARK    2  A    between atoms: C_9  and  C_10 
REMARK    3  A    between atoms: C_10  and  N_11 
REMARK    4  A    between atoms: C_12  and  N_11 
REMARK    5  A    between atoms: C_15  and  O_16 
ROOT
HETATM    1  C   UNK N   1      34.739  16.221   8.973  0.00  0.00     0.051 A 
HETATM    2  C   UNK N   1      35.631  15.140   9.087  0.00  0.00     0.039 A 
HETATM    3 Br   UNK N   1      36.312  14.599  10.790  0.00  0.00    -0.049 Br
HETATM    4  C   UNK N   1      36.017  14.429   7.948  0.00  0.00     0.040 A 
HETATM    5  C   UNK N   1      35.526  14.791   6.693  0.00  0.00     0.013 A 
HETATM    6 Br   UNK N   1      36.033  13.793   5.151  0.00  0.00    -0.051 Br
HETATM    7  C   UNK N   1      34.639  15.864   6.573  0.00  0.00     0.030 A 
HETATM    8  C   UNK N   1      34.242  16.584   7.706  0.00  0.00    -0.012 A 
ENDROOT
BRANCH   8   9
HETATM    9  C   UNK N   1      33.237  17.683   7.539  0.00  0.00     0.155 C 
BRANCH   9  10
HETATM   10  N   UNK N   1      32.154  17.305   6.642  0.00  0.00    -0.413 N 
HETATM   11  H   UNK N   1      32.218  17.131   5.640  0.00  0.00     0.153 HD
BRANCH  10  12
HETATM   12  C   UNK N   1      30.961  17.229   7.471  0.00  0.00     0.077 C 
HETATM   13  C   UNK N   1      29.717  17.475   6.619  0.00  0.00     0.027 C 
HETATM   14  C   UNK N   1      28.465  17.362   7.483  0.00  0.00     0.034 C 
HETATM   15  C   UNK N   1      28.524  18.373   8.625  0.00  0.00     0.118 C 
HETATM   16  C   UNK N   1      29.773  18.141   9.474  0.00  0.00     0.034 C 
HETATM   17  C   UNK N   1      31.029  18.248   8.608  0.00  0.00     0.027 C 
BRANCH  15  18
HETATM   18  O   UNK N   1      27.385  18.243   9.418  0.00  0.00    -0.396 OA
HETATM   19  H   UNK N   1      27.397  18.013  10.361  0.00  0.00     0.210 HD
ENDBRANCH  15  18
ENDBRANCH  10  12
ENDBRANCH   9  10
ENDBRANCH   8   9
BRANCH   1  20
HETATM   20  N   UNK N   1      34.334  16.926  10.128  0.00  0.00    -0.398 N 
HETATM   21  H   UNK N   1      33.834  17.770  10.045  0.00  0.00     0.156 HD
HETATM   22  H   UNK N   1      34.552  16.571  11.020  0.00  0.00     0.156 HD
ENDBRANCH   1  20
TORSDOF 5
ENDMDL
MODEL 2
REMARK VINA RESULT:      -5.8      3.376      4.539
REMARK  5 active torsions:
REMARK  status: ('A' for Active; 'I' for Inactive)
REMARK    1  A    between atoms: N_1  and  C_2 
REMARK    2  A    between atoms: C_9  and  C_10 
REMARK    3  A    between atoms: C_10  and  N_11 
REMARK    4  A    between atoms: C_12  and  N_11 
REMARK    5  A    between atoms: C_15  and  O_16 
ROOT
HETATM    1  C   UNK N   1      31.624  17.506   7.665  0.00  0.00     0.051 A 
HETATM    2  C   UNK N   1      32.939  17.586   7.174  0.00  0.00     0.039 A 
HETATM    3 Br   UNK N   1      34.413  17.913   8.347  0.00  0.00    -0.049 Br
HETATM    4  C   UNK N   1      33.188  17.404   5.811  0.00  0.00     0.040 A 
HETATM    5  C   UNK N   1      32.134  17.150   4.932  0.00  0.00     0.013 A 
HETATM    6 Br   UNK N   1      32.489  16.870   3.081  0.00  0.00    -0.051 Br
HETATM    7  C   UNK N   1      30.825  17.069   5.415  0.00  0.00     0.030 A 
HETATM    8  C   UNK N   1      30.561  17.247   6.778  0.00  0.00    -0.012 A 
ENDROOT
BRANCH   8   9
HETATM    9  C   UNK N   1      29.153  17.084   7.261  0.00  0.00     0.155 C 
BRANCH   9  10
HETATM   10  N   UNK N   1      28.533  18.360   7.587  0.00  0.00    -0.413 N 
HETATM   11  H   UNK N   1      28.416  18.769   8.514  0.00  0.00     0.153 HD
BRANCH  10  12
HETATM   12  C   UNK N   1      28.114  18.933   6.317  0.00  0.00     0.077 C 
HETATM   13  C   UNK N   1      27.433  20.281   6.551  0.00  0.00     0.027 C 
HETATM   14  C   UNK N   1      27.024  20.894   5.216  0.00  0.00     0.034 C 
HETATM   15  C   UNK N   1      26.078  19.953   4.475  0.00  0.00     0.118 C 
HETATM   16  C   UNK N   1      26.749  18.599   4.248  0.00  0.00     0.034 C 
HETATM   17  C   UNK N   1      27.166  17.984   5.586  0.00  0.00     0.027 C 
BRANCH  15  18
HETATM   18  O   UNK N   1      25.731  20.517   3.248  0.00  0.00    -0.396 OA
HETATM   19  H   UNK N   1      25.318  20.030   2.518  0.00  0.00     0.210 HD
ENDBRANCH  15  18
ENDBRANCH  10  12
ENDBRANCH   9  10
ENDBRANCH   8   9
BRANCH   1  20
HETATM   20  N   UNK N   1      31.377  17.670   9.046  0.00  0.00    -0.398 N 
HETATM   21  H   UNK N   1      31.944  17.214   9.710  0.00  0.00     0.156 HD
HETATM   22  H   UNK N   1      30.635  18.243   9.347  0.00  0.00     0.156 HD
ENDBRANCH   1  20
TORSDOF 5
ENDMDL
MODEL 3
REMARK VINA RESULT:      -5.8     14.699     16.372
REMARK  5 active torsions:
REMARK  status: ('A' for Active; 'I' for Inactive)
REMARK    1  A    between atoms: N_1  and  C_2 
REMARK    2  A    between atoms: C_9  and  C_10 
REMARK    3  A    between atoms: C_10  and  N_11 
REMARK    4  A    between atoms: C_12  and  N_11 
REMARK    5  A    between atoms: C_15  and  O_16 
ROOT
HETATM    1  C   UNK N   1      28.665  21.815  -6.889  0.00  0.00     0.051 A 
HETATM    2  C   UNK N   1      29.648  20.832  -6.676  0.00  0.00     0.039 A 
HETATM    3 Br   UNK N   1      29.912  19.413  -7.931  0.00  0.00    -0.049 Br
HETATM    4  C   UNK N   1      30.466  20.895  -5.545  0.00  0.00     0.040 A 
HETATM    5  C   UNK N   1      30.307  21.927  -4.619  0.00  0.00     0.013 A 
HETATM    6 Br   UNK N   1      31.450  22.021  -3.098  0.00  0.00    -0.051 Br
HETATM    7  C   UNK N   1      29.332  22.906  -4.825  0.00  0.00     0.030 A 
HETATM    8  C   UNK N   1      28.507  22.857  -5.955  0.00  0.00    -0.012 A 
ENDROOT
BRANCH   8   9
HETATM    9  C   UNK N   1      27.522  23.965  -6.170  0.00  0.00     0.155 C 
BRANCH   9  10
HETATM   10  N   UNK N   1      26.222  23.666  -5.586  0.00  0.00    -0.413 N 
HETATM   11  H   UNK N   1      25.735  22.770  -5.595  0.00  0.00     0.153 HD
BRANCH  10  12
HETATM   12  C   UNK N   1      25.762  24.909  -4.986  0.00  0.00     0.077 C 
HETATM   13  C   UNK N   1      25.494  25.946  -6.076  0.00  0.00     0.027 C 
HETATM   14  C   UNK N   1      24.981  27.238  -5.448  0.00  0.00     0.034 C 
HETATM   15  C   UNK N   1      26.002  27.778  -4.452  0.00  0.00     0.118 C 
HETATM   16  C   UNK N   1      26.283  26.741  -3.366  0.00  0.00     0.034 C 
HETATM   17  C   UNK N   1      26.793  25.442  -3.994  0.00  0.00     0.027 C 
BRANCH  15  18
HETATM   18  O   UNK N   1      25.509  28.946  -3.870  0.00  0.00    -0.396 OA
HETATM   19  H   UNK N   1      25.601  29.172  -2.931  0.00  0.00     0.210 HD
ENDBRANCH  15  18
ENDBRANCH  10  12
ENDBRANCH   9  10
ENDBRANCH   8   9
BRANCH   1  20
HETATM   20  N   UNK N   1      27.853  21.761  -8.043  0.00  0.00    -0.398 N 
HETATM   21  H   UNK N   1      28.098  21.177  -8.797  0.00  0.00     0.156 HD
HETATM   22  H   UNK N   1      27.037  22.310  -8.095  0.00  0.00     0.156 HD
ENDBRANCH   1  20
TORSDOF 5
ENDMDL
MODEL 4
REMARK VINA RESULT:      -5.7     14.229     15.818
REMARK  5 active torsions:
REMARK  status: ('A' for Active; 'I' for Inactive)
REMARK    1  A    between atoms: N_1  and  C_2 
REMARK    2  A    between atoms: C_9  and  C_10 
REMARK    3  A    between atoms: C_10  and  N_11 
REMARK    4  A    between atoms: C_12  and  N_11 
REMARK    5  A    between atoms: C_15  and  O_16 
ROOT
HETATM    1  C   UNK N   1      30.009  22.745  -4.761  0.00  0.00     0.051 A 
HETATM    2  C   UNK N   1      30.831  21.607  -4.677  0.00  0.00     0.039 A 
HETATM    3 Br   UNK N   1      32.142  21.436  -3.297  0.00  0.00    -0.049 Br
HETATM    4  C   UNK N   1      30.680  20.567  -5.599  0.00  0.00     0.040 A 
HETATM    5  C   UNK N   1      29.721  20.657  -6.609  0.00  0.00     0.013 A 
HETATM    6 Br   UNK N   1      29.503  19.219  -7.840  0.00  0.00    -0.051 Br
HETATM    7  C   UNK N   1      28.902  21.786  -6.697  0.00  0.00     0.030 A 
HETATM    8  C   UNK N   1      29.040  22.833  -5.779  0.00  0.00    -0.012 A 
ENDROOT
BRANCH   8   9
HETATM    9  C   UNK N   1      28.096  23.992  -5.870  0.00  0.00     0.155 C 
BRANCH   9  10
HETATM   10  N   UNK N   1      26.715  23.596  -5.630  0.00  0.00    -0.413 N 
HETATM   11  H   UNK N   1      26.286  22.697  -5.848  0.00  0.00     0.153 HD
BRANCH  10  12
HETATM   12  C   UNK N   1      26.074  24.748  -5.015  0.00  0.00     0.077 C 
HETATM   13  C   UNK N   1      25.664  25.754  -6.090  0.00  0.00     0.027 C 
HETATM   14  C   UNK N   1      24.963  26.945  -5.446  0.00  0.00     0.034 C 
HETATM   15  C   UNK N   1      25.888  27.612  -4.432  0.00  0.00     0.118 C 
HETATM   16  C   UNK N   1      26.310  26.608  -3.361  0.00  0.00     0.034 C 
HETATM   17  C   UNK N   1      27.009  25.409  -4.005  0.00  0.00     0.027 C 
BRANCH  15  18
HETATM   18  O   UNK N   1      25.225  28.685  -3.836  0.00  0.00    -0.396 OA
HETATM   19  H   UNK N   1      24.266  28.725  -3.693  0.00  0.00     0.210 HD
ENDBRANCH  15  18
ENDBRANCH  10  12
ENDBRANCH   9  10
ENDBRANCH   8   9
BRANCH   1  20
HETATM   20  N   UNK N   1      30.149  23.785  -3.816  0.00  0.00    -0.398 N 
HETATM   21  H   UNK N   1      29.806  24.687  -4.015  0.00  0.00     0.156 HD
HETATM   22  H   UNK N   1      30.590  23.608  -2.953  0.00  0.00     0.156 HD
ENDBRANCH   1  20
TORSDOF 5
ENDMDL
MODEL 5
REMARK VINA RESULT:      -5.7     15.310     17.459
REMARK  5 active torsions:
REMARK  status: ('A' for Active; 'I' for Inactive)
REMARK    1  A    between atoms: N_1  and  C_2 
REMARK    2  A    between atoms: C_9  and  C_10 
REMARK    3  A    between atoms: C_10  and  N_11 
REMARK    4  A    between atoms: C_12  and  N_11 
REMARK    5  A    between atoms: C_15  and  O_16 
ROOT
HETATM    1  C   UNK N   1      26.528  28.103  -4.191  0.00  0.00     0.051 A 
HETATM    2  C   UNK N   1      26.949  29.386  -4.583  0.00  0.00     0.039 A 
HETATM    3 Br   UNK N   1      26.574  30.920  -3.505  0.00  0.00    -0.049 Br
HETATM    4  C   UNK N   1      27.672  29.552  -5.767  0.00  0.00     0.040 A 
HETATM    5  C   UNK N   1      27.973  28.450  -6.568  0.00  0.00     0.013 A 
HETATM    6 Br   UNK N   1      28.989  28.684  -8.163  0.00  0.00    -0.051 Br
HETATM    7  C   UNK N   1      27.557  27.172  -6.183  0.00  0.00     0.030 A 
HETATM    8  C   UNK N   1      26.833  26.990  -4.999  0.00  0.00    -0.012 A 
ENDROOT
BRANCH   8   9
HETATM    9  C   UNK N   1      26.467  25.597  -4.591  0.00  0.00     0.155 C 
BRANCH   9  10
HETATM   10  N   UNK N   1      27.069  24.594  -5.459  0.00  0.00    -0.413 N 
HETATM   11  H   UNK N   1      26.898  24.460  -6.455  0.00  0.00     0.153 HD
BRANCH  10  12
HETATM   12  C   UNK N   1      27.965  23.823  -4.612  0.00  0.00     0.077 C 
HETATM   13  C   UNK N   1      27.605  24.034  -3.142  0.00  0.00     0.027 C 
HETATM   14  C   UNK N   1      28.524  23.200  -2.257  0.00  0.00     0.034 C 
HETATM   15  C   UNK N   1      29.980  23.590  -2.498  0.00  0.00     0.118 C 
HETATM   16  C   UNK N   1      30.343  23.393  -3.969  0.00  0.00     0.034 C 
HETATM   17  C   UNK N   1      29.418  24.225  -4.859  0.00  0.00     0.027 C 
BRANCH  15  18
HETATM   18  O   UNK N   1      30.809  22.804  -1.699  0.00  0.00    -0.396 OA
HETATM   19  H   UNK N   1      31.649  23.104  -1.319  0.00  0.00     0.210 HD
ENDBRANCH  15  18
ENDBRANCH  10  12
ENDBRANCH   9  10
ENDBRANCH   8   9
BRANCH   1  20
HETATM   20  N   UNK N   1      25.814  27.934  -2.984  0.00  0.00    -0.398 N 
HETATM   21  H   UNK N   1      25.400  27.067  -2.768  0.00  0.00     0.156 HD
HETATM   22  H   UNK N   1      25.730  28.688  -2.354  0.00  0.00     0.156 HD
ENDBRANCH   1  20
TORSDOF 5
ENDMDL
MODEL 6
REMARK VINA RESULT:      -5.7      4.283      6.212
REMARK  5 active torsions:
REMARK  status: ('A' for Active; 'I' for Inactive)
REMARK    1  A    between atoms: N_1  and  C_2 
REMARK    2  A    between atoms: C_9  and  C_10 
REMARK    3  A    between atoms: C_10  and  N_11 
REMARK    4  A    between atoms: C_12  and  N_11 
REMARK    5  A    between atoms: C_15  and  O_16 
ROOT
HETATM    1  C   UNK N   1      34.922  12.723  12.462  0.00  0.00     0.051 A 
HETATM    2  C   UNK N   1      35.048  12.201  13.762  0.00  0.00     0.039 A 
HETATM    3 Br   UNK N   1      34.327  10.489  14.212  0.00  0.00    -0.049 Br
HETATM    4  C   UNK N   1      35.729  12.927  14.743  0.00  0.00     0.040 A 
HETATM    5  C   UNK N   1      36.279  14.174  14.440  0.00  0.00     0.013 A 
HETATM    6 Br   UNK N   1      37.234  15.140  15.776  0.00  0.00    -0.051 Br
HETATM    7  C   UNK N   1      36.156  14.698  13.150  0.00  0.00     0.030 A 
HETATM    8  C   UNK N   1      35.478  13.980  12.157  0.00  0.00    -0.012 A 
ENDROOT
BRANCH   8   9
HETATM    9  C   UNK N   1      35.430  14.548  10.772  0.00  0.00     0.155 C 
BRANCH   9  10
HETATM   10  N   UNK N   1      34.562  15.715  10.686  0.00  0.00    -0.413 N 
HETATM   11  H   UNK N   1      33.936  16.070  11.408  0.00  0.00     0.153 HD
BRANCH  10  12
HETATM   12  C   UNK N   1      34.774  16.269   9.358  0.00  0.00     0.077 C 
HETATM   13  C   UNK N   1      33.796  17.416   9.109  0.00  0.00     0.027 C 
HETATM   14  C   UNK N   1      34.040  18.017   7.729  0.00  0.00     0.034 C 
HETATM   15  C   UNK N   1      33.874  16.947   6.655  0.00  0.00     0.118 C 
HETATM   16  C   UNK N   1      34.841  15.791   6.904  0.00  0.00     0.034 C 
HETATM   17  C   UNK N   1      34.601  15.190   8.291  0.00  0.00     0.027 C 
BRANCH  15  18
HETATM   18  O   UNK N   1      34.123  17.506   5.402  0.00  0.00    -0.396 OA
HETATM   19  H   UNK N   1      33.545  17.398   4.629  0.00  0.00     0.210 HD
ENDBRANCH  15  18
ENDBRANCH  10  12
ENDBRANCH   9  10
ENDBRANCH   8   9
BRANCH   1  20
HETATM   20  N   UNK N   1      34.250  11.979  11.467  0.00  0.00    -0.398 N 
HETATM   21  H   UNK N   1      33.372  12.274  11.133  0.00  0.00     0.156 HD
HETATM   22  H   UNK N   1      34.663  11.161  11.104  0.00  0.00     0.156 HD
ENDBRANCH   1  20
TORSDOF 5
ENDMDL
MODEL 7
REMARK VINA RESULT:      -5.7      4.427      5.929
REMARK  5 active torsions:
REMARK  status: ('A' for Active; 'I' for Inactive)
REMARK    1  A    between atoms: N_1  and  C_2 
REMARK    2  A    between atoms: C_9  and  C_10 
REMARK    3  A    between atoms: C_10  and  N_11 
REMARK    4  A    between atoms: C_12  and  N_11 
REMARK    5  A    between atoms: C_15  and  O_16 
ROOT
HETATM    1  C   UNK N   1      35.931  14.467  13.092  0.00  0.00     0.051 A 
HETATM    2  C   UNK N   1      36.212  13.982  14.382  0.00  0.00     0.039 A 
HETATM    3 Br   UNK N   1      37.214  15.026  15.632  0.00  0.00    -0.049 Br
HETATM    4  C   UNK N   1      35.737  12.728  14.776  0.00  0.00     0.040 A 
HETATM    5  C   UNK N   1      34.990  11.950  13.891  0.00  0.00     0.013 A 
HETATM    6 Br   UNK N   1      34.320  10.256  14.450  0.00  0.00    -0.051 Br
HETATM    7  C   UNK N   1      34.709  12.426  12.608  0.00  0.00     0.030 A 
HETATM    8  C   UNK N   1      35.176  13.681  12.200  0.00  0.00    -0.012 A 
ENDROOT
BRANCH   8   9
HETATM    9  C   UNK N   1      34.793  14.180  10.841  0.00  0.00     0.155 C 
BRANCH   9  10
HETATM   10  N   UNK N   1      33.438  14.714  10.814  0.00  0.00    -0.413 N 
HETATM   11  H   UNK N   1      32.683  14.509  11.467  0.00  0.00     0.153 HD
BRANCH  10  12
HETATM   12  C   UNK N   1      33.385  15.600   9.661  0.00  0.00     0.077 C 
HETATM   13  C   UNK N   1      33.373  14.780   8.372  0.00  0.00     0.027 C 
HETATM   14  C   UNK N   1      33.285  15.710   7.166  0.00  0.00     0.034 C 
HETATM   15  C   UNK N   1      34.467  16.674   7.161  0.00  0.00     0.118 C 
HETATM   16  C   UNK N   1      34.492  17.489   8.453  0.00  0.00     0.034 C 
HETATM   17  C   UNK N   1      34.575  16.558   9.664  0.00  0.00     0.027 C 
BRANCH  15  18
HETATM   18  O   UNK N   1      34.360  17.532   6.066  0.00  0.00    -0.396 OA
HETATM   19  H   UNK N   1      35.031  18.188   5.816  0.00  0.00     0.210 HD
ENDBRANCH  15  18
ENDBRANCH  10  12
ENDBRANCH   9  10
ENDBRANCH   8   9
BRANCH   1  20
HETATM   20  N   UNK N   1      36.395  15.743  12.703  0.00  0.00    -0.398 N 
HETATM   21  H   UNK N   1      35.799  16.525  12.753  0.00  0.00     0.156 HD
HETATM   22  H   UNK N   1      37.320  15.851  12.381  0.00  0.00     0.156 HD
ENDBRANCH   1  20
TORSDOF 5
ENDMDL
MODEL 8
REMARK VINA RESULT:      -5.6      4.413      7.105
REMARK  5 active torsions:
REMARK  status: ('A' for Active; 'I' for Inactive)
REMARK    1  A    between atoms: N_1  and  C_2 
REMARK    2  A    between atoms: C_9  and  C_10 
REMARK    3  A    between atoms: C_10  and  N_11 
REMARK    4  A    between atoms: C_12  and  N_11 
REMARK    5  A    between atoms: C_15  and  O_16 
ROOT
HETATM    1  C   UNK N   1      28.807  17.126   6.254  0.00  0.00     0.051 A 
HETATM    2  C   UNK N   1      28.125  17.679   5.155  0.00  0.00     0.039 A 
HETATM    3 Br   UNK N   1      27.938  16.706   3.520  0.00  0.00    -0.049 Br
HETATM    4  C   UNK N   1      27.553  18.949   5.255  0.00  0.00     0.040 A 
HETATM    5  C   UNK N   1      27.661  19.677   6.441  0.00  0.00     0.013 A 
HETATM    6 Br   UNK N   1      26.848  21.395   6.577  0.00  0.00    -0.051 Br
HETATM    7  C   UNK N   1      28.337  19.134   7.536  0.00  0.00     0.030 A 
HETATM    8  C   UNK N   1      28.914  17.861   7.451  0.00  0.00    -0.012 A 
ENDROOT
BRANCH   8   9
HETATM    9  C   UNK N   1      29.569  17.289   8.671  0.00  0.00     0.155 C 
BRANCH   9  10
HETATM   10  N   UNK N   1      30.813  17.972   8.997  0.00  0.00    -0.413 N 
HETATM   11  H   UNK N   1      30.958  18.671   9.725  0.00  0.00     0.153 HD
BRANCH  10  12
HETATM   12  C   UNK N   1      31.806  17.452   8.070  0.00  0.00     0.077 C 
HETATM   13  C   UNK N   1      32.113  15.992   8.399  0.00  0.00     0.027 C 
HETATM   14  C   UNK N   1      33.129  15.438   7.406  0.00  0.00     0.034 C 
HETATM   15  C   UNK N   1      34.411  16.265   7.453  0.00  0.00     0.118 C 
HETATM   16  C   UNK N   1      34.109  17.728   7.136  0.00  0.00     0.034 C 
HETATM   17  C   UNK N   1      33.085  18.284   8.128  0.00  0.00     0.027 C 
BRANCH  15  18
HETATM   18  O   UNK N   1      35.321  15.761   6.525  0.00  0.00    -0.396 OA
HETATM   19  H   UNK N   1      36.149  15.309   6.757  0.00  0.00     0.210 HD
ENDBRANCH  15  18
ENDBRANCH  10  12
ENDBRANCH   9  10
ENDBRANCH   8   9
BRANCH   1  20
HETATM   20  N   UNK N   1      29.368  15.833   6.158  0.00  0.00    -0.398 N 
HETATM   21  H   UNK N   1      29.554  15.310   6.971  0.00  0.00     0.156 HD
HETATM   22  H   UNK N   1      29.572  15.452   5.273  0.00  0.00     0.156 HD
ENDBRANCH   1  20
TORSDOF 5
ENDMDL
MODEL 9
REMARK VINA RESULT:      -5.6      7.527      9.713
REMARK  5 active torsions:
REMARK  status: ('A' for Active; 'I' for Inactive)
REMARK    1  A    between atoms: N_1  and  C_2 
REMARK    2  A    between atoms: C_9  and  C_10 
REMARK    3  A    between atoms: C_10  and  N_11 
REMARK    4  A    between atoms: C_12  and  N_11 
REMARK    5  A    between atoms: C_15  and  O_16 
ROOT
HETATM    1  C   UNK N   1      36.059  13.978  13.090  0.00  0.00     0.051 A 
HETATM    2  C   UNK N   1      35.507  14.230  11.822  0.00  0.00     0.039 A 
HETATM    3 Br   UNK N   1      35.577  15.975  11.043  0.00  0.00    -0.049 Br
HETATM    4  C   UNK N   1      34.914  13.191  11.099  0.00  0.00     0.040 A 
HETATM    5  C   UNK N   1      34.861  11.903  11.635  0.00  0.00     0.013 A 
HETATM    6 Br   UNK N   1      34.079  10.487  10.627  0.00  0.00    -0.051 Br
HETATM    7  C   UNK N   1      35.408  11.647  12.895  0.00  0.00     0.030 A 
HETATM    8  C   UNK N   1      36.007  12.678  13.629  0.00  0.00    -0.012 A 
ENDROOT
BRANCH   8   9
HETATM    9  C   UNK N   1      36.641  12.344  14.944  0.00  0.00     0.155 C 
BRANCH   9  10
HETATM   10  N   UNK N   1      36.066  11.148  15.544  0.00  0.00    -0.413 N 
HETATM   11  H   UNK N   1      36.120  10.195  15.187  0.00  0.00     0.153 HD
BRANCH  10  12
HETATM   12  C   UNK N   1      35.399  11.594  16.757  0.00  0.00     0.077 C 
HETATM   13  C   UNK N   1      35.677  13.078  16.990  0.00  0.00     0.027 C 
HETATM   14  C   UNK N   1      34.951  13.552  18.245  0.00  0.00     0.034 C 
HETATM   15  C   UNK N   1      35.407  12.739  19.453  0.00  0.00     0.118 C 
HETATM   16  C   UNK N   1      35.143  11.252  19.221  0.00  0.00     0.034 C 
HETATM   17  C   UNK N   1      35.867  10.776  17.960  0.00  0.00     0.027 C 
BRANCH  15  18
HETATM   18  O   UNK N   1      34.718  13.168  20.587  0.00  0.00    -0.396 OA
HETATM   19  H   UNK N   1      33.775  13.396  20.602  0.00  0.00     0.210 HD
ENDBRANCH  15  18
ENDBRANCH  10  12
ENDBRANCH   9  10
ENDBRANCH   8   9
BRANCH   1  20
HETATM   20  N   UNK N   1      36.676  15.025  13.810  0.00  0.00    -0.398 N 
HETATM   21  H   UNK N   1      36.164  15.541  14.474  0.00  0.00     0.156 HD
HETATM   22  H   UNK N   1      37.624  15.240  13.647  0.00  0.00     0.156 HD
ENDBRANCH   1  20
TORSDOF 5
ENDMDL
