MODEL 1
REMARK VINA RESULT:      -4.8      0.000      0.000
REMARK  3 active torsions:
REMARK  status: ('A' for Active; 'I' for Inactive)
REMARK    1  A    between atoms: C_2  and  C_3 
REMARK    2  A    between atoms: C_2  and  N_10 
REMARK    3  A    between atoms: C_3  and  C_4 
ROOT
HETATM    1  C   UNK N   1      34.935  12.687  17.015  0.00  0.00    -0.013 C 
HETATM    2  C   UNK N   1      35.279  13.543  18.235  0.00  0.00     0.005 C 
HETATM    3  C   UNK N   1      35.004  12.781  19.530  0.00  0.00     0.000 C 
HETATM    4  C   UNK N   1      35.803  11.482  19.560  0.00  0.00     0.000 C 
HETATM    5  C   UNK N   1      35.439  10.621  18.356  0.00  0.00     0.000 C 
HETATM    6  C   UNK N   1      35.737  11.384  17.070  0.00  0.00     0.005 C 
ENDROOT
BRANCH   1   7
HETATM    7  C   UNK N   1      35.279  13.482  15.756  0.00  0.00     0.029 C 
BRANCH   7   8
HETATM    8  C   UNK N   1      36.775  13.627  15.481  0.00  0.00     0.072 C 
HETATM    9  C   UNK N   1      37.236  15.061  15.716  0.00  0.00     0.031 C 
BRANCH   8  10
HETATM   10  N   UNK N   1      37.023  13.258  14.091  0.00  0.00    -0.422 N 
HETATM   11  C   UNK N   1      36.209  14.099  13.227  0.00  0.00     0.140 C 
HETATM   12  H   UNK N   1      37.663  12.529  13.775  0.00  0.00     0.153 HD
ENDBRANCH   8  10
ENDBRANCH   7   8
ENDBRANCH   1   7
TORSDOF 3
ENDMDL
MODEL 2
REMARK VINA RESULT:      -4.5      8.318     11.227
REMARK  3 active torsions:
REMARK  status: ('A' for Active; 'I' for Inactive)
REMARK    1  A    between atoms: C_2  and  C_3 
REMARK    2  A    between atoms: C_2  and  N_10 
REMARK    3  A    between atoms: C_3  and  C_4 
ROOT
HETATM    1  C   UNK N   1      30.715  17.208   8.031  0.00  0.00    -0.013 C 
HETATM    2  C   UNK N   1      29.844  17.433   6.793  0.00  0.00     0.005 C 
HETATM    3  C   UNK N   1      28.373  17.568   7.180  0.00  0.00     0.000 C 
HETATM    4  C   UNK N   1      28.188  18.719   8.165  0.00  0.00     0.000 C 
HETATM    5  C   UNK N   1      29.038  18.479   9.407  0.00  0.00     0.000 C 
HETATM    6  C   UNK N   1      30.506  18.366   9.011  0.00  0.00     0.005 C 
ENDROOT
BRANCH   1   7
HETATM    7  C   UNK N   1      32.175  17.132   7.585  0.00  0.00     0.029 C 
BRANCH   7   8
HETATM    8  C   UNK N   1      33.183  17.648   8.611  0.00  0.00     0.072 C 
HETATM    9  C   UNK N   1      34.411  18.231   7.922  0.00  0.00     0.031 C 
BRANCH   8  10
HETATM   10  N   UNK N   1      33.586  16.531   9.460  0.00  0.00    -0.422 N 
HETATM   11  C   UNK N   1      34.954  16.747   9.907  0.00  0.00     0.140 C 
HETATM   12  H   UNK N   1      33.004  15.728   9.701  0.00  0.00     0.153 HD
ENDBRANCH   8  10
ENDBRANCH   7   8
ENDBRANCH   1   7
TORSDOF 3
ENDMDL
MODEL 3
REMARK VINA RESULT:      -4.5     26.091     27.370
REMARK  3 active torsions:
REMARK  status: ('A' for Active; 'I' for Inactive)
REMARK    1  A    between atoms: C_2  and  C_3 
REMARK    2  A    between atoms: C_2  and  N_10 
REMARK    3  A    between atoms: C_3  and  C_4 
ROOT
HETATM    1  C   UNK N   1      26.131  26.929  -4.646  0.00  0.00    -0.013 C 
HETATM    2  C   UNK N   1      25.120  26.546  -5.728  0.00  0.00     0.005 C 
HETATM    3  C   UNK N   1      25.642  25.387  -6.575  0.00  0.00     0.000 C 
HETATM    4  C   UNK N   1      25.944  24.180  -5.692  0.00  0.00     0.000 C 
HETATM    5  C   UNK N   1      26.970  24.559  -4.630  0.00  0.00     0.000 C 
HETATM    6  C   UNK N   1      26.430  25.703  -3.779  0.00  0.00     0.005 C 
ENDROOT
BRANCH   1   7
HETATM    7  C   UNK N   1      25.532  28.055  -3.804  0.00  0.00     0.029 C 
BRANCH   7   8
HETATM    8  C   UNK N   1      26.429  29.283  -3.648  0.00  0.00     0.072 C 
HETATM    9  C   UNK N   1      27.312  29.471  -4.876  0.00  0.00     0.031 C 
BRANCH   8  10
HETATM   10  N   UNK N   1      27.269  29.090  -2.470  0.00  0.00    -0.422 N 
HETATM   11  C   UNK N   1      28.665  29.092  -2.881  0.00  0.00     0.140 C 
HETATM   12  H   UNK N   1      26.933  28.972  -1.514  0.00  0.00     0.153 HD
ENDBRANCH   8  10
ENDBRANCH   7   8
ENDBRANCH   1   7
TORSDOF 3
ENDMDL
MODEL 4
REMARK VINA RESULT:      -4.4     26.127     27.915
REMARK  3 active torsions:
REMARK  status: ('A' for Active; 'I' for Inactive)
REMARK    1  A    between atoms: C_2  and  C_3 
REMARK    2  A    between atoms: C_2  and  N_10 
REMARK    3  A    between atoms: C_3  and  C_4 
ROOT
HETATM    1  C   UNK N   1      26.242  27.165  -5.094  0.00  0.00    -0.013 C 
HETATM    2  C   UNK N   1      25.522  28.126  -4.147  0.00  0.00     0.005 C 
HETATM    3  C   UNK N   1      26.482  29.187  -3.614  0.00  0.00     0.000 C 
HETATM    4  C   UNK N   1      27.107  29.963  -4.769  0.00  0.00     0.000 C 
HETATM    5  C   UNK N   1      27.845  29.006  -5.697  0.00  0.00     0.000 C 
HETATM    6  C   UNK N   1      26.873  27.964  -6.239  0.00  0.00     0.005 C 
ENDROOT
BRANCH   1   7
HETATM    7  C   UNK N   1      25.221  26.163  -5.632  0.00  0.00     0.029 C 
BRANCH   7   8
HETATM    8  C   UNK N   1      25.473  24.712  -5.221  0.00  0.00     0.072 C 
HETATM    9  C   UNK N   1      26.795  24.580  -4.474  0.00  0.00     0.031 C 
BRANCH   8  10
HETATM   10  N   UNK N   1      25.513  23.894  -6.429  0.00  0.00    -0.422 N 
HETATM   11  C   UNK N   1      26.773  23.167  -6.465  0.00  0.00     0.140 C 
HETATM   12  H   UNK N   1      24.778  23.840  -7.134  0.00  0.00     0.153 HD
ENDBRANCH   8  10
ENDBRANCH   7   8
ENDBRANCH   1   7
TORSDOF 3
ENDMDL
MODEL 5
REMARK VINA RESULT:      -4.4     22.780     26.082
REMARK  3 active torsions:
REMARK  status: ('A' for Active; 'I' for Inactive)
REMARK    1  A    between atoms: C_2  and  C_3 
REMARK    2  A    between atoms: C_2  and  N_10 
REMARK    3  A    between atoms: C_3  and  C_4 
ROOT
HETATM    1  C   UNK N   1      26.776  25.523  -4.394  0.00  0.00    -0.013 C 
HETATM    2  C   UNK N   1      26.137  26.662  -3.597  0.00  0.00     0.005 C 
HETATM    3  C   UNK N   1      25.682  27.787  -4.525  0.00  0.00     0.000 C 
HETATM    4  C   UNK N   1      24.694  27.253  -5.559  0.00  0.00     0.000 C 
HETATM    5  C   UNK N   1      25.343  26.136  -6.367  0.00  0.00     0.000 C 
HETATM    6  C   UNK N   1      25.775  25.011  -5.433  0.00  0.00     0.005 C 
ENDROOT
BRANCH   1   7
HETATM    7  C   UNK N   1      27.163  24.411  -3.419  0.00  0.00     0.029 C 
BRANCH   7   8
HETATM    8  C   UNK N   1      28.648  24.050  -3.419  0.00  0.00     0.072 C 
HETATM    9  C   UNK N   1      29.041  23.363  -4.722  0.00  0.00     0.031 C 
BRANCH   8  10
HETATM   10  N   UNK N   1      28.900  23.148  -2.299  0.00  0.00    -0.422 N 
HETATM   11  C   UNK N   1      30.316  22.813  -2.273  0.00  0.00     0.140 C 
HETATM   12  H   UNK N   1      28.199  22.808  -1.641  0.00  0.00     0.153 HD
ENDBRANCH   8  10
ENDBRANCH   7   8
ENDBRANCH   1   7
TORSDOF 3
ENDMDL
MODEL 6
REMARK VINA RESULT:      -4.4      1.261      2.118
REMARK  3 active torsions:
REMARK  status: ('A' for Active; 'I' for Inactive)
REMARK    1  A    between atoms: C_2  and  C_3 
REMARK    2  A    between atoms: C_2  and  N_10 
REMARK    3  A    between atoms: C_3  and  C_4 
ROOT
HETATM    1  C   UNK N   1      35.757  12.257  16.496  0.00  0.00    -0.013 C 
HETATM    2  C   UNK N   1      35.490  10.937  17.222  0.00  0.00     0.005 C 
HETATM    3  C   UNK N   1      35.817  11.057  18.709  0.00  0.00     0.000 C 
HETATM    4  C   UNK N   1      34.996  12.177  19.342  0.00  0.00     0.000 C 
HETATM    5  C   UNK N   1      35.283  13.495  18.633  0.00  0.00     0.000 C 
HETATM    6  C   UNK N   1      34.935  13.369  17.154  0.00  0.00     0.005 C 
ENDROOT
BRANCH   1   7
HETATM    7  C   UNK N   1      35.364  12.088  15.029  0.00  0.00     0.029 C 
BRANCH   7   8
HETATM    8  C   UNK N   1      36.502  12.312  14.033  0.00  0.00     0.072 C 
HETATM    9  C   UNK N   1      37.703  11.436  14.373  0.00  0.00     0.031 C 
BRANCH   8  10
HETATM   10  N   UNK N   1      36.893  13.717  14.092  0.00  0.00    -0.422 N 
HETATM   11  C   UNK N   1      36.136  14.459  13.096  0.00  0.00     0.140 C 
HETATM   12  H   UNK N   1      37.584  14.115  14.728  0.00  0.00     0.153 HD
ENDBRANCH   8  10
ENDBRANCH   7   8
ENDBRANCH   1   7
TORSDOF 3
ENDMDL
MODEL 7
REMARK VINA RESULT:      -4.4     15.319     16.734
REMARK  3 active torsions:
REMARK  status: ('A' for Active; 'I' for Inactive)
REMARK    1  A    between atoms: C_2  and  C_3 
REMARK    2  A    between atoms: C_2  and  N_10 
REMARK    3  A    between atoms: C_3  and  C_4 
ROOT
HETATM    1  C   UNK N   1      21.325  14.382   9.242  0.00  0.00    -0.013 C 
HETATM    2  C   UNK N   1      19.975  15.100   9.281  0.00  0.00     0.005 C 
HETATM    3  C   UNK N   1      20.067  16.470   8.612  0.00  0.00     0.000 C 
HETATM    4  C   UNK N   1      20.539  16.324   7.169  0.00  0.00     0.000 C 
HETATM    5  C   UNK N   1      21.896  15.630   7.135  0.00  0.00     0.000 C 
HETATM    6  C   UNK N   1      21.787  14.256   7.787  0.00  0.00     0.005 C 
ENDROOT
BRANCH   1   7
HETATM    7  C   UNK N   1      21.155  13.003   9.877  0.00  0.00     0.029 C 
BRANCH   7   8
HETATM    8  C   UNK N   1      22.387  12.487  10.621  0.00  0.00     0.072 C 
HETATM    9  C   UNK N   1      23.129  11.447   9.789  0.00  0.00     0.031 C 
BRANCH   8  10
HETATM   10  N   UNK N   1      21.946  11.882  11.874  0.00  0.00    -0.422 N 
HETATM   11  C   UNK N   1      23.065  11.855  12.804  0.00  0.00     0.140 C 
HETATM   12  H   UNK N   1      21.007  11.535  12.067  0.00  0.00     0.153 HD
ENDBRANCH   8  10
ENDBRANCH   7   8
ENDBRANCH   1   7
TORSDOF 3
ENDMDL
MODEL 8
REMARK VINA RESULT:      -4.3      3.121      5.813
REMARK  3 active torsions:
REMARK  status: ('A' for Active; 'I' for Inactive)
REMARK    1  A    between atoms: C_2  and  C_3 
REMARK    2  A    between atoms: C_2  and  N_10 
REMARK    3  A    between atoms: C_3  and  C_4 
ROOT
HETATM    1  C   UNK N   1      35.222  11.285  18.725  0.00  0.00    -0.013 C 
HETATM    2  C   UNK N   1      36.132  10.684  17.652  0.00  0.00     0.005 C 
HETATM    3  C   UNK N   1      35.736  11.178  16.263  0.00  0.00     0.000 C 
HETATM    4  C   UNK N   1      35.797  12.702  16.205  0.00  0.00     0.000 C 
HETATM    5  C   UNK N   1      34.870  13.298  17.259  0.00  0.00     0.000 C 
HETATM    6  C   UNK N   1      35.287  12.813  18.643  0.00  0.00     0.005 C 
ENDROOT
BRANCH   1   7
HETATM    7  C   UNK N   1      35.698  10.795  20.092  0.00  0.00     0.029 C 
BRANCH   7   8
HETATM    8  C   UNK N   1      34.622  10.116  20.938  0.00  0.00     0.072 C 
HETATM    9  C   UNK N   1      33.712   9.253  20.071  0.00  0.00     0.031 C 
BRANCH   8  10
HETATM   10  N   UNK N   1      33.831  11.153  21.592  0.00  0.00    -0.422 N 
HETATM   11  C   UNK N   1      32.799  10.520  22.399  0.00  0.00     0.140 C 
HETATM   12  H   UNK N   1      33.976  12.158  21.498  0.00  0.00     0.153 HD
ENDBRANCH   8  10
ENDBRANCH   7   8
ENDBRANCH   1   7
TORSDOF 3
ENDMDL
MODEL 9
REMARK VINA RESULT:      -4.3     15.622     16.586
REMARK  3 active torsions:
REMARK  status: ('A' for Active; 'I' for Inactive)
REMARK    1  A    between atoms: C_2  and  C_3 
REMARK    2  A    between atoms: C_2  and  N_10 
REMARK    3  A    between atoms: C_3  and  C_4 
ROOT
HETATM    1  C   UNK N   1      21.461  13.967   9.717  0.00  0.00    -0.013 C 
HETATM    2  C   UNK N   1      22.597  13.412   8.856  0.00  0.00     0.005 C 
HETATM    3  C   UNK N   1      23.635  12.697   9.718  0.00  0.00     0.000 C 
HETATM    4  C   UNK N   1      22.978  11.568  10.509  0.00  0.00     0.000 C 
HETATM    5  C   UNK N   1      21.864  12.129  11.384  0.00  0.00     0.000 C 
HETATM    6  C   UNK N   1      20.825  12.823  10.510  0.00  0.00     0.005 C 
ENDROOT
BRANCH   1   7
HETATM    7  C   UNK N   1      20.435  14.624   8.795  0.00  0.00     0.029 C 
BRANCH   7   8
HETATM    8  C   UNK N   1      20.580  16.139   8.653  0.00  0.00     0.072 C 
HETATM    9  C   UNK N   1      19.231  16.832   8.804  0.00  0.00     0.031 C 
BRANCH   8  10
HETATM   10  N   UNK N   1      21.129  16.425   7.331  0.00  0.00    -0.422 N 
HETATM   11  C   UNK N   1      20.461  15.583   6.351  0.00  0.00     0.140 C 
HETATM   12  H   UNK N   1      21.862  17.104   7.127  0.00  0.00     0.153 HD
ENDBRANCH   8  10
ENDBRANCH   7   8
ENDBRANCH   1   7
TORSDOF 3
ENDMDL
