REMARK  7 active torsions:
REMARK  status: ('A' for Active; 'I' for Inactive)
REMARK    1  A    between atoms: C_5  and  O_6 
REMARK    2  A    between atoms: C_7  and  C_25 
REMARK    3  A    between atoms: C_10  and  C_11 
REMARK    4  A    between atoms: C_11  and  N_14 
REMARK       I    between atoms: N_14  and  C_15 
REMARK    5  A    between atoms: C_15  and  C_17 
REMARK       I    between atoms: C_25  and  N_27 
REMARK    6  A    between atoms: N_27  and  C_28 
REMARK    7  A    between atoms: C_28  and  C_29 
ROOT
HETATM    1  C   UNK N   1      -5.152  -3.013   0.257  0.00  0.00     0.161 C 
HETATM    2  N   UNK N   1      -3.869  -2.323   0.176  0.00  0.00    -0.304 N 
HETATM    3  C   UNK N   1      -3.861  -0.956  -0.031  0.00  0.00     0.284 A 
HETATM    4  O   UNK N   1      -4.911  -0.343  -0.153  0.00  0.00    -0.265 OA
HETATM    5  C   UNK N   1      -2.651  -0.259  -0.081  0.00  0.00     0.167 A 
HETATM    6  C   UNK N   1      -1.456  -0.981   0.050  0.00  0.00     0.141 A 
HETATM    7  N   UNK N   1      -1.513  -2.309   0.272  0.00  0.00    -0.337 N 
ATOM      8  HN  UNK N   1      -0.638  -2.822   0.378  1.00  0.00     0.167 HD
HETATM    9  C   UNK N   1      -2.680  -2.995   0.361  0.00  0.00     0.115 A 
ENDROOT
BRANCH   9  10
HETATM   10  C   UNK N   1      -2.609  -4.451   0.811  0.00  0.00     0.085 C 
HETATM   11  C   UNK N   1      -1.193  -4.773   1.274  0.00  0.00     0.046 C 
HETATM   12  C   UNK N   1      -3.459  -4.641   2.066  0.00  0.00     0.046 C 
BRANCH  10  13
HETATM   13  N   UNK N   1      -2.878  -5.439  -0.223  0.00  0.00    -0.338 N 
HETATM   14  C   UNK N   1      -3.935  -6.289  -0.230  0.00  0.00     0.295 C 
HETATM   15  O   UNK N   1      -5.026  -5.942   0.194  0.00  0.00    -0.264 OA
HETATM   16  H   UNK N   1      -2.243  -5.496  -0.974  0.00  0.00     0.164 HD
BRANCH  14  17
HETATM   17  C   UNK N   1      -3.680  -7.709  -0.480  0.00  0.00     0.233 A 
HETATM   18  N   UNK N   1      -2.460  -8.228  -0.726  0.00  0.00    -0.273 N 
HETATM   19  N   UNK N   1      -2.589  -9.544  -0.661  0.00  0.00    -0.281 N 
ATOM     20  HN  UNK N   1      -1.605  -7.708  -0.923  1.00  0.00     0.189 HD
HETATM   21  C   UNK N   1      -3.879  -9.787  -0.366  0.00  0.00     0.136 A 
ATOM     22  HN  UNK N   1      -1.855 -10.237  -0.805  1.00  0.00     0.189 HD
HETATM   23  C   UNK N   1      -4.449 -11.139  -0.132  0.00  0.00     0.099 C 
HETATM   24  O   UNK N   1      -4.546  -8.666  -0.249  0.00  0.00    -0.274 OA
ENDBRANCH  14  17
ENDBRANCH  10  13
ENDBRANCH   9  10
BRANCH   6  25
HETATM   25  C   UNK N   1      -0.129  -0.351  -0.027  0.00  0.00     0.271 C 
HETATM   26  O   UNK N   1      -0.036   0.865   0.003  0.00  0.00    -0.266 OA
HETATM   27  N   UNK N   1       0.977  -1.153  -0.143  0.00  0.00    -0.351 N 
HETATM   28  H   UNK N   1       0.805  -2.122  -0.142  0.00  0.00     0.163 HD
BRANCH  27  29
HETATM   29  C   UNK N   1       2.377  -0.756  -0.268  0.00  0.00     0.161 C 
BRANCH  29  30
HETATM   30  C   UNK N   1       2.583   0.716  -0.289  0.00  0.00    -0.040 A 
HETATM   31  C   UNK N   1       2.268   1.457  -1.436  0.00  0.00     0.012 A 
HETATM   32  C   UNK N   1       2.288   2.852  -1.387  0.00  0.00     0.043 A 
HETATM   33  C   UNK N   1       2.621   3.503  -0.195  0.00  0.00     0.116 A 
HETATM   34  F   UNK N   1       2.601   4.855  -0.134  0.00  0.00    -0.206 F 
HETATM   35  C   UNK N   1       2.962   2.761   0.940  0.00  0.00     0.043 A 
HETATM   36  C   UNK N   1       2.937   1.367   0.894  0.00  0.00     0.012 A 
ENDBRANCH  29  30
ENDBRANCH  27  29
ENDBRANCH   6  25
BRANCH   5  37
HETATM   37  O   UNK N   1      -2.644   1.075  -0.267  0.00  0.00    -0.354 OA
HETATM   38  H   UNK N   1      -1.838   1.535  -0.396  0.00  0.00     0.218 HD
ENDBRANCH   5  37
TORSDOF 7
