MODEL 1
REMARK VINA RESULT:      -7.7      0.000      0.000
REMARK  3 active torsions:
REMARK  status: ('A' for Active; 'I' for Inactive)
REMARK    1  A    between atoms: C_14  and  O_16 
REMARK    2  A    between atoms: C_22  and  C_23 
REMARK    3  A    between atoms: C_23  and  C_24 
ROOT
HETATM    1  C   UNK N   1      32.062  15.018   7.932  0.00  0.00     0.084 C 
HETATM    2  C   UNK N   1      32.347  16.497   7.948  0.00  0.00     0.149 C 
HETATM    3  C   UNK N   1      33.469  17.031   8.752  0.00  0.00     0.053 C 
HETATM    4  C   UNK N   1      34.390  16.214   9.283  0.00  0.00    -0.065 C 
HETATM    5  C   UNK N   1      34.353  14.709   9.018  0.00  0.00     0.019 C 
HETATM    6  C   UNK N   1      32.872  14.278   9.007  0.00  0.00     0.025 C 
HETATM    7  C   UNK N   1      35.375  16.774  10.264  0.00  0.00     0.036 C 
HETATM    8  C   UNK N   1      35.320  16.039  11.611  0.00  0.00     0.013 C 
HETATM    9  C   UNK N   1      34.882  14.562  11.514  0.00  0.00     0.034 C 
HETATM   10  C   UNK N   1      35.158  13.933  10.121  0.00  0.00     0.144 C 
HETATM   11  C   UNK N   1      35.407  13.712  12.711  0.00  0.00     0.007 C 
HETATM   12  C   UNK N   1      35.922  12.308  12.360  0.00  0.00     0.004 C 
HETATM   13  C   UNK N   1      34.916  11.624  11.450  0.00  0.00     0.048 C 
HETATM   14  C   UNK N   1      34.746  12.414  10.122  0.00  0.00     0.160 C 
HETATM   15  C   UNK N   1      34.944  14.414   7.639  0.00  0.00     0.023 C 
HETATM   16  C   UNK N   1      37.284  12.310  11.625  0.00  0.00     0.019 C 
HETATM   17  F   UNK N   1      36.516  14.076   9.863  0.00  0.00    -0.239 F 
HETATM   18  O   UNK N   1      31.618  17.256   7.341  0.00  0.00    -0.293 OA
HETATM   19  C   UNK N   1      36.488  14.199  13.677  0.00  0.00     0.041 C 
HETATM   20  C   UNK N   1      36.930  12.901  14.421  0.00  0.00     0.168 C 
HETATM   21  C   UNK N   1      36.166  11.748  13.778  0.00  0.00     0.159 C 
HETATM   22  O   UNK N   1      34.991  11.660  14.535  0.00  0.00    -0.334 OA
HETATM   23  O   UNK N   1      36.523  12.931  15.753  0.00  0.00    -0.347 OA
HETATM   24  C   UNK N   1      35.329  12.180  15.807  0.00  0.00     0.159 C 
HETATM   25  C   UNK N   1      34.209  13.079  16.292  0.00  0.00     0.078 C 
HETATM   26  C   UNK N   1      35.505  11.037  16.793  0.00  0.00     0.078 C 
ENDROOT
BRANCH  21  27
HETATM   27  C   UNK N   1      36.860  10.393  13.800  0.00  0.00     0.178 C 
HETATM   28  O   UNK N   1      36.278   9.397  13.402  0.00  0.00    -0.293 OA
BRANCH  27  29
HETATM   29  C   UNK N   1      38.258  10.255  14.331  0.00  0.00     0.196 C 
HETATM   30 Cl   UNK N   1      38.414   8.890  15.470  0.00  0.00    -0.122 Cl
ENDBRANCH  27  29
ENDBRANCH  21  27
BRANCH  14  31
HETATM   31  O   UNK N   1      35.331  11.729   9.056  0.00  0.00    -0.392 OA
HETATM   32  H   UNK N   1      35.335  10.787   8.820  0.00  0.00     0.210 HD
ENDBRANCH  14  31
TORSDOF 3
ENDMDL
MODEL 2
REMARK VINA RESULT:      -7.6     11.745     15.686
REMARK  3 active torsions:
REMARK  status: ('A' for Active; 'I' for Inactive)
REMARK    1  A    between atoms: C_14  and  O_16 
REMARK    2  A    between atoms: C_22  and  C_23 
REMARK    3  A    between atoms: C_23  and  C_24 
ROOT
HETATM    1  C   UNK N   1      24.948  12.277  10.898  0.00  0.00     0.084 C 
HETATM    2  C   UNK N   1      23.849  12.166  11.922  0.00  0.00     0.149 C 
HETATM    3  C   UNK N   1      22.436  12.355  11.522  0.00  0.00     0.053 C 
HETATM    4  C   UNK N   1      22.082  12.389  10.229  0.00  0.00    -0.065 C 
HETATM    5  C   UNK N   1      23.114  12.165   9.125  0.00  0.00     0.019 C 
HETATM    6  C   UNK N   1      24.424  12.846   9.571  0.00  0.00     0.025 C 
HETATM    7  C   UNK N   1      20.685  12.799   9.872  0.00  0.00     0.036 C 
HETATM    8  C   UNK N   1      20.669  14.012   8.931  0.00  0.00     0.013 C 
HETATM    9  C   UNK N   1      21.906  14.124   8.013  0.00  0.00     0.034 C 
HETATM   10  C   UNK N   1      22.606  12.759   7.762  0.00  0.00     0.144 C 
HETATM   11  C   UNK N   1      21.604  14.932   6.714  0.00  0.00     0.007 C 
HETATM   12  C   UNK N   1      22.218  14.374   5.421  0.00  0.00     0.004 C 
HETATM   13  C   UNK N   1      23.678  14.036   5.670  0.00  0.00     0.048 C 
HETATM   14  C   UNK N   1      23.813  12.946   6.770  0.00  0.00     0.160 C 
HETATM   15  C   UNK N   1      23.385  10.668   8.968  0.00  0.00     0.023 C 
HETATM   16  C   UNK N   1      21.527  13.087   4.909  0.00  0.00     0.019 C 
HETATM   17  F   UNK N   1      21.656  11.897   7.229  0.00  0.00    -0.239 F 
HETATM   18  O   UNK N   1      24.129  11.974  13.089  0.00  0.00    -0.293 OA
HETATM   19  C   UNK N   1      20.189  15.282   6.252  0.00  0.00     0.041 C 
HETATM   20  C   UNK N   1      20.385  15.727   4.769  0.00  0.00     0.168 C 
HETATM   21  C   UNK N   1      21.859  15.510   4.440  0.00  0.00     0.159 C 
HETATM   22  O   UNK N   1      22.462  16.728   4.778  0.00  0.00    -0.334 OA
HETATM   23  O   UNK N   1      20.162  17.095   4.629  0.00  0.00    -0.347 OA
HETATM   24  C   UNK N   1      21.438  17.698   4.650  0.00  0.00     0.159 C 
HETATM   25  C   UNK N   1      21.508  18.654   5.823  0.00  0.00     0.078 C 
HETATM   26  C   UNK N   1      21.639  18.481   3.363  0.00  0.00     0.078 C 
ENDROOT
BRANCH  21  27
HETATM   27  C   UNK N   1      22.178  15.199   2.984  0.00  0.00     0.178 C 
HETATM   28  O   UNK N   1      23.337  15.142   2.607  0.00  0.00    -0.293 OA
BRANCH  27  29
HETATM   29  C   UNK N   1      21.077  14.981   1.987  0.00  0.00     0.196 C 
HETATM   30 Cl   UNK N   1      21.545  13.825   0.709  0.00  0.00    -0.122 Cl
ENDBRANCH  27  29
ENDBRANCH  21  27
BRANCH  14  31
HETATM   31  O   UNK N   1      24.207  11.726   6.217  0.00  0.00    -0.392 OA
HETATM   32  H   UNK N   1      25.041  11.232   6.277  0.00  0.00     0.210 HD
ENDBRANCH  14  31
TORSDOF 3
ENDMDL
MODEL 3
REMARK VINA RESULT:      -7.4     18.254     21.982
REMARK  3 active torsions:
REMARK  status: ('A' for Active; 'I' for Inactive)
REMARK    1  A    between atoms: C_14  and  O_16 
REMARK    2  A    between atoms: C_22  and  C_23 
REMARK    3  A    between atoms: C_23  and  C_24 
ROOT
HETATM    1  C   UNK N   1      34.274  22.061  -5.585  0.00  0.00     0.084 C 
HETATM    2  C   UNK N   1      34.399  21.314  -4.283  0.00  0.00     0.149 C 
HETATM    3  C   UNK N   1      33.207  21.095  -3.432  0.00  0.00     0.053 C 
HETATM    4  C   UNK N   1      31.972  21.338  -3.897  0.00  0.00    -0.065 C 
HETATM    5  C   UNK N   1      31.748  21.780  -5.342  0.00  0.00     0.019 C 
HETATM    6  C   UNK N   1      32.900  22.734  -5.718  0.00  0.00     0.025 C 
HETATM    7  C   UNK N   1      30.821  21.312  -2.938  0.00  0.00     0.036 C 
HETATM    8  C   UNK N   1      30.054  22.643  -2.931  0.00  0.00     0.013 C 
HETATM    9  C   UNK N   1      30.099  23.411  -4.269  0.00  0.00     0.034 C 
HETATM   10  C   UNK N   1      30.355  22.490  -5.494  0.00  0.00     0.144 C 
HETATM   11  C   UNK N   1      28.881  24.370  -4.439  0.00  0.00     0.007 C 
HETATM   12  C   UNK N   1      28.254  24.415  -5.840  0.00  0.00     0.004 C 
HETATM   13  C   UNK N   1      29.359  24.554  -6.874  0.00  0.00     0.048 C 
HETATM   14  C   UNK N   1      30.321  23.335  -6.822  0.00  0.00     0.160 C 
HETATM   15  C   UNK N   1      31.815  20.566  -6.270  0.00  0.00     0.023 C 
HETATM   16  C   UNK N   1      27.442  23.147  -6.200  0.00  0.00     0.019 C 
HETATM   17  F   UNK N   1      29.360  21.520  -5.499  0.00  0.00    -0.239 F 
HETATM   18  O   UNK N   1      35.491  20.937  -3.907  0.00  0.00    -0.293 OA
HETATM   19  C   UNK N   1      27.637  24.313  -3.551  0.00  0.00     0.041 C 
HETATM   20  C   UNK N   1      26.588  25.165  -4.332  0.00  0.00     0.168 C 
HETATM   21  C   UNK N   1      27.245  25.568  -5.648  0.00  0.00     0.159 C 
HETATM   22  O   UNK N   1      27.867  26.788  -5.354  0.00  0.00    -0.334 OA
HETATM   23  O   UNK N   1      26.320  26.356  -3.661  0.00  0.00    -0.347 OA
HETATM   24  C   UNK N   1      27.119  27.338  -4.286  0.00  0.00     0.159 C 
HETATM   25  C   UNK N   1      28.069  27.921  -3.260  0.00  0.00     0.078 C 
HETATM   26  C   UNK N   1      26.221  28.446  -4.812  0.00  0.00     0.078 C 
ENDROOT
BRANCH  21  27
HETATM   27  C   UNK N   1      26.305  25.774  -6.827  0.00  0.00     0.178 C 
HETATM   28  O   UNK N   1      25.187  25.283  -6.816  0.00  0.00    -0.293 OA
BRANCH  27  29
HETATM   29  C   UNK N   1      26.741  26.562  -8.029  0.00  0.00     0.196 C 
HETATM   30 Cl   UNK N   1      25.777  26.168  -9.478  0.00  0.00    -0.122 Cl
ENDBRANCH  27  29
ENDBRANCH  21  27
BRANCH  14  31
HETATM   31  O   UNK N   1      30.149  22.516  -7.939  0.00  0.00    -0.392 OA
HETATM   32  H   UNK N   1      29.578  21.746  -8.091  0.00  0.00     0.210 HD
ENDBRANCH  14  31
TORSDOF 3
ENDMDL
MODEL 4
REMARK VINA RESULT:      -7.4      3.411      8.276
REMARK  3 active torsions:
REMARK  status: ('A' for Active; 'I' for Inactive)
REMARK    1  A    between atoms: C_14  and  O_16 
REMARK    2  A    between atoms: C_22  and  C_23 
REMARK    3  A    between atoms: C_23  and  C_24 
ROOT
HETATM    1  C   UNK N   1      35.676  11.478  12.491  0.00  0.00     0.084 C 
HETATM    2  C   UNK N   1      37.177  11.394  12.400  0.00  0.00     0.149 C 
HETATM    3  C   UNK N   1      37.911  12.223  11.417  0.00  0.00     0.053 C 
HETATM    4  C   UNK N   1      37.301  13.223  10.764  0.00  0.00    -0.065 C 
HETATM    5  C   UNK N   1      35.848  13.587  11.063  0.00  0.00     0.019 C 
HETATM    6  C   UNK N   1      35.084  12.271  11.317  0.00  0.00     0.025 C 
HETATM    7  C   UNK N   1      38.018  13.889   9.628  0.00  0.00     0.036 C 
HETATM    8  C   UNK N   1      37.213  13.812   8.322  0.00  0.00     0.013 C 
HETATM    9  C   UNK N   1      35.683  13.759   8.519  0.00  0.00     0.034 C 
HETATM   10  C   UNK N   1      35.217  14.382   9.864  0.00  0.00     0.144 C 
HETATM   11  C   UNK N   1      34.911  14.289   7.272  0.00  0.00     0.007 C 
HETATM   12  C   UNK N   1      33.688  15.171   7.566  0.00  0.00     0.004 C 
HETATM   13  C   UNK N   1      32.842  14.505   8.639  0.00  0.00     0.048 C 
HETATM   14  C   UNK N   1      33.647  14.350   9.959  0.00  0.00     0.160 C 
HETATM   15  C   UNK N   1      35.779  14.431  12.337  0.00  0.00     0.023 C 
HETATM   16  C   UNK N   1      34.050  16.587   8.077  0.00  0.00     0.019 C 
HETATM   17  F   UNK N   1      35.689  15.689   9.901  0.00  0.00    -0.239 F 
HETATM   18  O   UNK N   1      37.780  10.603  13.097  0.00  0.00    -0.293 OA
HETATM   19  C   UNK N   1      35.579  15.066   6.137  0.00  0.00     0.041 C 
HETATM   20  C   UNK N   1      34.379  15.690   5.360  0.00  0.00     0.168 C 
HETATM   21  C   UNK N   1      33.119  15.328   6.140  0.00  0.00     0.159 C 
HETATM   22  O   UNK N   1      32.715  14.110   5.581  0.00  0.00    -0.334 OA
HETATM   23  O   UNK N   1      34.235  15.094   4.109  0.00  0.00    -0.347 OA
HETATM   24  C   UNK N   1      33.225  14.120   4.261  0.00  0.00     0.159 C 
HETATM   25  C   UNK N   1      33.808  12.758   3.940  0.00  0.00     0.078 C 
HETATM   26  C   UNK N   1      32.099  14.416   3.283  0.00  0.00     0.078 C 
ENDROOT
BRANCH  21  27
HETATM   27  C   UNK N   1      31.964  16.315   6.037  0.00  0.00     0.178 C 
HETATM   28  O   UNK N   1      32.127  17.398   5.498  0.00  0.00    -0.293 OA
BRANCH  27  29
HETATM   29  C   UNK N   1      30.618  15.985   6.614  0.00  0.00     0.196 C 
HETATM   30 Cl   UNK N   1      30.197  17.042   7.990  0.00  0.00    -0.122 Cl
ENDBRANCH  27  29
ENDBRANCH  21  27
BRANCH  14  31
HETATM   31  O   UNK N   1      33.180  15.234  10.934  0.00  0.00    -0.392 OA
HETATM   32  H   UNK N   1      32.391  15.212  11.499  0.00  0.00     0.210 HD
ENDBRANCH  14  31
TORSDOF 3
ENDMDL
MODEL 5
REMARK VINA RESULT:      -7.1      8.021     11.694
REMARK  3 active torsions:
REMARK  status: ('A' for Active; 'I' for Inactive)
REMARK    1  A    between atoms: C_14  and  O_16 
REMARK    2  A    between atoms: C_22  and  C_23 
REMARK    3  A    between atoms: C_23  and  C_24 
ROOT
HETATM    1  C   UNK N   1      33.127  17.451   6.729  0.00  0.00     0.084 C 
HETATM    2  C   UNK N   1      33.938  16.225   6.400  0.00  0.00     0.149 C 
HETATM    3  C   UNK N   1      33.335  15.120   5.620  0.00  0.00     0.053 C 
HETATM    4  C   UNK N   1      32.159  15.277   4.994  0.00  0.00    -0.065 C 
HETATM    5  C   UNK N   1      31.436  16.623   5.004  0.00  0.00     0.019 C 
HETATM    6  C   UNK N   1      31.641  17.247   6.399  0.00  0.00     0.025 C 
HETATM    7  C   UNK N   1      31.488  14.074   4.405  0.00  0.00     0.036 C 
HETATM    8  C   UNK N   1      30.078  13.869   4.979  0.00  0.00     0.013 C 
HETATM    9  C   UNK N   1      29.375  15.171   5.422  0.00  0.00     0.034 C 
HETATM   10  C   UNK N   1      29.908  16.433   4.690  0.00  0.00     0.144 C 
HETATM   11  C   UNK N   1      27.822  15.036   5.406  0.00  0.00     0.007 C 
HETATM   12  C   UNK N   1      27.049  16.249   4.866  0.00  0.00     0.004 C 
HETATM   13  C   UNK N   1      27.600  17.512   5.506  0.00  0.00     0.048 C 
HETATM   14  C   UNK N   1      29.100  17.704   5.147  0.00  0.00     0.160 C 
HETATM   15  C   UNK N   1      32.066  17.555   3.969  0.00  0.00     0.023 C 
HETATM   16  C   UNK N   1      27.157  16.423   3.332  0.00  0.00     0.019 C 
HETATM   17  F   UNK N   1      29.759  16.216   3.326  0.00  0.00    -0.239 F 
HETATM   18  O   UNK N   1      35.072  16.122   6.822  0.00  0.00    -0.293 OA
HETATM   19  C   UNK N   1      27.086  13.880   4.726  0.00  0.00     0.041 C 
HETATM   20  C   UNK N   1      25.609  14.380   4.645  0.00  0.00     0.168 C 
HETATM   21  C   UNK N   1      25.603  15.809   5.179  0.00  0.00     0.159 C 
HETATM   22  O   UNK N   1      25.368  15.655   6.551  0.00  0.00    -0.334 OA
HETATM   23  O   UNK N   1      24.792  13.650   5.504  0.00  0.00    -0.347 OA
HETATM   24  C   UNK N   1      24.664  14.433   6.672  0.00  0.00     0.159 C 
HETATM   25  C   UNK N   1      25.216  13.652   7.847  0.00  0.00     0.078 C 
HETATM   26  C   UNK N   1      23.191  14.719   6.919  0.00  0.00     0.078 C 
ENDROOT
BRANCH  21  27
HETATM   27  C   UNK N   1      24.535  16.731   4.605  0.00  0.00     0.178 C 
HETATM   28  O   UNK N   1      23.775  16.327   3.740  0.00  0.00    -0.293 OA
BRANCH  27  29
HETATM   29  C   UNK N   1      24.414  18.152   5.075  0.00  0.00     0.196 C 
HETATM   30 Cl   UNK N   1      24.871  19.321   3.806  0.00  0.00    -0.122 Cl
ENDBRANCH  27  29
ENDBRANCH  21  27
BRANCH  14  31
HETATM   31  O   UNK N   1      29.267  18.760   4.249  0.00  0.00    -0.392 OA
HETATM   32  H   UNK N   1      29.216  19.722   4.369  0.00  0.00     0.210 HD
ENDBRANCH  14  31
TORSDOF 3
ENDMDL
MODEL 6
REMARK VINA RESULT:      -6.9      7.046     10.602
REMARK  3 active torsions:
REMARK  status: ('A' for Active; 'I' for Inactive)
REMARK    1  A    between atoms: C_14  and  O_16 
REMARK    2  A    between atoms: C_22  and  C_23 
REMARK    3  A    between atoms: C_23  and  C_24 
ROOT
HETATM    1  C   UNK N   1      23.253  16.439   5.608  0.00  0.00     0.084 C 
HETATM    2  C   UNK N   1      22.935  17.859   5.218  0.00  0.00     0.149 C 
HETATM    3  C   UNK N   1      23.981  18.720   4.620  0.00  0.00     0.053 C 
HETATM    4  C   UNK N   1      25.143  18.202   4.197  0.00  0.00    -0.065 C 
HETATM    5  C   UNK N   1      25.401  16.697   4.252  0.00  0.00     0.019 C 
HETATM    6  C   UNK N   1      24.764  16.166   5.552  0.00  0.00     0.025 C 
HETATM    7  C   UNK N   1      26.249  19.135   3.805  0.00  0.00     0.036 C 
HETATM    8  C   UNK N   1      27.525  18.884   4.623  0.00  0.00     0.013 C 
HETATM    9  C   UNK N   1      27.698  17.427   5.103  0.00  0.00     0.034 C 
HETATM   10  C   UNK N   1      26.943  16.398   4.217  0.00  0.00     0.144 C 
HETATM   11  C   UNK N   1      29.193  17.067   5.362  0.00  0.00     0.007 C 
HETATM   12  C   UNK N   1      29.637  15.673   4.893  0.00  0.00     0.004 C 
HETATM   13  C   UNK N   1      28.616  14.646   5.352  0.00  0.00     0.048 C 
HETATM   14  C   UNK N   1      27.222  14.936   4.730  0.00  0.00     0.160 C 
HETATM   15  C   UNK N   1      24.713  16.013   3.070  0.00  0.00     0.023 C 
HETATM   16  C   UNK N   1      29.762  15.545   3.355  0.00  0.00     0.019 C 
HETATM   17  F   UNK N   1      27.397  16.560   2.914  0.00  0.00    -0.239 F 
HETATM   18  O   UNK N   1      21.831  18.312   5.445  0.00  0.00    -0.293 OA
HETATM   19  C   UNK N   1      30.360  17.933   4.888  0.00  0.00     0.041 C 
HETATM   20  C   UNK N   1      31.599  16.994   5.033  0.00  0.00     0.168 C 
HETATM   21  C   UNK N   1      31.066  15.635   5.475  0.00  0.00     0.159 C 
HETATM   22  O   UNK N   1      31.084  15.705   6.873  0.00  0.00    -0.334 OA
HETATM   23  O   UNK N   1      32.431  17.429   6.062  0.00  0.00    -0.347 OA
HETATM   24  C   UNK N   1      32.097  16.642   7.186  0.00  0.00     0.159 C 
HETATM   25  C   UNK N   1      31.608  17.555   8.293  0.00  0.00     0.078 C 
HETATM   26  C   UNK N   1      33.338  15.908   7.665  0.00  0.00     0.078 C 
ENDROOT
BRANCH  21  27
HETATM   27  C   UNK N   1      31.883  14.426   5.040  0.00  0.00     0.178 C 
HETATM   28  O   UNK N   1      31.730  13.349   5.593  0.00  0.00    -0.293 OA
BRANCH  27  29
HETATM   29  C   UNK N   1      32.902  14.542   3.943  0.00  0.00     0.196 C 
HETATM   30 Cl   UNK N   1      34.570  14.580   4.575  0.00  0.00    -0.122 Cl
ENDBRANCH  27  29
ENDBRANCH  21  27
BRANCH  14  31
HETATM   31  O   UNK N   1      26.904  13.988   3.755  0.00  0.00    -0.392 OA
HETATM   32  H   UNK N   1      27.462  13.483   3.142  0.00  0.00     0.210 HD
ENDBRANCH  14  31
TORSDOF 3
ENDMDL
MODEL 7
REMARK VINA RESULT:      -6.8      3.978      8.236
REMARK  3 active torsions:
REMARK  status: ('A' for Active; 'I' for Inactive)
REMARK    1  A    between atoms: C_14  and  O_16 
REMARK    2  A    between atoms: C_22  and  C_23 
REMARK    3  A    between atoms: C_23  and  C_24 
ROOT
HETATM    1  C   UNK N   1      36.030  10.372  10.217  0.00  0.00     0.084 C 
HETATM    2  C   UNK N   1      37.316  10.270   9.439  0.00  0.00     0.149 C 
HETATM    3  C   UNK N   1      37.782  11.408   8.615  0.00  0.00     0.053 C 
HETATM    4  C   UNK N   1      37.214  12.618   8.725  0.00  0.00    -0.065 C 
HETATM    5  C   UNK N   1      36.115  12.881   9.754  0.00  0.00     0.019 C 
HETATM    6  C   UNK N   1      35.230  11.620   9.818  0.00  0.00     0.025 C 
HETATM    7  C   UNK N   1      37.567  13.676   7.724  0.00  0.00     0.036 C 
HETATM    8  C   UNK N   1      36.325  14.206   6.992  0.00  0.00     0.013 C 
HETATM    9  C   UNK N   1      35.022  14.142   7.818  0.00  0.00     0.034 C 
HETATM   10  C   UNK N   1      35.270  14.144   9.352  0.00  0.00     0.144 C 
HETATM   11  C   UNK N   1      33.971  15.192   7.343  0.00  0.00     0.007 C 
HETATM   12  C   UNK N   1      33.196  15.914   8.456  0.00  0.00     0.004 C 
HETATM   13  C   UNK N   1      32.703  14.888   9.463  0.00  0.00     0.048 C 
HETATM   14  C   UNK N   1      33.897  14.143  10.121  0.00  0.00     0.160 C 
HETATM   15  C   UNK N   1      36.740  13.094  11.134  0.00  0.00     0.023 C 
HETATM   16  C   UNK N   1      34.042  16.953   9.231  0.00  0.00     0.019 C 
HETATM   17  F   UNK N   1      36.005  15.284   9.652  0.00  0.00    -0.239 F 
HETATM   18  O   UNK N   1      37.944   9.229   9.447  0.00  0.00    -0.293 OA
HETATM   19  C   UNK N   1      34.308  16.352   6.406  0.00  0.00     0.041 C 
HETATM   20  C   UNK N   1      33.078  17.303   6.540  0.00  0.00     0.168 C 
HETATM   21  C   UNK N   1      32.172  16.696   7.606  0.00  0.00     0.159 C 
HETATM   22  O   UNK N   1      31.315  15.858   6.882  0.00  0.00    -0.334 OA
HETATM   23  O   UNK N   1      32.329  17.313   5.366  0.00  0.00    -0.347 OA
HETATM   24  C   UNK N   1      31.262  16.414   5.582  0.00  0.00     0.159 C 
HETATM   25  C   UNK N   1      31.346  15.300   4.558  0.00  0.00     0.078 C 
HETATM   26  C   UNK N   1      29.946  17.153   5.399  0.00  0.00     0.078 C 
ENDROOT
BRANCH  21  27
HETATM   27  C   UNK N   1      31.327  17.681   8.403  0.00  0.00     0.178 C 
HETATM   28  O   UNK N   1      31.666  18.850   8.493  0.00  0.00    -0.293 OA
BRANCH  27  29
HETATM   29  C   UNK N   1      30.080  17.229   9.107  0.00  0.00     0.196 C 
HETATM   30 Cl   UNK N   1      28.979  18.588   9.464  0.00  0.00    -0.122 Cl
ENDBRANCH  27  29
ENDBRANCH  21  27
BRANCH  14  31
HETATM   31  O   UNK N   1      34.061  14.539  11.450  0.00  0.00    -0.392 OA
HETATM   32  H   UNK N   1      33.518  15.102  12.025  0.00  0.00     0.210 HD
ENDBRANCH  14  31
TORSDOF 3
ENDMDL
MODEL 8
REMARK VINA RESULT:      -6.6      2.692      3.886
REMARK  3 active torsions:
REMARK  status: ('A' for Active; 'I' for Inactive)
REMARK    1  A    between atoms: C_14  and  O_16 
REMARK    2  A    between atoms: C_22  and  C_23 
REMARK    3  A    between atoms: C_23  and  C_24 
ROOT
HETATM    1  C   UNK N   1      30.345  15.711   6.193  0.00  0.00     0.084 C 
HETATM    2  C   UNK N   1      30.217  17.146   6.634  0.00  0.00     0.149 C 
HETATM    3  C   UNK N   1      31.333  17.809   7.346  0.00  0.00     0.053 C 
HETATM    4  C   UNK N   1      32.548  17.245   7.403  0.00  0.00    -0.065 C 
HETATM    5  C   UNK N   1      32.842  15.933   6.677  0.00  0.00     0.019 C 
HETATM    6  C   UNK N   1      31.588  15.045   6.802  0.00  0.00     0.025 C 
HETATM    7  C   UNK N   1      33.580  17.842   8.313  0.00  0.00     0.036 C 
HETATM    8  C   UNK N   1      34.099  16.820   9.335  0.00  0.00     0.013 C 
HETATM    9  C   UNK N   1      34.062  15.355   8.847  0.00  0.00     0.034 C 
HETATM   10  C   UNK N   1      34.099  15.225   7.300  0.00  0.00     0.144 C 
HETATM   11  C   UNK N   1      35.105  14.462   9.585  0.00  0.00     0.007 C 
HETATM   12  C   UNK N   1      35.858  13.449   8.710  0.00  0.00     0.004 C 
HETATM   13  C   UNK N   1      34.860  12.716   7.830  0.00  0.00     0.048 C 
HETATM   14  C   UNK N   1      34.124  13.707   6.886  0.00  0.00     0.160 C 
HETATM   15  C   UNK N   1      33.085  16.209   5.192  0.00  0.00     0.023 C 
HETATM   16  C   UNK N   1      36.911  14.094   7.776  0.00  0.00     0.019 C 
HETATM   17  F   UNK N   1      35.242  15.878   6.855  0.00  0.00    -0.239 F 
HETATM   18  O   UNK N   1      29.174  17.741   6.453  0.00  0.00    -0.293 OA
HETATM   19  C   UNK N   1      36.241  15.028  10.439  0.00  0.00     0.041 C 
HETATM   20  C   UNK N   1      37.202  13.813  10.627  0.00  0.00     0.168 C 
HETATM   21  C   UNK N   1      36.626  12.669   9.799  0.00  0.00     0.159 C 
HETATM   22  O   UNK N   1      35.775  12.003  10.690  0.00  0.00    -0.334 OA
HETATM   23  O   UNK N   1      37.187  13.370  11.948  0.00  0.00    -0.347 OA
HETATM   24  C   UNK N   1      36.300  12.272  11.976  0.00  0.00     0.159 C 
HETATM   25  C   UNK N   1      35.161  12.589  12.924  0.00  0.00     0.078 C 
HETATM   26  C   UNK N   1      37.041  11.048  12.488  0.00  0.00     0.078 C 
ENDROOT
BRANCH  21  27
HETATM   27  C   UNK N   1      37.634  11.668   9.252  0.00  0.00     0.178 C 
HETATM   28  O   UNK N   1      37.252  10.665   8.672  0.00  0.00    -0.293 OA
BRANCH  27  29
HETATM   29  C   UNK N   1      39.108  11.884   9.438  0.00  0.00     0.196 C 
HETATM   30 Cl   UNK N   1      39.936  12.243   7.897  0.00  0.00    -0.122 Cl
ENDBRANCH  27  29
ENDBRANCH  21  27
BRANCH  14  31
HETATM   31  O   UNK N   1      34.551  13.549   5.566  0.00  0.00    -0.392 OA
HETATM   32  H   UNK N   1      34.076  13.619   4.722  0.00  0.00     0.210 HD
ENDBRANCH  14  31
TORSDOF 3
ENDMDL
MODEL 9
REMARK VINA RESULT:      -6.6      5.835     10.859
REMARK  3 active torsions:
REMARK  status: ('A' for Active; 'I' for Inactive)
REMARK    1  A    between atoms: C_14  and  O_16 
REMARK    2  A    between atoms: C_22  and  C_23 
REMARK    3  A    between atoms: C_23  and  C_24 
ROOT
HETATM    1  C   UNK N   1      33.517  13.402   9.039  0.00  0.00     0.084 C 
HETATM    2  C   UNK N   1      33.954  12.283   8.130  0.00  0.00     0.149 C 
HETATM    3  C   UNK N   1      33.594  12.306   6.694  0.00  0.00     0.053 C 
HETATM    4  C   UNK N   1      33.091  13.412   6.126  0.00  0.00    -0.065 C 
HETATM    5  C   UNK N   1      32.938  14.707   6.922  0.00  0.00     0.019 C 
HETATM    6  C   UNK N   1      32.499  14.322   8.350  0.00  0.00     0.025 C 
HETATM    7  C   UNK N   1      32.542  13.324   4.734  0.00  0.00     0.036 C 
HETATM    8  C   UNK N   1      31.073  13.768   4.671  0.00  0.00     0.013 C 
HETATM    9  C   UNK N   1      30.678  14.817   5.734  0.00  0.00     0.034 C 
HETATM   10  C   UNK N   1      31.884  15.654   6.244  0.00  0.00     0.144 C 
HETATM   11  C   UNK N   1      29.453  15.672   5.290  0.00  0.00     0.007 C 
HETATM   12  C   UNK N   1      29.532  17.173   5.612  0.00  0.00     0.004 C 
HETATM   13  C   UNK N   1      29.979  17.348   7.053  0.00  0.00     0.048 C 
HETATM   14  C   UNK N   1      31.392  16.739   7.272  0.00  0.00     0.160 C 
HETATM   15  C   UNK N   1      34.289  15.418   7.016  0.00  0.00     0.023 C 
HETATM   16  C   UNK N   1      30.532  17.948   4.721  0.00  0.00     0.019 C 
HETATM   17  F   UNK N   1      32.472  16.252   5.136  0.00  0.00    -0.239 F 
HETATM   18  O   UNK N   1      34.555  11.333   8.590  0.00  0.00    -0.293 OA
HETATM   19  C   UNK N   1      28.920  15.697   3.857  0.00  0.00     0.041 C 
HETATM   20  C   UNK N   1      27.983  16.944   3.834  0.00  0.00     0.168 C 
HETATM   21  C   UNK N   1      28.111  17.612   5.199  0.00  0.00     0.159 C 
HETATM   22  O   UNK N   1      27.111  17.003   5.967  0.00  0.00    -0.334 OA
HETATM   23  O   UNK N   1      26.649  16.559   3.722  0.00  0.00    -0.347 OA
HETATM   24  C   UNK N   1      26.130  16.585   5.036  0.00  0.00     0.159 C 
HETATM   25  C   UNK N   1      25.656  15.193   5.401  0.00  0.00     0.078 C 
HETATM   26  C   UNK N   1      24.946  17.538   5.083  0.00  0.00     0.078 C 
ENDROOT
BRANCH  21  27
HETATM   27  C   UNK N   1      27.894  19.119   5.227  0.00  0.00     0.178 C 
HETATM   28  O   UNK N   1      27.813  19.748   4.185  0.00  0.00    -0.293 OA
BRANCH  27  29
HETATM   29  C   UNK N   1      27.798  19.857   6.532  0.00  0.00     0.196 C 
HETATM   30 Cl   UNK N   1      26.617  21.193   6.465  0.00  0.00    -0.122 Cl
ENDBRANCH  27  29
ENDBRANCH  21  27
BRANCH  14  31
HETATM   31  O   UNK N   1      32.346  17.743   7.444  0.00  0.00    -0.392 OA
HETATM   32  H   UNK N   1      32.405  18.473   8.082  0.00  0.00     0.210 HD
ENDBRANCH  14  31
TORSDOF 3
ENDMDL
