MODEL 1
REMARK VINA RESULT:      -7.3      0.000      0.000
REMARK  0 active torsions:
REMARK  status: ('A' for Active; 'I' for Inactive)
ROOT
HETATM    1  N   UNK N   1      35.345  12.529  15.422  0.00  0.00    -0.368 N 
HETATM    2  N   UNK N   1      34.858  10.145  13.980  0.00  0.00     0.088 N 
HETATM    3  C   UNK N   1      34.921  11.336  16.180  0.00  0.00     0.146 C 
HETATM    4  C   UNK N   1      35.304  10.073  15.367  0.00  0.00     0.301 C 
HETATM    5  C   UNK N   1      35.006  12.552  14.011  0.00  0.00     0.154 C 
HETATM    6  C   UNK N   1      35.405  11.158  17.628  0.00  0.00    -0.027 A 
HETATM    7  C   UNK N   1      35.503  11.285  13.345  0.00  0.00     0.291 C 
HETATM    8  C   UNK N   1      36.004  13.693  15.948  0.00  0.00     0.037 A 
HETATM    9  C   UNK N   1      35.317  12.186  18.581  0.00  0.00    -0.045 A 
HETATM   10  C   UNK N   1      34.842  13.528  18.203  0.00  0.00     0.080 C 
HETATM   11  C   UNK N   1      35.801  14.170  17.266  0.00  0.00    -0.027 A 
HETATM   12  C   UNK N   1      35.361   8.957  13.315  0.00  0.00     0.310 C 
HETATM   13  C   UNK N   1      35.873   9.897  18.060  0.00  0.00     0.010 A 
HETATM   14  C   UNK N   1      36.812  14.457  15.081  0.00  0.00     0.030 A 
HETATM   15  C   UNK N   1      35.687  11.960  19.912  0.00  0.00     0.008 A 
HETATM   16  C   UNK N   1      36.433  15.347  17.688  0.00  0.00     0.010 A 
HETATM   17  C   UNK N   1      36.239   9.672  19.388  0.00  0.00     0.001 A 
HETATM   18  C   UNK N   1      36.144  10.705  20.317  0.00  0.00     0.001 A 
HETATM   19  C   UNK N   1      37.441  15.623  15.514  0.00  0.00     0.002 A 
HETATM   20  C   UNK N   1      37.261  16.062  16.822  0.00  0.00     0.001 A 
ENDROOT
TORSDOF 0
ENDMDL
MODEL 2
REMARK VINA RESULT:      -7.1     11.812     13.984
REMARK  0 active torsions:
REMARK  status: ('A' for Active; 'I' for Inactive)
ROOT
HETATM    1  N   UNK N   1      28.134  17.072   4.986  0.00  0.00    -0.368 N 
HETATM    2  N   UNK N   1      29.056  14.754   3.654  0.00  0.00     0.088 N 
HETATM    3  C   UNK N   1      29.117  16.218   5.682  0.00  0.00     0.146 C 
HETATM    4  C   UNK N   1      29.920  15.424   4.620  0.00  0.00     0.301 C 
HETATM    5  C   UNK N   1      27.354  16.438   3.939  0.00  0.00     0.154 C 
HETATM    6  C   UNK N   1      30.103  16.863   6.669  0.00  0.00    -0.027 A 
HETATM    7  C   UNK N   1      28.280  15.764   2.948  0.00  0.00     0.291 C 
HETATM    8  C   UNK N   1      27.830  18.446   5.278  0.00  0.00     0.037 A 
HETATM    9  C   UNK N   1      29.687  17.752   7.674  0.00  0.00    -0.045 A 
HETATM   10  C   UNK N   1      28.283  18.185   7.765  0.00  0.00     0.080 C 
HETATM   11  C   UNK N   1      27.916  19.000   6.578  0.00  0.00    -0.027 A 
HETATM   12  C   UNK N   1      29.928  14.136   2.671  0.00  0.00     0.310 C 
HETATM   13  C   UNK N   1      31.467  16.493   6.638  0.00  0.00     0.010 A 
HETATM   14  C   UNK N   1      27.324  19.257   4.241  0.00  0.00     0.030 A 
HETATM   15  C   UNK N   1      30.603  18.251   8.609  0.00  0.00     0.008 A 
HETATM   16  C   UNK N   1      27.545  20.334   6.795  0.00  0.00     0.010 A 
HETATM   17  C   UNK N   1      32.377  16.990   7.572  0.00  0.00     0.001 A 
HETATM   18  C   UNK N   1      31.944  17.869   8.561  0.00  0.00     0.001 A 
HETATM   19  C   UNK N   1      26.963  20.584   4.468  0.00  0.00     0.002 A 
HETATM   20  C   UNK N   1      27.086  21.127   5.743  0.00  0.00     0.001 A 
ENDROOT
TORSDOF 0
ENDMDL
MODEL 3
REMARK VINA RESULT:      -7.0     23.971     26.625
REMARK  0 active torsions:
REMARK  status: ('A' for Active; 'I' for Inactive)
ROOT
HETATM    1  N   UNK N   1      26.947  24.395  -6.214  0.00  0.00    -0.368 N 
HETATM    2  N   UNK N   1      26.644  26.633  -4.511  0.00  0.00     0.088 N 
HETATM    3  C   UNK N   1      28.021  24.674  -5.240  0.00  0.00     0.146 C 
HETATM    4  C   UNK N   1      27.419  25.482  -4.061  0.00  0.00     0.301 C 
HETATM    5  C   UNK N   1      26.096  25.513  -6.575  0.00  0.00     0.154 C 
HETATM    6  C   UNK N   1      28.839  23.504  -4.672  0.00  0.00    -0.027 A 
HETATM    7  C   UNK N   1      25.534  26.154  -5.323  0.00  0.00     0.291 C 
HETATM    8  C   UNK N   1      26.697  23.148  -6.883  0.00  0.00     0.037 A 
HETATM    9  C   UNK N   1      29.406  22.515  -5.494  0.00  0.00    -0.045 A 
HETATM   10  C   UNK N   1      29.155  22.504  -6.945  0.00  0.00     0.080 C 
HETATM   11  C   UNK N   1      27.719  22.228  -7.217  0.00  0.00    -0.027 A 
HETATM   12  C   UNK N   1      26.064  27.236  -3.325  0.00  0.00     0.310 C 
HETATM   13  C   UNK N   1      29.120  23.452  -3.288  0.00  0.00     0.010 A 
HETATM   14  C   UNK N   1      25.384  22.872  -7.321  0.00  0.00     0.030 A 
HETATM   15  C   UNK N   1      30.219  21.513  -4.948  0.00  0.00     0.008 A 
HETATM   16  C   UNK N   1      27.405  21.060  -7.924  0.00  0.00     0.010 A 
HETATM   17  C   UNK N   1      29.932  22.454  -2.747  0.00  0.00     0.001 A 
HETATM   18  C   UNK N   1      30.485  21.484  -3.579  0.00  0.00     0.001 A 
HETATM   19  C   UNK N   1      25.083  21.703  -8.018  0.00  0.00     0.002 A 
HETATM   20  C   UNK N   1      26.091  20.790  -8.310  0.00  0.00     0.001 A 
ENDROOT
TORSDOF 0
ENDMDL
MODEL 4
REMARK VINA RESULT:      -6.9      2.231      3.799
REMARK  0 active torsions:
REMARK  status: ('A' for Active; 'I' for Inactive)
ROOT
HETATM    1  N   UNK N   1      35.804  12.088  14.879  0.00  0.00    -0.368 N 
HETATM    2  N   UNK N   1      36.644  12.551  12.218  0.00  0.00     0.088 N 
HETATM    3  C   UNK N   1      36.475  10.984  14.162  0.00  0.00     0.146 C 
HETATM    4  C   UNK N   1      37.364  11.591  13.046  0.00  0.00     0.301 C 
HETATM    5  C   UNK N   1      35.187  13.111  14.056  0.00  0.00     0.154 C 
HETATM    6  C   UNK N   1      37.306   9.968  14.961  0.00  0.00    -0.027 A 
HETATM    7  C   UNK N   1      36.198  13.649  13.064  0.00  0.00     0.291 C 
HETATM    8  C   UNK N   1      35.650  12.219  16.301  0.00  0.00     0.037 A 
HETATM    9  C   UNK N   1      36.816   9.342  16.119  0.00  0.00    -0.045 A 
HETATM   10  C   UNK N   1      35.504   9.710  16.679  0.00  0.00     0.080 C 
HETATM   11  C   UNK N   1      35.530  11.111  17.174  0.00  0.00    -0.027 A 
HETATM   12  C   UNK N   1      37.608  13.108  11.286  0.00  0.00     0.310 C 
HETATM   13  C   UNK N   1      38.573   9.569  14.481  0.00  0.00     0.010 A 
HETATM   14  C   UNK N   1      35.506  13.513  16.845  0.00  0.00     0.030 A 
HETATM   15  C   UNK N   1      37.568   8.357  16.771  0.00  0.00     0.008 A 
HETATM   16  C   UNK N   1      35.321  11.320  18.544  0.00  0.00     0.010 A 
HETATM   17  C   UNK N   1      39.321   8.585  15.130  0.00  0.00     0.001 A 
HETATM   18  C   UNK N   1      38.816   7.976  16.276  0.00  0.00     0.001 A 
HETATM   19  C   UNK N   1      35.304  13.709  18.209  0.00  0.00     0.002 A 
HETATM   20  C   UNK N   1      35.224  12.613  19.062  0.00  0.00     0.001 A 
ENDROOT
TORSDOF 0
ENDMDL
MODEL 5
REMARK VINA RESULT:      -6.8      9.512     12.317
REMARK  0 active torsions:
REMARK  status: ('A' for Active; 'I' for Inactive)
ROOT
HETATM    1  N   UNK N   1      32.724  15.863   6.724  0.00  0.00    -0.368 N 
HETATM    2  N   UNK N   1      34.204  15.770   9.133  0.00  0.00     0.088 N 
HETATM    3  C   UNK N   1      32.005  16.111   7.989  0.00  0.00     0.146 C 
HETATM    4  C   UNK N   1      33.022  16.619   9.044  0.00  0.00     0.301 C 
HETATM    5  C   UNK N   1      33.967  15.119   6.823  0.00  0.00     0.154 C 
HETATM    6  C   UNK N   1      30.785  17.047   7.986  0.00  0.00    -0.027 A 
HETATM    7  C   UNK N   1      34.876  15.775   7.841  0.00  0.00     0.291 C 
HETATM    8  C   UNK N   1      32.293  16.230   5.403  0.00  0.00     0.037 A 
HETATM    9  C   UNK N   1      29.747  16.923   7.049  0.00  0.00    -0.045 A 
HETATM   10  C   UNK N   1      29.829  15.940   5.955  0.00  0.00     0.080 C 
HETATM   11  C   UNK N   1      30.931  16.297   5.023  0.00  0.00    -0.027 A 
HETATM   12  C   UNK N   1      35.106  16.406  10.075  0.00  0.00     0.310 C 
HETATM   13  C   UNK N   1      30.641  18.013   9.007  0.00  0.00     0.010 A 
HETATM   14  C   UNK N   1      33.272  16.434   4.409  0.00  0.00     0.030 A 
HETATM   15  C   UNK N   1      28.610  17.738   7.131  0.00  0.00     0.008 A 
HETATM   16  C   UNK N   1      30.589  16.604   3.700  0.00  0.00     0.010 A 
HETATM   17  C   UNK N   1      29.507  18.822   9.088  0.00  0.00     0.001 A 
HETATM   18  C   UNK N   1      28.488  18.683   8.150  0.00  0.00     0.001 A 
HETATM   19  C   UNK N   1      32.920  16.744   3.097  0.00  0.00     0.002 A 
HETATM   20  C   UNK N   1      31.577  16.841   2.744  0.00  0.00     0.001 A 
ENDROOT
TORSDOF 0
ENDMDL
MODEL 6
REMARK VINA RESULT:      -6.8     24.392     26.701
REMARK  0 active torsions:
REMARK  status: ('A' for Active; 'I' for Inactive)
ROOT
HETATM    1  N   UNK N   1      26.507  24.278  -6.323  0.00  0.00    -0.368 N 
HETATM    2  N   UNK N   1      27.138  22.687  -8.576  0.00  0.00     0.088 N 
HETATM    3  C   UNK N   1      27.543  23.237  -6.168  0.00  0.00     0.146 C 
HETATM    4  C   UNK N   1      28.155  22.940  -7.562  0.00  0.00     0.301 C 
HETATM    5  C   UNK N   1      25.562  24.091  -7.409  0.00  0.00     0.154 C 
HETATM    6  C   UNK N   1      28.685  23.462  -5.164  0.00  0.00    -0.027 A 
HETATM    7  C   UNK N   1      26.311  23.878  -8.708  0.00  0.00     0.291 C 
HETATM    8  C   UNK N   1      26.303  25.420  -5.476  0.00  0.00     0.037 A 
HETATM    9  C   UNK N   1      28.451  23.876  -3.842  0.00  0.00    -0.045 A 
HETATM   10  C   UNK N   1      27.092  24.211  -3.384  0.00  0.00     0.080 C 
HETATM   11  C   UNK N   1      26.594  25.421  -4.091  0.00  0.00    -0.027 A 
HETATM   12  C   UNK N   1      27.836  22.522  -9.838  0.00  0.00     0.310 C 
HETATM   13  C   UNK N   1      30.014  23.159  -5.535  0.00  0.00     0.010 A 
HETATM   14  C   UNK N   1      25.687  26.564  -6.027  0.00  0.00     0.030 A 
HETATM   15  C   UNK N   1      29.509  23.985  -2.931  0.00  0.00     0.008 A 
HETATM   16  C   UNK N   1      26.311  26.554  -3.318  0.00  0.00     0.010 A 
HETATM   17  C   UNK N   1      31.067  23.266  -4.625  0.00  0.00     0.001 A 
HETATM   18  C   UNK N   1      30.813  23.678  -3.319  0.00  0.00     0.001 A 
HETATM   19  C   UNK N   1      25.416  27.688  -5.249  0.00  0.00     0.002 A 
HETATM   20  C   UNK N   1      25.739  27.688  -3.896  0.00  0.00     0.001 A 
ENDROOT
TORSDOF 0
ENDMDL
MODEL 7
REMARK VINA RESULT:      -6.7      9.499     12.599
REMARK  0 active torsions:
REMARK  status: ('A' for Active; 'I' for Inactive)
ROOT
HETATM    1  N   UNK N   1      33.047  16.859   7.211  0.00  0.00    -0.368 N 
HETATM    2  N   UNK N   1      35.151  15.872   8.823  0.00  0.00     0.088 N 
HETATM    3  C   UNK N   1      34.253  16.341   6.534  0.00  0.00     0.146 C 
HETATM    4  C   UNK N   1      34.955  15.334   7.481  0.00  0.00     0.301 C 
HETATM    5  C   UNK N   1      33.213  17.287   8.588  0.00  0.00     0.154 C 
HETATM    6  C   UNK N   1      34.115  15.701   5.144  0.00  0.00    -0.027 A 
HETATM    7  C   UNK N   1      33.848  16.174   9.396  0.00  0.00     0.291 C 
HETATM    8  C   UNK N   1      31.746  17.039   6.628  0.00  0.00     0.037 A 
HETATM    9  C   UNK N   1      33.407  16.318   4.100  0.00  0.00    -0.045 A 
HETATM   10  C   UNK N   1      32.675  17.576   4.324  0.00  0.00     0.080 C 
HETATM   11  C   UNK N   1      31.544  17.354   5.263  0.00  0.00    -0.027 A 
HETATM   12  C   UNK N   1      35.722  14.804   9.623  0.00  0.00     0.310 C 
HETATM   13  C   UNK N   1      34.792  14.494   4.859  0.00  0.00     0.010 A 
HETATM   14  C   UNK N   1      30.619  17.002   7.476  0.00  0.00     0.030 A 
HETATM   15  C   UNK N   1      33.377  15.746   2.822  0.00  0.00     0.008 A 
HETATM   16  C   UNK N   1      30.247  17.574   4.781  0.00  0.00     0.010 A 
HETATM   17  C   UNK N   1      34.763  13.926   3.584  0.00  0.00     0.001 A 
HETATM   18  C   UNK N   1      34.055  14.555   2.563  0.00  0.00     0.001 A 
HETATM   19  C   UNK N   1      29.333  17.217   6.985  0.00  0.00     0.002 A 
HETATM   20  C   UNK N   1      29.145  17.491   5.634  0.00  0.00     0.001 A 
ENDROOT
TORSDOF 0
ENDMDL
MODEL 8
REMARK VINA RESULT:      -6.6      8.466     11.007
REMARK  0 active torsions:
REMARK  status: ('A' for Active; 'I' for Inactive)
ROOT
HETATM    1  N   UNK N   1      34.422  15.738   6.522  0.00  0.00    -0.368 N 
HETATM    2  N   UNK N   1      33.576  14.814   3.986  0.00  0.00     0.088 N 
HETATM    3  C   UNK N   1      33.232  16.369   5.917  0.00  0.00     0.146 C 
HETATM    4  C   UNK N   1      32.598  15.367   4.917  0.00  0.00     0.301 C 
HETATM    5  C   UNK N   1      35.339  15.081   5.609  0.00  0.00     0.154 C 
HETATM    6  C   UNK N   1      32.128  16.918   6.834  0.00  0.00    -0.027 A 
HETATM    7  C   UNK N   1      34.583  14.090   4.749  0.00  0.00     0.291 C 
HETATM    8  C   UNK N   1      34.794  15.760   7.910  0.00  0.00     0.037 A 
HETATM    9  C   UNK N   1      32.407  17.753   7.928  0.00  0.00    -0.045 A 
HETATM   10  C   UNK N   1      33.796  18.064   8.306  0.00  0.00     0.080 C 
HETATM   11  C   UNK N   1      34.489  16.836   8.778  0.00  0.00    -0.027 A 
HETATM   12  C   UNK N   1      32.876  13.830   3.180  0.00  0.00     0.310 C 
HETATM   13  C   UNK N   1      30.772  16.660   6.530  0.00  0.00     0.010 A 
HETATM   14  C   UNK N   1      35.590  14.708   8.409  0.00  0.00     0.030 A 
HETATM   15  C   UNK N   1      31.368  18.305   8.688  0.00  0.00     0.008 A 
HETATM   16  C   UNK N   1      34.938  16.813  10.105  0.00  0.00     0.010 A 
HETATM   17  C   UNK N   1      29.738  17.213   7.287  0.00  0.00     0.001 A 
HETATM   18  C   UNK N   1      30.037  18.039   8.367  0.00  0.00     0.001 A 
HETATM   19  C   UNK N   1      36.026  14.693   9.732  0.00  0.00     0.002 A 
HETATM   20  C   UNK N   1      35.690  15.740  10.585  0.00  0.00     0.001 A 
ENDROOT
TORSDOF 0
ENDMDL
MODEL 9
REMARK VINA RESULT:      -6.5      1.964      5.084
REMARK  0 active torsions:
REMARK  status: ('A' for Active; 'I' for Inactive)
ROOT
HETATM    1  N   UNK N   1      36.494  11.518  13.013  0.00  0.00    -0.368 N 
HETATM    2  N   UNK N   1      36.437  14.236  12.232  0.00  0.00     0.088 N 
HETATM    3  C   UNK N   1      36.643  12.544  14.064  0.00  0.00     0.146 C 
HETATM    4  C   UNK N   1      35.987  13.858  13.567  0.00  0.00     0.301 C 
HETATM    5  C   UNK N   1      36.829  11.926  11.661  0.00  0.00     0.154 C 
HETATM    6  C   UNK N   1      36.132  12.241  15.482  0.00  0.00    -0.027 A 
HETATM    7  C   UNK N   1      36.062  13.182  11.301  0.00  0.00     0.291 C 
HETATM    8  C   UNK N   1      36.112  10.145  13.199  0.00  0.00     0.037 A 
HETATM    9  C   UNK N   1      36.447  11.050  16.155  0.00  0.00    -0.045 A 
HETATM   10  C   UNK N   1      37.210   9.982  15.486  0.00  0.00     0.080 C 
HETATM   11  C   UNK N   1      36.417   9.407  14.368  0.00  0.00    -0.027 A 
HETATM   12  C   UNK N   1      35.682  15.416  11.853  0.00  0.00     0.310 C 
HETATM   13  C   UNK N   1      35.395  13.221  16.185  0.00  0.00     0.010 A 
HETATM   14  C   UNK N   1      35.493   9.469  12.127  0.00  0.00     0.030 A 
HETATM   15  C   UNK N   1      36.037  10.848  17.479  0.00  0.00     0.008 A 
HETATM   16  C   UNK N   1      36.063   8.054  14.451  0.00  0.00     0.010 A 
HETATM   17  C   UNK N   1      34.989  13.019  17.505  0.00  0.00     0.001 A 
HETATM   18  C   UNK N   1      35.312  11.831  18.154  0.00  0.00     0.001 A 
HETATM   19  C   UNK N   1      35.140   8.124  12.224  0.00  0.00     0.002 A 
HETATM   20  C   UNK N   1      35.414   7.419  13.392  0.00  0.00     0.001 A 
ENDROOT
TORSDOF 0
ENDMDL
