MODEL 1
REMARK VINA RESULT:      -8.1      0.000      0.000
REMARK  6 active torsions:
REMARK  status: ('A' for Active; 'I' for Inactive)
REMARK    1  A    between atoms: C_15  and  C_9 
REMARK    2  A    between atoms: C_19  and  C_12 
REMARK    3  A    between atoms: S_31  and  C_16 
REMARK    4  A    between atoms: C_22  and  C_18 
REMARK    5  A    between atoms: S_31  and  C_21 
REMARK    6  A    between atoms: O_30  and  C_22 
ROOT
HETATM    1  C   UNK N   1      35.300  13.089  11.021  0.00  0.00     0.020 A 
HETATM    2  C   UNK N   1      34.736  13.847   9.982  0.00  0.00     0.017 A 
HETATM    3  C   UNK N   1      35.908  15.135  12.220  0.00  0.00     0.050 A 
HETATM    4  C   UNK N   1      35.892  13.722  12.140  0.00  0.00     0.007 A 
HETATM    5  C   UNK N   1      34.785  15.231  10.097  0.00  0.00     0.020 A 
HETATM    6  C   UNK N   1      34.428  16.238   9.239  0.00  0.00     0.060 A 
HETATM    7  C   UNK N   1      35.326  15.852  11.178  0.00  0.00     0.061 A 
HETATM    8  N   UNK N   1      34.731  17.425   9.814  0.00  0.00    -0.299 N 
HETATM    9  N   UNK N   1      35.278  17.187  11.009  0.00  0.00    -0.299 N 
ATOM     10  HN  UNK N   1      35.602  17.890  11.673  1.00  0.00     0.187 HD
HETATM   11  H   UNK N   1      34.574  18.314   9.419  0.00  0.00     0.187 HD
ENDROOT
BRANCH   4  12
HETATM   12  S   UNK N   1      36.821  12.691  13.299  0.00  0.00    -0.090 SA
BRANCH  12  13
HETATM   13  C   UNK N   1      36.191  13.289  14.882  0.00  0.00     0.020 A 
HETATM   14  C   UNK N   1      36.872  14.362  15.475  0.00  0.00     0.020 A 
HETATM   15  C   UNK N   1      36.567  14.789  16.763  0.00  0.00     0.001 A 
HETATM   16  C   UNK N   1      35.607  14.112  17.505  0.00  0.00     0.001 A 
HETATM   17  C   UNK N   1      34.940  13.022  16.951  0.00  0.00     0.017 A 
HETATM   18  C   UNK N   1      35.189  12.599  15.634  0.00  0.00     0.032 A 
BRANCH  18  19
HETATM   19  C   UNK N   1      34.435  11.383  15.184  0.00  0.00     0.147 C 
HETATM   20  N   UNK N   1      34.728  10.166  15.516  0.00  0.00    -0.375 N 
HETATM   21  C   UNK N   1      35.873   9.767  16.290  0.00  0.00     0.148 C 
ATOM     22  HN  UNK N   1      34.095   9.431  15.203  1.00  0.00     0.161 HD
BRANCH  19  23
HETATM   23  O   UNK N   1      33.436  11.564  14.297  0.00  0.00    -0.346 OA
HETATM   24  H   UNK N   1      32.556  11.330  14.521  0.00  0.00     0.219 HD
ENDBRANCH  19  23
ENDBRANCH  18  19
ENDBRANCH  12  13
ENDBRANCH   4  12
BRANCH   6  25
HETATM   25  C   UNK N   1      33.926  16.031   7.870  0.00  0.00     0.034 C 
HETATM   26  C   UNK N   1      34.186  16.878   6.861  0.00  0.00     0.032 C 
BRANCH  26  27
HETATM   27  C   UNK N   1      33.763  16.556   5.479  0.00  0.00     0.031 A 
HETATM   28  C   UNK N   1      33.016  17.483   4.743  0.00  0.00     0.029 A 
HETATM   29  C   UNK N   1      32.667  17.188   3.423  0.00  0.00     0.004 A 
HETATM   30  C   UNK N   1      33.068  15.981   2.850  0.00  0.00     0.017 A 
HETATM   31  C   UNK N   1      33.812  15.079   3.611  0.00  0.00     0.088 A 
HETATM   32  N   UNK N   1      34.143  15.383   4.894  0.00  0.00    -0.366 N 
ATOM     33  HN  UNK N   1      34.693  14.715   5.435  1.00  0.00     0.165 HD
ENDBRANCH  26  27
ENDBRANCH   6  25
TORSDOF 6
ENDMDL
MODEL 2
REMARK VINA RESULT:      -8.0      4.026      9.594
REMARK  6 active torsions:
REMARK  status: ('A' for Active; 'I' for Inactive)
REMARK    1  A    between atoms: C_15  and  C_9 
REMARK    2  A    between atoms: C_19  and  C_12 
REMARK    3  A    between atoms: S_31  and  C_16 
REMARK    4  A    between atoms: C_22  and  C_18 
REMARK    5  A    between atoms: S_31  and  C_21 
REMARK    6  A    between atoms: O_30  and  C_22 
ROOT
HETATM    1  C   UNK N   1      32.713  15.095   8.176  0.00  0.00     0.020 A 
HETATM    2  C   UNK N   1      33.355  14.512   9.281  0.00  0.00     0.017 A 
HETATM    3  C   UNK N   1      33.913  17.194   8.553  0.00  0.00     0.050 A 
HETATM    4  C   UNK N   1      32.981  16.435   7.808  0.00  0.00     0.007 A 
HETATM    5  C   UNK N   1      34.254  15.299   9.990  0.00  0.00     0.020 A 
HETATM    6  C   UNK N   1      34.955  15.078  11.147  0.00  0.00     0.060 A 
HETATM    7  C   UNK N   1      34.541  16.577   9.633  0.00  0.00     0.061 A 
HETATM    8  N   UNK N   1      35.657  16.195  11.448  0.00  0.00    -0.299 N 
HETATM    9  N   UNK N   1      35.406  17.115  10.513  0.00  0.00    -0.299 N 
ATOM     10  HN  UNK N   1      35.798  18.055  10.473  1.00  0.00     0.187 HD
HETATM   11  H   UNK N   1      36.253  16.310  12.224  0.00  0.00     0.187 HD
ENDROOT
BRANCH   4  12
HETATM   12  S   UNK N   1      31.930  17.189   6.545  0.00  0.00    -0.090 SA
BRANCH  12  13
HETATM   13  C   UNK N   1      30.448  17.569   7.504  0.00  0.00     0.020 A 
HETATM   14  C   UNK N   1      30.637  18.092   8.790  0.00  0.00     0.020 A 
HETATM   15  C   UNK N   1      29.570  18.266   9.666  0.00  0.00     0.001 A 
HETATM   16  C   UNK N   1      28.295  17.867   9.286  0.00  0.00     0.001 A 
HETATM   17  C   UNK N   1      28.085  17.314   8.025  0.00  0.00     0.017 A 
HETATM   18  C   UNK N   1      29.134  17.173   7.100  0.00  0.00     0.032 A 
BRANCH  18  19
HETATM   19  C   UNK N   1      28.775  16.517   5.799  0.00  0.00     0.147 C 
HETATM   20  N   UNK N   1      28.432  17.149   4.723  0.00  0.00    -0.375 N 
HETATM   21  C   UNK N   1      28.246  18.571   4.615  0.00  0.00     0.148 C 
ATOM     22  HN  UNK N   1      28.281  16.592   3.882  1.00  0.00     0.161 HD
BRANCH  19  23
HETATM   23  O   UNK N   1      28.718  15.170   5.778  0.00  0.00    -0.346 OA
HETATM   24  H   UNK N   1      29.497  14.662   5.894  0.00  0.00     0.219 HD
ENDBRANCH  19  23
ENDBRANCH  18  19
ENDBRANCH  12  13
ENDBRANCH   4  12
BRANCH   6  25
HETATM   25  C   UNK N   1      34.840  13.866  11.977  0.00  0.00     0.034 C 
HETATM   26  C   UNK N   1      35.408  13.753  13.188  0.00  0.00     0.032 C 
BRANCH  26  27
HETATM   27  C   UNK N   1      35.155  12.563  14.031  0.00  0.00     0.031 A 
HETATM   28  C   UNK N   1      35.939  12.331  15.166  0.00  0.00     0.029 A 
HETATM   29  C   UNK N   1      35.657  11.233  15.982  0.00  0.00     0.004 A 
HETATM   30  C   UNK N   1      34.598  10.382  15.662  0.00  0.00     0.017 A 
HETATM   31  C   UNK N   1      33.835  10.642  14.524  0.00  0.00     0.088 A 
HETATM   32  N   UNK N   1      34.123  11.717  13.742  0.00  0.00    -0.366 N 
ATOM     33  HN  UNK N   1      33.552  11.896  12.917  1.00  0.00     0.165 HD
ENDBRANCH  26  27
ENDBRANCH   6  25
TORSDOF 6
ENDMDL
MODEL 3
REMARK VINA RESULT:      -8.0      5.111      7.042
REMARK  6 active torsions:
REMARK  status: ('A' for Active; 'I' for Inactive)
REMARK    1  A    between atoms: C_15  and  C_9 
REMARK    2  A    between atoms: C_19  and  C_12 
REMARK    3  A    between atoms: S_31  and  C_16 
REMARK    4  A    between atoms: C_22  and  C_18 
REMARK    5  A    between atoms: S_31  and  C_21 
REMARK    6  A    between atoms: O_30  and  C_22 
ROOT
HETATM    1  C   UNK N   1      31.650  16.636   6.543  0.00  0.00     0.020 A 
HETATM    2  C   UNK N   1      30.321  17.089   6.515  0.00  0.00     0.017 A 
HETATM    3  C   UNK N   1      31.850  17.282   8.895  0.00  0.00     0.050 A 
HETATM    4  C   UNK N   1      32.424  16.733   7.724  0.00  0.00     0.007 A 
HETATM    5  C   UNK N   1      29.803  17.632   7.685  0.00  0.00     0.020 A 
HETATM    6  C   UNK N   1      28.609  18.243   7.964  0.00  0.00     0.060 A 
HETATM    7  C   UNK N   1      30.525  17.707   8.833  0.00  0.00     0.061 A 
HETATM    8  N   UNK N   1      28.621  18.645   9.257  0.00  0.00    -0.299 N 
HETATM    9  N   UNK N   1      29.797  18.310   9.792  0.00  0.00    -0.299 N 
ATOM     10  HN  UNK N   1      30.092  18.482  10.753  1.00  0.00     0.187 HD
HETATM   11  H   UNK N   1      27.886  19.107   9.723  0.00  0.00     0.187 HD
ENDROOT
BRANCH   4  12
HETATM   12  S   UNK N   1      34.191  16.373   7.606  0.00  0.00    -0.090 SA
BRANCH  12  13
HETATM   13  C   UNK N   1      34.542  15.793   9.280  0.00  0.00     0.020 A 
HETATM   14  C   UNK N   1      35.279  16.649  10.109  0.00  0.00     0.020 A 
HETATM   15  C   UNK N   1      35.739  16.232  11.355  0.00  0.00     0.001 A 
HETATM   16  C   UNK N   1      35.513  14.926  11.771  0.00  0.00     0.001 A 
HETATM   17  C   UNK N   1      34.811  14.045  10.951  0.00  0.00     0.017 A 
HETATM   18  C   UNK N   1      34.291  14.453   9.711  0.00  0.00     0.032 A 
BRANCH  18  19
HETATM   19  C   UNK N   1      33.599  13.388   8.910  0.00  0.00     0.147 C 
HETATM   20  N   UNK N   1      34.177  12.630   8.034  0.00  0.00    -0.375 N 
HETATM   21  C   UNK N   1      35.547  12.740   7.611  0.00  0.00     0.148 C 
ATOM     22  HN  UNK N   1      33.613  11.894   7.608  1.00  0.00     0.161 HD
BRANCH  19  23
HETATM   23  O   UNK N   1      32.263  13.274   9.050  0.00  0.00    -0.346 OA
HETATM   24  H   UNK N   1      31.902  12.727   9.720  0.00  0.00     0.219 HD
ENDBRANCH  19  23
ENDBRANCH  18  19
ENDBRANCH  12  13
ENDBRANCH   4  12
BRANCH   6  25
HETATM   25  C   UNK N   1      27.559  18.522   6.970  0.00  0.00     0.034 C 
HETATM   26  C   UNK N   1      27.557  19.620   6.198  0.00  0.00     0.032 C 
BRANCH  26  27
HETATM   27  C   UNK N   1      26.547  19.788   5.128  0.00  0.00     0.031 A 
HETATM   28  C   UNK N   1      26.879  20.471   3.954  0.00  0.00     0.029 A 
HETATM   29  C   UNK N   1      25.933  20.579   2.932  0.00  0.00     0.004 A 
HETATM   30  C   UNK N   1      24.672  20.003   3.088  0.00  0.00     0.017 A 
HETATM   31  C   UNK N   1      24.373  19.328   4.271  0.00  0.00     0.088 A 
HETATM   32  N   UNK N   1      25.307  19.232   5.255  0.00  0.00    -0.366 N 
ATOM     33  HN  UNK N   1      25.074  18.730   6.112  1.00  0.00     0.165 HD
ENDBRANCH  26  27
ENDBRANCH   6  25
TORSDOF 6
ENDMDL
MODEL 4
REMARK VINA RESULT:      -8.0      7.564     10.821
REMARK  6 active torsions:
REMARK  status: ('A' for Active; 'I' for Inactive)
REMARK    1  A    between atoms: C_15  and  C_9 
REMARK    2  A    between atoms: C_19  and  C_12 
REMARK    3  A    between atoms: S_31  and  C_16 
REMARK    4  A    between atoms: C_22  and  C_18 
REMARK    5  A    between atoms: S_31  and  C_21 
REMARK    6  A    between atoms: O_30  and  C_22 
ROOT
HETATM    1  C   UNK N   1      27.684  16.244   6.011  0.00  0.00     0.020 A 
HETATM    2  C   UNK N   1      26.602  17.042   5.604  0.00  0.00     0.017 A 
HETATM    3  C   UNK N   1      29.265  17.898   5.143  0.00  0.00     0.050 A 
HETATM    4  C   UNK N   1      29.017  16.660   5.781  0.00  0.00     0.007 A 
HETATM    5  C   UNK N   1      26.893  18.244   4.971  0.00  0.00     0.020 A 
HETATM    6  C   UNK N   1      26.095  19.185   4.375  0.00  0.00     0.060 A 
HETATM    7  C   UNK N   1      28.167  18.669   4.767  0.00  0.00     0.061 A 
HETATM    8  N   UNK N   1      26.884  20.154   3.853  0.00  0.00    -0.299 N 
HETATM    9  N   UNK N   1      28.158  19.838   4.101  0.00  0.00    -0.299 N 
ATOM     10  HN  UNK N   1      28.976  20.384   3.832  1.00  0.00     0.187 HD
HETATM   11  H   UNK N   1      26.572  20.955   3.373  0.00  0.00     0.187 HD
ENDROOT
BRANCH   4  12
HETATM   12  S   UNK N   1      30.339  15.468   6.095  0.00  0.00    -0.090 SA
BRANCH  12  13
HETATM   13  C   UNK N   1      31.690  16.562   6.580  0.00  0.00     0.020 A 
HETATM   14  C   UNK N   1      32.656  16.853   5.607  0.00  0.00     0.020 A 
HETATM   15  C   UNK N   1      33.817  17.551   5.925  0.00  0.00     0.001 A 
HETATM   16  C   UNK N   1      34.057  17.927   7.241  0.00  0.00     0.001 A 
HETATM   17  C   UNK N   1      33.127  17.622   8.233  0.00  0.00     0.017 A 
HETATM   18  C   UNK N   1      31.923  16.963   7.933  0.00  0.00     0.032 A 
BRANCH  18  19
HETATM   19  C   UNK N   1      31.037  16.654   9.106  0.00  0.00     0.147 C 
HETATM   20  N   UNK N   1      30.020  17.366   9.470  0.00  0.00    -0.375 N 
HETATM   21  C   UNK N   1      29.621  18.615   8.879  0.00  0.00     0.148 C 
ATOM     22  HN  UNK N   1      29.454  17.011  10.241  1.00  0.00     0.161 HD
BRANCH  19  23
HETATM   23  O   UNK N   1      31.382  15.611   9.887  0.00  0.00    -0.346 OA
HETATM   24  H   UNK N   1      32.252  15.263   9.855  0.00  0.00     0.219 HD
ENDBRANCH  19  23
ENDBRANCH  18  19
ENDBRANCH  12  13
ENDBRANCH   4  12
BRANCH   6  25
HETATM   25  C   UNK N   1      24.635  19.069   4.221  0.00  0.00     0.034 C 
HETATM   26  C   UNK N   1      23.914  19.889   3.441  0.00  0.00     0.032 C 
BRANCH  26  27
HETATM   27  C   UNK N   1      22.470  19.649   3.225  0.00  0.00     0.031 A 
HETATM   28  C   UNK N   1      21.730  20.518   2.417  0.00  0.00     0.029 A 
HETATM   29  C   UNK N   1      20.379  20.251   2.180  0.00  0.00     0.004 A 
HETATM   30  C   UNK N   1      19.783  19.124   2.745  0.00  0.00     0.017 A 
HETATM   31  C   UNK N   1      20.549  18.277   3.546  0.00  0.00     0.088 A 
HETATM   32  N   UNK N   1      21.863  18.552   3.764  0.00  0.00    -0.366 N 
ATOM     33  HN  UNK N   1      22.411  17.919   4.348  1.00  0.00     0.165 HD
ENDBRANCH  26  27
ENDBRANCH   6  25
TORSDOF 6
ENDMDL
MODEL 5
REMARK VINA RESULT:      -7.9      5.148      8.606
REMARK  6 active torsions:
REMARK  status: ('A' for Active; 'I' for Inactive)
REMARK    1  A    between atoms: C_15  and  C_9 
REMARK    2  A    between atoms: C_19  and  C_12 
REMARK    3  A    between atoms: S_31  and  C_16 
REMARK    4  A    between atoms: C_22  and  C_18 
REMARK    5  A    between atoms: S_31  and  C_21 
REMARK    6  A    between atoms: O_30  and  C_22 
ROOT
HETATM    1  C   UNK N   1      34.972   9.789  18.091  0.00  0.00     0.020 A 
HETATM    2  C   UNK N   1      35.032  10.869  17.196  0.00  0.00     0.017 A 
HETATM    3  C   UNK N   1      35.171  11.317  19.992  0.00  0.00     0.050 A 
HETATM    4  C   UNK N   1      35.046  10.001  19.489  0.00  0.00     0.007 A 
HETATM    5  C   UNK N   1      35.167  12.143  17.735  0.00  0.00     0.020 A 
HETATM    6  C   UNK N   1      35.352  13.371  17.156  0.00  0.00     0.060 A 
HETATM    7  C   UNK N   1      35.212  12.364  19.075  0.00  0.00     0.061 A 
HETATM    8  N   UNK N   1      35.479  14.297  18.135  0.00  0.00    -0.299 N 
HETATM    9  N   UNK N   1      35.387  13.678  19.315  0.00  0.00    -0.299 N 
ATOM     10  HN  UNK N   1      35.441  14.119  20.233  1.00  0.00     0.187 HD
HETATM   11  H   UNK N   1      35.616  15.263  18.001  0.00  0.00     0.187 HD
ENDROOT
BRANCH   4  12
HETATM   12  S   UNK N   1      35.225   8.552  20.554  0.00  0.00    -0.090 SA
BRANCH  12  13
HETATM   13  C   UNK N   1      33.540   7.903  20.548  0.00  0.00     0.020 A 
HETATM   14  C   UNK N   1      33.229   6.945  19.573  0.00  0.00     0.020 A 
HETATM   15  C   UNK N   1      31.923   6.504  19.382  0.00  0.00     0.001 A 
HETATM   16  C   UNK N   1      30.892   7.057  20.131  0.00  0.00     0.001 A 
HETATM   17  C   UNK N   1      31.170   8.034  21.085  0.00  0.00     0.017 A 
HETATM   18  C   UNK N   1      32.485   8.462  21.336  0.00  0.00     0.032 A 
BRANCH  18  19
HETATM   19  C   UNK N   1      32.633   9.555  22.354  0.00  0.00     0.147 C 
HETATM   20  N   UNK N   1      32.983   9.373  23.587  0.00  0.00    -0.375 N 
HETATM   21  C   UNK N   1      33.195   8.096  24.214  0.00  0.00     0.148 C 
ATOM     22  HN  UNK N   1      33.118  10.205  24.162  1.00  0.00     0.161 HD
BRANCH  19  23
HETATM   23  O   UNK N   1      32.290  10.804  21.979  0.00  0.00    -0.346 OA
HETATM   24  H   UNK N   1      32.140  11.002  21.076  0.00  0.00     0.219 HD
ENDBRANCH  19  23
ENDBRANCH  18  19
ENDBRANCH  12  13
ENDBRANCH   4  12
BRANCH   6  25
HETATM   25  C   UNK N   1      35.518  13.598  15.710  0.00  0.00     0.034 C 
HETATM   26  C   UNK N   1      36.642  13.289  15.046  0.00  0.00     0.032 C 
BRANCH  26  27
HETATM   27  C   UNK N   1      36.709  13.421  13.573  0.00  0.00     0.031 A 
HETATM   28  C   UNK N   1      36.029  14.463  12.933  0.00  0.00     0.029 A 
HETATM   29  C   UNK N   1      36.141  14.606  11.548  0.00  0.00     0.004 A 
HETATM   30  C   UNK N   1      36.930  13.717  10.818  0.00  0.00     0.017 A 
HETATM   31  C   UNK N   1      37.596  12.689  11.487  0.00  0.00     0.088 A 
HETATM   32  N   UNK N   1      37.476  12.566  12.835  0.00  0.00    -0.366 N 
ATOM     33  HN  UNK N   1      37.973  11.812  13.310  1.00  0.00     0.165 HD
ENDBRANCH  26  27
ENDBRANCH   6  25
TORSDOF 6
ENDMDL
MODEL 6
REMARK VINA RESULT:      -7.7      3.279      9.127
REMARK  6 active torsions:
REMARK  status: ('A' for Active; 'I' for Inactive)
REMARK    1  A    between atoms: C_15  and  C_9 
REMARK    2  A    between atoms: C_19  and  C_12 
REMARK    3  A    between atoms: S_31  and  C_16 
REMARK    4  A    between atoms: C_22  and  C_18 
REMARK    5  A    between atoms: S_31  and  C_21 
REMARK    6  A    between atoms: O_30  and  C_22 
ROOT
HETATM    1  C   UNK N   1      34.496  13.637   9.099  0.00  0.00     0.020 A 
HETATM    2  C   UNK N   1      34.989  13.124  10.310  0.00  0.00     0.017 A 
HETATM    3  C   UNK N   1      36.760  14.256   8.406  0.00  0.00     0.050 A 
HETATM    4  C   UNK N   1      35.370  14.209   8.144  0.00  0.00     0.007 A 
HETATM    5  C   UNK N   1      36.359  13.203  10.529  0.00  0.00     0.020 A 
HETATM    6  C   UNK N   1      37.134  12.897  11.617  0.00  0.00     0.060 A 
HETATM    7  C   UNK N   1      37.214  13.725   9.611  0.00  0.00     0.061 A 
HETATM    8  N   UNK N   1      38.421  13.211  11.334  0.00  0.00    -0.299 N 
HETATM    9  N   UNK N   1      38.469  13.714  10.098  0.00  0.00    -0.299 N 
ATOM     10  HN  UNK N   1      39.306  14.035   9.611  1.00  0.00     0.187 HD
HETATM   11  H   UNK N   1      39.190  13.088  11.937  0.00  0.00     0.187 HD
ENDROOT
BRANCH   4  12
HETATM   12  S   UNK N   1      34.635  15.075   6.739  0.00  0.00    -0.090 SA
BRANCH  12  13
HETATM   13  C   UNK N   1      33.223  15.881   7.524  0.00  0.00     0.020 A 
HETATM   14  C   UNK N   1      31.950  15.386   7.209  0.00  0.00     0.020 A 
HETATM   15  C   UNK N   1      30.795  16.037   7.632  0.00  0.00     0.001 A 
HETATM   16  C   UNK N   1      30.895  17.230   8.336  0.00  0.00     0.001 A 
HETATM   17  C   UNK N   1      32.148  17.761   8.633  0.00  0.00     0.017 A 
HETATM   18  C   UNK N   1      33.332  17.100   8.264  0.00  0.00     0.032 A 
BRANCH  18  19
HETATM   19  C   UNK N   1      34.610  17.810   8.605  0.00  0.00     0.147 C 
HETATM   20  N   UNK N   1      35.325  17.578   9.659  0.00  0.00    -0.375 N 
HETATM   21  C   UNK N   1      34.974  16.677  10.723  0.00  0.00     0.148 C 
ATOM     22  HN  UNK N   1      36.211  18.077   9.742  1.00  0.00     0.161 HD
BRANCH  19  23
HETATM   23  O   UNK N   1      34.991  18.823   7.802  0.00  0.00    -0.346 OA
HETATM   24  H   UNK N   1      34.461  19.072   7.070  0.00  0.00     0.219 HD
ENDBRANCH  19  23
ENDBRANCH  18  19
ENDBRANCH  12  13
ENDBRANCH   4  12
BRANCH   6  25
HETATM   25  C   UNK N   1      36.612  12.434  12.914  0.00  0.00     0.034 C 
HETATM   26  C   UNK N   1      36.972  12.981  14.085  0.00  0.00     0.032 C 
BRANCH  26  27
HETATM   27  C   UNK N   1      36.321  12.560  15.346  0.00  0.00     0.031 A 
HETATM   28  C   UNK N   1      36.361  11.219  15.740  0.00  0.00     0.029 A 
HETATM   29  C   UNK N   1      35.788  10.844  16.957  0.00  0.00     0.004 A 
HETATM   30  C   UNK N   1      35.186  11.807  17.769  0.00  0.00     0.017 A 
HETATM   31  C   UNK N   1      35.164  13.136  17.347  0.00  0.00     0.088 A 
HETATM   32  N   UNK N   1      35.729  13.483  16.159  0.00  0.00    -0.366 N 
ATOM     33  HN  UNK N   1      35.708  14.460  15.868  1.00  0.00     0.165 HD
ENDBRANCH  26  27
ENDBRANCH   6  25
TORSDOF 6
ENDMDL
MODEL 7
REMARK VINA RESULT:      -7.7      3.873      9.729
REMARK  6 active torsions:
REMARK  status: ('A' for Active; 'I' for Inactive)
REMARK    1  A    between atoms: C_15  and  C_9 
REMARK    2  A    between atoms: C_19  and  C_12 
REMARK    3  A    between atoms: S_31  and  C_16 
REMARK    4  A    between atoms: C_22  and  C_18 
REMARK    5  A    between atoms: S_31  and  C_21 
REMARK    6  A    between atoms: O_30  and  C_22 
ROOT
HETATM    1  C   UNK N   1      33.476  15.200   7.177  0.00  0.00     0.020 A 
HETATM    2  C   UNK N   1      33.845  14.675   8.426  0.00  0.00     0.017 A 
HETATM    3  C   UNK N   1      34.229  17.426   7.860  0.00  0.00     0.050 A 
HETATM    4  C   UNK N   1      33.658  16.573   6.886  0.00  0.00     0.007 A 
HETATM    5  C   UNK N   1      34.391  15.552   9.355  0.00  0.00     0.020 A 
HETATM    6  C   UNK N   1      34.755  15.392  10.667  0.00  0.00     0.060 A 
HETATM    7  C   UNK N   1      34.597  16.866   9.081  0.00  0.00     0.061 A 
HETATM    8  N   UNK N   1      35.187  16.582  11.145  0.00  0.00    -0.299 N 
HETATM    9  N   UNK N   1      35.095  17.487  10.167  0.00  0.00    -0.299 N 
ATOM     10  HN  UNK N   1      35.355  18.471  10.231  1.00  0.00     0.187 HD
HETATM   11  H   UNK N   1      35.515  16.752  12.058  0.00  0.00     0.187 HD
ENDROOT
BRANCH   4  12
HETATM   12  S   UNK N   1      32.922  17.219   5.367  0.00  0.00    -0.090 SA
BRANCH  12  13
HETATM   13  C   UNK N   1      31.163  17.096   5.749  0.00  0.00     0.020 A 
HETATM   14  C   UNK N   1      30.772  17.404   7.060  0.00  0.00     0.020 A 
HETATM   15  C   UNK N   1      29.469  17.185   7.497  0.00  0.00     0.001 A 
HETATM   16  C   UNK N   1      28.543  16.602   6.641  0.00  0.00     0.001 A 
HETATM   17  C   UNK N   1      28.915  16.257   5.344  0.00  0.00     0.017 A 
HETATM   18  C   UNK N   1      30.208  16.512   4.858  0.00  0.00     0.032 A 
BRANCH  18  19
HETATM   19  C   UNK N   1      30.485  16.043   3.459  0.00  0.00     0.147 C 
HETATM   20  N   UNK N   1      30.948  14.875   3.150  0.00  0.00    -0.375 N 
HETATM   21  C   UNK N   1      31.362  13.867   4.088  0.00  0.00     0.148 C 
ATOM     22  HN  UNK N   1      31.026  14.651   2.157  1.00  0.00     0.161 HD
BRANCH  19  23
HETATM   23  O   UNK N   1      30.326  16.936   2.462  0.00  0.00    -0.346 OA
HETATM   24  H   UNK N   1      30.003  17.797   2.644  0.00  0.00     0.219 HD
ENDBRANCH  19  23
ENDBRANCH  18  19
ENDBRANCH  12  13
ENDBRANCH   4  12
BRANCH   6  25
HETATM   25  C   UNK N   1      34.568  14.153  11.442  0.00  0.00     0.034 C 
HETATM   26  C   UNK N   1      35.206  13.911  12.597  0.00  0.00     0.032 C 
BRANCH  26  27
HETATM   27  C   UNK N   1      34.886  12.707  13.398  0.00  0.00     0.031 A 
HETATM   28  C   UNK N   1      35.103  12.709  14.780  0.00  0.00     0.029 A 
HETATM   29  C   UNK N   1      34.749  11.586  15.531  0.00  0.00     0.004 A 
HETATM   30  C   UNK N   1      34.181  10.478  14.901  0.00  0.00     0.017 A 
HETATM   31  C   UNK N   1      33.978  10.509  13.521  0.00  0.00     0.088 A 
HETATM   32  N   UNK N   1      34.327  11.612  12.806  0.00  0.00    -0.366 N 
ATOM     33  HN  UNK N   1      34.167  11.620  11.799  1.00  0.00     0.165 HD
ENDBRANCH  26  27
ENDBRANCH   6  25
TORSDOF 6
ENDMDL
MODEL 8
REMARK VINA RESULT:      -7.7      1.253      1.532
REMARK  6 active torsions:
REMARK  status: ('A' for Active; 'I' for Inactive)
REMARK    1  A    between atoms: C_15  and  C_9 
REMARK    2  A    between atoms: C_19  and  C_12 
REMARK    3  A    between atoms: S_31  and  C_16 
REMARK    4  A    between atoms: C_22  and  C_18 
REMARK    5  A    between atoms: S_31  and  C_21 
REMARK    6  A    between atoms: O_30  and  C_22 
ROOT
HETATM    1  C   UNK N   1      35.563  12.848  10.680  0.00  0.00     0.020 A 
HETATM    2  C   UNK N   1      34.898  13.663   9.748  0.00  0.00     0.017 A 
HETATM    3  C   UNK N   1      36.019  14.792  12.095  0.00  0.00     0.050 A 
HETATM    4  C   UNK N   1      36.131  13.403  11.852  0.00  0.00     0.007 A 
HETATM    5  C   UNK N   1      34.823  15.022  10.023  0.00  0.00     0.020 A 
HETATM    6  C   UNK N   1      34.347  16.082   9.296  0.00  0.00     0.060 A 
HETATM    7  C   UNK N   1      35.340  15.565  11.156  0.00  0.00     0.061 A 
HETATM    8  N   UNK N   1      34.558  17.219   9.999  0.00  0.00    -0.299 N 
HETATM    9  N   UNK N   1      35.163  16.900  11.145  0.00  0.00    -0.299 N 
ATOM     10  HN  UNK N   1      35.443  17.550  11.880  1.00  0.00     0.187 HD
HETATM   11  H   UNK N   1      34.307  18.128   9.713  0.00  0.00     0.187 HD
ENDROOT
BRANCH   4  12
HETATM   12  S   UNK N   1      37.188  12.340  12.862  0.00  0.00    -0.090 SA
BRANCH  12  13
HETATM   13  C   UNK N   1      36.233  12.247  14.391  0.00  0.00     0.020 A 
HETATM   14  C   UNK N   1      36.240  13.380  15.217  0.00  0.00     0.020 A 
HETATM   15  C   UNK N   1      35.672  13.353  16.487  0.00  0.00     0.001 A 
HETATM   16  C   UNK N   1      35.130  12.171  16.975  0.00  0.00     0.001 A 
HETATM   17  C   UNK N   1      35.139  11.023  16.186  0.00  0.00     0.017 A 
HETATM   18  C   UNK N   1      35.660  11.032  14.881  0.00  0.00     0.032 A 
BRANCH  18  19
HETATM   19  C   UNK N   1      35.651   9.713  14.164  0.00  0.00     0.147 C 
HETATM   20  N   UNK N   1      34.868   9.415  13.177  0.00  0.00    -0.375 N 
HETATM   21  C   UNK N   1      33.816  10.252  12.664  0.00  0.00     0.148 C 
ATOM     22  HN  UNK N   1      35.007   8.510  12.727  1.00  0.00     0.161 HD
BRANCH  19  23
HETATM   23  O   UNK N   1      36.453   8.741  14.641  0.00  0.00    -0.346 OA
HETATM   24  H   UNK N   1      36.193   7.842  14.582  0.00  0.00     0.219 HD
ENDBRANCH  19  23
ENDBRANCH  18  19
ENDBRANCH  12  13
ENDBRANCH   4  12
BRANCH   6  25
HETATM   25  C   UNK N   1      33.821  15.986   7.923  0.00  0.00     0.034 C 
HETATM   26  C   UNK N   1      34.261  16.758   6.917  0.00  0.00     0.032 C 
BRANCH  26  27
HETATM   27  C   UNK N   1      33.788  16.533   5.532  0.00  0.00     0.031 A 
HETATM   28  C   UNK N   1      33.014  17.505   4.891  0.00  0.00     0.029 A 
HETATM   29  C   UNK N   1      32.618  17.303   3.567  0.00  0.00     0.004 A 
HETATM   30  C   UNK N   1      32.999  16.141   2.896  0.00  0.00     0.017 A 
HETATM   31  C   UNK N   1      33.773  15.191   3.564  0.00  0.00     0.088 A 
HETATM   32  N   UNK N   1      34.150  15.406   4.852  0.00  0.00    -0.366 N 
ATOM     33  HN  UNK N   1      34.720  14.704   5.324  1.00  0.00     0.165 HD
ENDBRANCH  26  27
ENDBRANCH   6  25
TORSDOF 6
ENDMDL
MODEL 9
REMARK VINA RESULT:      -7.5      2.198      2.833
REMARK  6 active torsions:
REMARK  status: ('A' for Active; 'I' for Inactive)
REMARK    1  A    between atoms: C_15  and  C_9 
REMARK    2  A    between atoms: C_19  and  C_12 
REMARK    3  A    between atoms: S_31  and  C_16 
REMARK    4  A    between atoms: C_22  and  C_18 
REMARK    5  A    between atoms: S_31  and  C_21 
REMARK    6  A    between atoms: O_30  and  C_22 
ROOT
HETATM    1  C   UNK N   1      35.289  13.990  12.679  0.00  0.00     0.020 A 
HETATM    2  C   UNK N   1      34.609  14.569  11.595  0.00  0.00     0.017 A 
HETATM    3  C   UNK N   1      37.164  13.399  11.222  0.00  0.00     0.050 A 
HETATM    4  C   UNK N   1      36.562  13.398  12.503  0.00  0.00     0.007 A 
HETATM    5  C   UNK N   1      35.233  14.536  10.354  0.00  0.00     0.020 A 
HETATM    6  C   UNK N   1      34.814  14.910   9.104  0.00  0.00     0.060 A 
HETATM    7  C   UNK N   1      36.467  13.996  10.175  0.00  0.00     0.061 A 
HETATM    8  N   UNK N   1      35.791  14.618   8.214  0.00  0.00    -0.299 N 
HETATM    9  N   UNK N   1      36.809  14.060   8.874  0.00  0.00    -0.299 N 
ATOM     10  HN  UNK N   1      37.688  13.740   8.467  1.00  0.00     0.187 HD
HETATM   11  H   UNK N   1      35.757  14.787   7.244  0.00  0.00     0.187 HD
ENDROOT
BRANCH   4  12
HETATM   12  S   UNK N   1      37.250  12.450  13.879  0.00  0.00    -0.090 SA
BRANCH  12  13
HETATM   13  C   UNK N   1      36.502  13.289  15.291  0.00  0.00     0.020 A 
HETATM   14  C   UNK N   1      37.117  14.469  15.732  0.00  0.00     0.020 A 
HETATM   15  C   UNK N   1      36.717  15.100  16.906  0.00  0.00     0.001 A 
HETATM   16  C   UNK N   1      35.722  14.530  17.691  0.00  0.00     0.001 A 
HETATM   17  C   UNK N   1      35.117  13.340  17.291  0.00  0.00     0.017 A 
HETATM   18  C   UNK N   1      35.465  12.707  16.086  0.00  0.00     0.032 A 
BRANCH  18  19
HETATM   19  C   UNK N   1      34.768  11.408  15.806  0.00  0.00     0.147 C 
HETATM   20  N   UNK N   1      35.125  10.259  16.284  0.00  0.00    -0.375 N 
HETATM   21  C   UNK N   1      36.296  10.017  17.083  0.00  0.00     0.148 C 
ATOM     22  HN  UNK N   1      34.527   9.460  16.077  1.00  0.00     0.161 HD
BRANCH  19  23
HETATM   23  O   UNK N   1      33.752  11.426  14.920  0.00  0.00    -0.346 OA
HETATM   24  H   UNK N   1      32.873  11.579  15.210  0.00  0.00     0.219 HD
ENDBRANCH  19  23
ENDBRANCH  18  19
ENDBRANCH  12  13
ENDBRANCH   4  12
BRANCH   6  25
HETATM   25  C   UNK N   1      33.468  15.419   8.790  0.00  0.00     0.034 C 
HETATM   26  C   UNK N   1      33.176  16.727   8.733  0.00  0.00     0.032 C 
BRANCH  26  27
HETATM   27  C   UNK N   1      31.839  17.183   8.289  0.00  0.00     0.031 A 
HETATM   28  C   UNK N   1      31.355  16.810   7.030  0.00  0.00     0.029 A 
HETATM   29  C   UNK N   1      30.072  17.204   6.645  0.00  0.00     0.004 A 
HETATM   30  C   UNK N   1      29.284  17.958   7.516  0.00  0.00     0.017 A 
HETATM   31  C   UNK N   1      29.796  18.313   8.764  0.00  0.00     0.088 A 
HETATM   32  N   UNK N   1      31.047  17.919   9.123  0.00  0.00    -0.366 N 
ATOM     33  HN  UNK N   1      31.405  18.182  10.041  1.00  0.00     0.165 HD
ENDBRANCH  26  27
ENDBRANCH   6  25
TORSDOF 6
ENDMDL
