REMARK  9 active torsions:
REMARK  status: ('A' for Active; 'I' for Inactive)
REMARK    1  A    between atoms: C_8  and  C_5 
REMARK    2  A    between atoms: C_9  and  C_5 
REMARK    3  A    between atoms: C_12  and  C_8 
REMARK    4  A    between atoms: C_13  and  C_9 
REMARK    5  A    between atoms: C_18  and  C_12 
REMARK    6  A    between atoms: C_19  and  C_13 
REMARK    7  A    between atoms: C_18  and  C_17 
REMARK    8  A    between atoms: C_20  and  C_18 
REMARK    9  A    between atoms: O_24  and  C_19 
ROOT
HETATM    1  C   UNK N   1       2.356   1.285  -0.786  0.00  0.00     0.056 C 
ENDROOT
BRANCH   1   2
HETATM    2  C   UNK N   1       3.693   2.046  -0.796  0.00  0.00     0.014 C 
BRANCH   2   3
HETATM    3  C   UNK N   1       4.356   2.106   0.578  0.00  0.00     0.001 C 
BRANCH   3   4
HETATM    4  C   UNK N   1       5.781   2.607   0.449  0.00  0.00     0.001 C 
BRANCH   4   5
HETATM    5  C   UNK N   1       6.695   1.457   0.074  0.00  0.00     0.010 C 
BRANCH   5   6
HETATM    6  C   UNK N   1       8.136   1.935   0.043  0.00  0.00     0.110 C 
BRANCH   6   7
HETATM    7  C   UNK N   1       9.104   0.800  -0.110  0.00  0.00     0.139 C 
HETATM    8  O   UNK N   1      10.300   1.034  -0.151  0.00  0.00    -0.650 OA
BRANCH   7   9
HETATM    9  O   UNK N   1       8.672  -0.474  -0.196  0.00  0.00    -0.776 OA
HETATM   10  H   UNK N   1       7.755  -0.657  -0.255  0.00  0.00     0.167 HD
ENDBRANCH   7   9
ENDBRANCH   6   7
ENDBRANCH   5   6
ENDBRANCH   4   5
ENDBRANCH   3   4
ENDBRANCH   2   3
ENDBRANCH   1   2
BRANCH   1  11
HETATM   11  C   UNK N   1       2.549  -0.111  -0.215  0.00  0.00    -0.050 A 
HETATM   12  C   UNK N   1       3.535  -0.940  -0.776  0.00  0.00     0.008 A 
HETATM   13  C   UNK N   1       3.741  -2.233  -0.288  0.00  0.00     0.001 A 
HETATM   14  C   UNK N   1       2.955  -2.716   0.759  0.00  0.00     0.000 A 
HETATM   15  C   UNK N   1       1.970  -1.902   1.326  0.00  0.00     0.001 A 
HETATM   16  C   UNK N   1       1.771  -0.602   0.846  0.00  0.00     0.008 A 
ENDBRANCH   1  11
BRANCH   1  17
HETATM   17  C   UNK N   1       1.059   2.042  -0.394  0.00  0.00     0.011 A 
HETATM   18  C   UNK N   1       1.014   3.327   0.090  0.00  0.00    -0.000 A 
HETATM   19  C   UNK N   1       2.234   4.161   0.326  0.00  0.00     0.053 C 
HETATM   20  C   UNK N   1      -0.295   3.975   0.381  0.00  0.00     0.185 A 
HETATM   21  C   UNK N   1      -1.564   3.250   0.162  0.00  0.00    -0.002 A 
HETATM   22  O   UNK N   1      -0.324   5.127   0.797  0.00  0.00    -0.287 OA
HETATM   23  C   UNK N   1      -2.864   3.936   0.469  0.00  0.00     0.053 C 
HETATM   24  C   UNK N   1      -1.541   1.991  -0.315  0.00  0.00    -0.002 A 
HETATM   25  C   UNK N   1      -2.819   1.238  -0.548  0.00  0.00     0.053 C 
HETATM   26  C   UNK N   1      -0.245   1.335  -0.627  0.00  0.00     0.186 A 
HETATM   27  O   UNK N   1      -0.251   0.206  -1.099  0.00  0.00    -0.287 OA
ENDBRANCH   1  17
TORSDOF 9
