MODEL 1
REMARK VINA RESULT:      -4.5      0.000      0.000
REMARK  6 active torsions:
REMARK  status: ('A' for Active; 'I' for Inactive)
REMARK    1  A    between atoms: C_4  and  C_2 
REMARK    2  A    between atoms: N_6  and  C_2 
REMARK    3  A    between atoms: C_5  and  C_3 
REMARK    4  A    between atoms: S_11  and  C_3 
REMARK    5  A    between atoms: O_9  and  C_4 
REMARK    6  A    between atoms: O_10  and  C_5 
ROOT
HETATM    1  C   UNK N   1      19.814  18.248   2.258  0.00  0.00     0.125 C 
HETATM    2  N   UNK N   1      20.775  19.095   2.179  0.00  0.00    -0.364 N 
ATOM      3  HN  UNK N   1      21.717  18.743   2.005  1.00  0.00     0.161 HD
ENDROOT
BRANCH   1   4
HETATM    4  C   UNK N   1      20.112  16.790   2.091  0.00  0.00     0.114 C 
HETATM    5  C   UNK N   1      20.075  16.130   0.728  0.00  0.00     0.030 C 
BRANCH   4   6
HETATM    6  S   UNK N   1      20.527  15.779   3.547  0.00  0.00    -0.170 SA
HETATM    7  H   UNK N   1      19.978  14.543   3.697  0.00  0.00     0.102 HD
ENDBRANCH   4   6
ENDBRANCH   1   4
BRANCH   1   8
HETATM    8  O   UNK N   1      18.545  18.659   2.488  0.00  0.00    -0.349 OA
HETATM    9  H   UNK N   1      18.354  19.193   3.234  0.00  0.00     0.219 HD
ENDBRANCH   1   8
BRANCH   2  10
HETATM   10  C   UNK N   1      20.594  20.516   2.325  0.00  0.00     0.231 C 
BRANCH  10  11
HETATM   11  C   UNK N   1      20.734  21.178   0.989  0.00  0.00     0.158 C 
HETATM   12  O   UNK N   1      21.171  20.546   0.043  0.00  0.00    -0.649 OA
BRANCH  11  13
HETATM   13  O   UNK N   1      20.380  22.470   0.821  0.00  0.00    -0.775 OA
HETATM   14  H   UNK N   1      21.031  23.110   0.613  0.00  0.00     0.167 HD
ENDBRANCH  11  13
ENDBRANCH  10  11
ENDBRANCH   2  10
TORSDOF 6
ENDMDL
MODEL 2
REMARK VINA RESULT:      -4.4     13.562     13.963
REMARK  6 active torsions:
REMARK  status: ('A' for Active; 'I' for Inactive)
REMARK    1  A    between atoms: C_4  and  C_2 
REMARK    2  A    between atoms: N_6  and  C_2 
REMARK    3  A    between atoms: C_5  and  C_3 
REMARK    4  A    between atoms: S_11  and  C_3 
REMARK    5  A    between atoms: O_9  and  C_4 
REMARK    6  A    between atoms: O_10  and  C_5 
ROOT
HETATM    1  C   UNK N   1      31.468  17.288   8.162  0.00  0.00     0.125 C 
HETATM    2  N   UNK N   1      32.399  17.646   8.970  0.00  0.00    -0.364 N 
ATOM      3  HN  UNK N   1      32.156  18.260   9.747  1.00  0.00     0.161 HD
ENDROOT
BRANCH   1   4
HETATM    4  C   UNK N   1      30.073  17.784   8.393  0.00  0.00     0.114 C 
HETATM    5  C   UNK N   1      29.720  18.593   9.623  0.00  0.00     0.030 C 
BRANCH   4   6
HETATM    6  S   UNK N   1      28.768  17.413   7.179  0.00  0.00    -0.170 SA
HETATM    7  H   UNK N   1      29.078  17.301   5.859  0.00  0.00     0.102 HD
ENDBRANCH   4   6
ENDBRANCH   1   4
BRANCH   1   8
HETATM    8  O   UNK N   1      31.733  16.475   7.113  0.00  0.00    -0.349 OA
HETATM    9  H   UNK N   1      31.371  15.611   7.088  0.00  0.00     0.219 HD
ENDBRANCH   1   8
BRANCH   2  10
HETATM   10  C   UNK N   1      33.770  17.225   8.835  0.00  0.00     0.231 C 
BRANCH  10  11
HETATM   11  C   UNK N   1      34.510  18.200   7.971  0.00  0.00     0.158 C 
HETATM   12  O   UNK N   1      34.447  18.103   6.758  0.00  0.00    -0.649 OA
BRANCH  11  13
HETATM   13  O   UNK N   1      35.248  19.185   8.524  0.00  0.00    -0.775 OA
HETATM   14  H   UNK N   1      35.501  19.925   8.009  0.00  0.00     0.167 HD
ENDBRANCH  11  13
ENDBRANCH  10  11
ENDBRANCH   2  10
TORSDOF 6
ENDMDL
MODEL 3
REMARK VINA RESULT:      -4.4     16.560     16.846
REMARK  6 active torsions:
REMARK  status: ('A' for Active; 'I' for Inactive)
REMARK    1  A    between atoms: C_4  and  C_2 
REMARK    2  A    between atoms: N_6  and  C_2 
REMARK    3  A    between atoms: C_5  and  C_3 
REMARK    4  A    between atoms: S_11  and  C_3 
REMARK    5  A    between atoms: O_9  and  C_4 
REMARK    6  A    between atoms: O_10  and  C_5 
ROOT
HETATM    1  C   UNK N   1      34.896  16.136  10.241  0.00  0.00     0.125 C 
HETATM    2  N   UNK N   1      34.162  16.192   9.190  0.00  0.00    -0.364 N 
ATOM      3  HN  UNK N   1      34.039  15.343   8.639  1.00  0.00     0.161 HD
ENDROOT
BRANCH   1   4
HETATM    4  C   UNK N   1      35.535  14.833  10.613  0.00  0.00     0.114 C 
HETATM    5  C   UNK N   1      34.965  13.963  11.714  0.00  0.00     0.030 C 
BRANCH   4   6
HETATM    6  S   UNK N   1      37.028  14.274   9.733  0.00  0.00    -0.170 SA
HETATM    7  H   UNK N   1      37.584  13.069  10.034  0.00  0.00     0.102 HD
ENDBRANCH   4   6
ENDBRANCH   1   4
BRANCH   1   8
HETATM    8  O   UNK N   1      35.094  17.232  11.009  0.00  0.00    -0.349 OA
HETATM    9  H   UNK N   1      35.598  17.167  11.796  0.00  0.00     0.219 HD
ENDBRANCH   1   8
BRANCH   2  10
HETATM   10  C   UNK N   1      33.504  17.395   8.746  0.00  0.00     0.231 C 
BRANCH  10  11
HETATM   11  C   UNK N   1      34.453  18.210   7.922  0.00  0.00     0.158 C 
HETATM   12  O   UNK N   1      34.518  18.031   6.718  0.00  0.00    -0.649 OA
BRANCH  11  13
HETATM   13  O   UNK N   1      35.239  19.142   8.500  0.00  0.00    -0.775 OA
HETATM   14  H   UNK N   1      34.906  19.663   9.205  0.00  0.00     0.167 HD
ENDBRANCH  11  13
ENDBRANCH  10  11
ENDBRANCH   2  10
TORSDOF 6
ENDMDL
MODEL 4
REMARK VINA RESULT:      -4.2     19.123     19.418
REMARK  6 active torsions:
REMARK  status: ('A' for Active; 'I' for Inactive)
REMARK    1  A    between atoms: C_4  and  C_2 
REMARK    2  A    between atoms: N_6  and  C_2 
REMARK    3  A    between atoms: C_5  and  C_3 
REMARK    4  A    between atoms: S_11  and  C_3 
REMARK    5  A    between atoms: O_9  and  C_4 
REMARK    6  A    between atoms: O_10  and  C_5 
ROOT
HETATM    1  C   UNK N   1      35.631  13.979  13.090  0.00  0.00     0.125 C 
HETATM    2  N   UNK N   1      36.463  14.678  12.408  0.00  0.00    -0.364 N 
ATOM      3  HN  UNK N   1      37.272  15.072  12.888  1.00  0.00     0.161 HD
ENDROOT
BRANCH   1   4
HETATM    4  C   UNK N   1      35.881  13.772  14.552  0.00  0.00     0.114 C 
HETATM    5  C   UNK N   1      37.005  14.491  15.268  0.00  0.00     0.030 C 
BRANCH   4   6
HETATM    6  S   UNK N   1      34.819  12.636  15.500  0.00  0.00    -0.170 SA
HETATM    7  H   UNK N   1      35.086  12.389  16.811  0.00  0.00     0.102 HD
ENDBRANCH   4   6
ENDBRANCH   1   4
BRANCH   1   8
HETATM    8  O   UNK N   1      34.541  13.432  12.504  0.00  0.00    -0.349 OA
HETATM    9  H   UNK N   1      34.046  13.928  11.882  0.00  0.00     0.219 HD
ENDBRANCH   1   8
BRANCH   2  10
HETATM   10  C   UNK N   1      36.314  14.936  10.998  0.00  0.00     0.231 C 
BRANCH  10  11
HETATM   11  C   UNK N   1      35.416  16.118  10.799  0.00  0.00     0.158 C 
HETATM   12  O   UNK N   1      35.900  17.224  10.625  0.00  0.00    -0.649 OA
BRANCH  11  13
HETATM   13  O   UNK N   1      34.075  15.972  10.808  0.00  0.00    -0.775 OA
HETATM   14  H   UNK N   1      33.541  16.581  11.278  0.00  0.00     0.167 HD
ENDBRANCH  11  13
ENDBRANCH  10  11
ENDBRANCH   2  10
TORSDOF 6
ENDMDL
MODEL 5
REMARK VINA RESULT:      -4.1      2.916      3.778
REMARK  6 active torsions:
REMARK  status: ('A' for Active; 'I' for Inactive)
REMARK    1  A    between atoms: C_4  and  C_2 
REMARK    2  A    between atoms: N_6  and  C_2 
REMARK    3  A    between atoms: C_5  and  C_3 
REMARK    4  A    between atoms: S_11  and  C_3 
REMARK    5  A    between atoms: O_9  and  C_4 
REMARK    6  A    between atoms: O_10  and  C_5 
ROOT
HETATM    1  C   UNK N   1      23.034  20.101   3.203  0.00  0.00     0.125 C 
HETATM    2  N   UNK N   1      21.842  19.681   2.983  0.00  0.00    -0.364 N 
ATOM      3  HN  UNK N   1      21.601  18.733   3.275  1.00  0.00     0.161 HD
ENDROOT
BRANCH   1   4
HETATM    4  C   UNK N   1      24.016  19.189   3.874  0.00  0.00     0.114 C 
HETATM    5  C   UNK N   1      25.509  19.373   3.697  0.00  0.00     0.030 C 
BRANCH   4   6
HETATM    6  S   UNK N   1      23.415  17.830   4.926  0.00  0.00    -0.170 SA
HETATM    7  H   UNK N   1      22.113  17.442   4.859  0.00  0.00     0.102 HD
ENDBRANCH   4   6
ENDBRANCH   1   4
BRANCH   1   8
HETATM    8  O   UNK N   1      23.409  21.349   2.837  0.00  0.00    -0.349 OA
HETATM    9  H   UNK N   1      23.295  21.630   1.951  0.00  0.00     0.219 HD
ENDBRANCH   1   8
BRANCH   2  10
HETATM   10  C   UNK N   1      20.826  20.478   2.345  0.00  0.00     0.231 C 
BRANCH  10  11
HETATM   11  C   UNK N   1      20.728  20.100   0.899  0.00  0.00     0.158 C 
HETATM   12  O   UNK N   1      20.617  18.927   0.586  0.00  0.00    -0.649 OA
BRANCH  11  13
HETATM   13  O   UNK N   1      20.762  21.046  -0.062  0.00  0.00    -0.775 OA
HETATM   14  H   UNK N   1      20.825  20.796  -0.963  0.00  0.00     0.167 HD
ENDBRANCH  11  13
ENDBRANCH  10  11
ENDBRANCH   2  10
TORSDOF 6
ENDMDL
MODEL 6
REMARK VINA RESULT:      -3.9     16.289     16.741
REMARK  6 active torsions:
REMARK  status: ('A' for Active; 'I' for Inactive)
REMARK    1  A    between atoms: C_4  and  C_2 
REMARK    2  A    between atoms: N_6  and  C_2 
REMARK    3  A    between atoms: C_5  and  C_3 
REMARK    4  A    between atoms: S_11  and  C_3 
REMARK    5  A    between atoms: O_9  and  C_4 
REMARK    6  A    between atoms: O_10  and  C_5 
ROOT
HETATM    1  C   UNK N   1      34.278  17.552   8.883  0.00  0.00     0.125 C 
HETATM    2  N   UNK N   1      34.292  16.620   9.765  0.00  0.00    -0.364 N 
ATOM      3  HN  UNK N   1      33.565  15.905   9.726  1.00  0.00     0.161 HD
ENDROOT
BRANCH   1   4
HETATM    4  C   UNK N   1      33.204  17.550   7.839  0.00  0.00     0.114 C 
HETATM    5  C   UNK N   1      33.541  17.506   6.363  0.00  0.00     0.030 C 
BRANCH   4   6
HETATM    6  S   UNK N   1      31.454  17.602   8.340  0.00  0.00    -0.170 SA
HETATM    7  H   UNK N   1      30.829  16.465   8.749  0.00  0.00     0.102 HD
ENDBRANCH   4   6
ENDBRANCH   1   4
BRANCH   1   8
HETATM    8  O   UNK N   1      35.217  18.526   8.887  0.00  0.00    -0.349 OA
HETATM    9  H   UNK N   1      35.079  19.311   8.395  0.00  0.00     0.219 HD
ENDBRANCH   1   8
BRANCH   2  10
HETATM   10  C   UNK N   1      35.280  16.532  10.809  0.00  0.00     0.231 C 
BRANCH  10  11
HETATM   11  C   UNK N   1      35.087  15.259  11.575  0.00  0.00     0.158 C 
HETATM   12  O   UNK N   1      35.989  14.829  12.273  0.00  0.00    -0.649 OA
BRANCH  11  13
HETATM   13  O   UNK N   1      33.921  14.582  11.500  0.00  0.00    -0.775 OA
HETATM   14  H   UNK N   1      33.132  14.974  11.817  0.00  0.00     0.167 HD
ENDBRANCH  11  13
ENDBRANCH  10  11
ENDBRANCH   2  10
TORSDOF 6
ENDMDL
MODEL 7
REMARK VINA RESULT:      -3.9      1.781      2.109
REMARK  6 active torsions:
REMARK  status: ('A' for Active; 'I' for Inactive)
REMARK    1  A    between atoms: C_4  and  C_2 
REMARK    2  A    between atoms: N_6  and  C_2 
REMARK    3  A    between atoms: C_5  and  C_3 
REMARK    4  A    between atoms: S_11  and  C_3 
REMARK    5  A    between atoms: O_9  and  C_4 
REMARK    6  A    between atoms: O_10  and  C_5 
ROOT
HETATM    1  C   UNK N   1      20.089  17.570   2.848  0.00  0.00     0.125 C 
HETATM    2  N   UNK N   1      20.945  18.358   2.306  0.00  0.00    -0.364 N 
ATOM      3  HN  UNK N   1      21.911  18.041   2.226  1.00  0.00     0.161 HD
ENDROOT
BRANCH   1   4
HETATM    4  C   UNK N   1      20.541  16.228   3.335  0.00  0.00     0.114 C 
HETATM    5  C   UNK N   1      19.546  15.141   3.685  0.00  0.00     0.030 C 
BRANCH   4   6
HETATM    6  S   UNK N   1      22.320  15.882   3.514  0.00  0.00    -0.170 SA
HETATM    7  H   UNK N   1      22.737  14.851   4.297  0.00  0.00     0.102 HD
ENDBRANCH   4   6
ENDBRANCH   1   4
BRANCH   1   8
HETATM    8  O   UNK N   1      18.794  17.938   2.981  0.00  0.00    -0.349 OA
HETATM    9  H   UNK N   1      18.549  18.836   2.869  0.00  0.00     0.219 HD
ENDBRANCH   1   8
BRANCH   2  10
HETATM   10  C   UNK N   1      20.612  19.668   1.807  0.00  0.00     0.231 C 
BRANCH  10  11
HETATM   11  C   UNK N   1      20.894  20.692   2.863  0.00  0.00     0.158 C 
HETATM   12  O   UNK N   1      20.235  20.702   3.888  0.00  0.00    -0.649 OA
BRANCH  11  13
HETATM   13  O   UNK N   1      21.872  21.606   2.690  0.00  0.00    -0.775 OA
HETATM   14  H   UNK N   1      21.777  22.466   3.048  0.00  0.00     0.167 HD
ENDBRANCH  11  13
ENDBRANCH  10  11
ENDBRANCH   2  10
TORSDOF 6
ENDMDL
MODEL 8
REMARK VINA RESULT:      -3.7      9.877     11.257
REMARK  6 active torsions:
REMARK  status: ('A' for Active; 'I' for Inactive)
REMARK    1  A    between atoms: C_4  and  C_2 
REMARK    2  A    between atoms: N_6  and  C_2 
REMARK    3  A    between atoms: C_5  and  C_3 
REMARK    4  A    between atoms: S_11  and  C_3 
REMARK    5  A    between atoms: O_9  and  C_4 
REMARK    6  A    between atoms: O_10  and  C_5 
ROOT
HETATM    1  C   UNK N   1      22.157  13.203   9.105  0.00  0.00     0.125 C 
HETATM    2  N   UNK N   1      22.923  13.037  10.122  0.00  0.00    -0.364 N 
ATOM      3  HN  UNK N   1      23.816  13.528  10.141  1.00  0.00     0.161 HD
ENDROOT
BRANCH   1   4
HETATM    4  C   UNK N   1      22.605  14.105   7.996  0.00  0.00     0.114 C 
HETATM    5  C   UNK N   1      23.971  13.951   7.359  0.00  0.00     0.030 C 
BRANCH   4   6
HETATM    6  S   UNK N   1      21.497  15.417   7.393  0.00  0.00    -0.170 SA
HETATM    7  H   UNK N   1      21.568  15.826   6.097  0.00  0.00     0.102 HD
ENDBRANCH   4   6
ENDBRANCH   1   4
BRANCH   1   8
HETATM    8  O   UNK N   1      20.961  12.576   9.027  0.00  0.00    -0.349 OA
HETATM    9  H   UNK N   1      20.169  13.077   9.019  0.00  0.00     0.219 HD
ENDBRANCH   1   8
BRANCH   2  10
HETATM   10  C   UNK N   1      22.585  12.192  11.239  0.00  0.00     0.231 C 
BRANCH  10  11
HETATM   11  C   UNK N   1      23.742  12.130  12.187  0.00  0.00     0.158 C 
HETATM   12  O   UNK N   1      23.540  12.012  13.383  0.00  0.00    -0.649 OA
BRANCH  11  13
HETATM   13  O   UNK N   1      25.010  12.204  11.730  0.00  0.00    -0.775 OA
HETATM   14  H   UNK N   1      25.537  11.431  11.684  0.00  0.00     0.167 HD
ENDBRANCH  11  13
ENDBRANCH  10  11
ENDBRANCH   2  10
TORSDOF 6
ENDMDL
MODEL 9
REMARK VINA RESULT:      -3.7     19.401     19.707
REMARK  6 active torsions:
REMARK  status: ('A' for Active; 'I' for Inactive)
REMARK    1  A    between atoms: C_4  and  C_2 
REMARK    2  A    between atoms: N_6  and  C_2 
REMARK    3  A    between atoms: C_5  and  C_3 
REMARK    4  A    between atoms: S_11  and  C_3 
REMARK    5  A    between atoms: O_9  and  C_4 
REMARK    6  A    between atoms: O_10  and  C_5 
ROOT
HETATM    1  C   UNK N   1      36.051  13.389  12.473  0.00  0.00     0.125 C 
HETATM    2  N   UNK N   1      35.593  14.586  12.526  0.00  0.00    -0.364 N 
ATOM      3  HN  UNK N   1      35.690  15.103  13.401  1.00  0.00     0.161 HD
ENDROOT
BRANCH   1   4
HETATM    4  C   UNK N   1      36.703  12.803  13.688  0.00  0.00     0.114 C 
HETATM    5  C   UNK N   1      37.460  11.493  13.621  0.00  0.00     0.030 C 
BRANCH   4   6
HETATM    6  S   UNK N   1      36.591  13.674  15.283  0.00  0.00    -0.170 SA
HETATM    7  H   UNK N   1      35.375  14.012  15.790  0.00  0.00     0.102 HD
ENDBRANCH   4   6
ENDBRANCH   1   4
BRANCH   1   8
HETATM    8  O   UNK N   1      35.951  12.657  11.339  0.00  0.00    -0.349 OA
HETATM    9  H   UNK N   1      35.338  11.950  11.291  0.00  0.00     0.219 HD
ENDBRANCH   1   8
BRANCH   2  10
HETATM   10  C   UNK N   1      34.950  15.240  11.415  0.00  0.00     0.231 C 
BRANCH  10  11
HETATM   11  C   UNK N   1      35.881  16.255  10.826  0.00  0.00     0.158 C 
HETATM   12  O   UNK N   1      35.436  17.303  10.390  0.00  0.00    -0.649 OA
BRANCH  11  13
HETATM   13  O   UNK N   1      37.209  16.021  10.771  0.00  0.00    -0.775 OA
HETATM   14  H   UNK N   1      37.813  16.728  10.880  0.00  0.00     0.167 HD
ENDBRANCH  11  13
ENDBRANCH  10  11
ENDBRANCH   2  10
TORSDOF 6
ENDMDL
