MODEL 1
REMARK VINA RESULT:      -6.8      0.000      0.000
REMARK  22 active torsions:
REMARK  status: ('A' for Active; 'I' for Inactive)
REMARK    1  A    between atoms: C_1  and  S_13 
REMARK    2  A    between atoms: C_4  and  N_17 
REMARK    3  A    between atoms: C_19  and  N_12 
REMARK    4  A    between atoms: S_13  and  C_14 
REMARK    5  A    between atoms: C_14  and  C_15 
REMARK    6  A    between atoms: C_15  and  C_16 
REMARK    7  A    between atoms: C_18  and  N_17 
REMARK    8  A    between atoms: C_18  and  C_29 
REMARK    9  A    between atoms: C_21  and  C_28 
REMARK   10  A    between atoms: C_22  and  O_25 
REMARK   11  A    between atoms: C_23  and  O_24 
REMARK   12  A    between atoms: P_26  and  O_27 
REMARK   13  A    between atoms: P_26  and  O_35 
REMARK   14  A    between atoms: P_26  and  O_40 
REMARK   15  A    between atoms: O_27  and  C_28 
REMARK   16  A    between atoms: C_29  and  S_30 
REMARK   17  A    between atoms: O_35  and  P_36 
REMARK   18  A    between atoms: P_36  and  C_37 
REMARK   19  A    between atoms: P_36  and  O_42 
REMARK   20  A    between atoms: C_37  and  P_38 
REMARK   21  A    between atoms: P_38  and  O_39 
REMARK   22  A    between atoms: P_38  and  O_46 
ROOT
HETATM    1  C   UNK N   1      32.871  16.395   8.621  0.00  0.00     0.262 C 
HETATM    2  O   UNK N   1      33.706  15.865   7.605  0.00  0.00    -0.353 OA
HETATM    3  C   UNK N   1      34.170  14.619   8.076  0.00  0.00     0.180 C 
HETATM    4  C   UNK N   1      33.098  14.106   9.019  0.00  0.00     0.182 C 
HETATM    5  C   UNK N   1      32.766  15.364   9.745  0.00  0.00     0.198 C 
ENDROOT
BRANCH   1   6
HETATM    6  N   UNK N   1      31.573  16.785   8.078  0.00  0.00    -0.297 N 
HETATM    7  C   UNK N   1      30.806  17.811   8.523  0.00  0.00     0.188 A 
HETATM    8  N   UNK N   1      29.619  17.866   7.853  0.00  0.00    -0.346 N 
HETATM    9  C   UNK N   1      29.680  16.840   6.984  0.00  0.00     0.122 A 
ATOM     10  HN  UNK N   1      28.858  18.534   7.981  1.00  0.00     0.167 HD
HETATM   11  C   UNK N   1      28.732  16.377   6.084  0.00  0.00     0.134 A 
HETATM   12  C   UNK N   1      30.858  16.203   7.111  0.00  0.00     0.143 A 
HETATM   13  N   UNK N   1      29.060  15.280   5.332  0.00  0.00    -0.321 N 
HETATM   14  C   UNK N   1      30.273  14.648   5.478  0.00  0.00     0.147 A 
ATOM     15  HN  UNK N   1      28.390  14.924   4.650  1.00  0.00     0.169 HD
HETATM   16  N   UNK N   1      31.184  15.113   6.383  0.00  0.00    -0.321 N 
ATOM     17  HN  UNK N   1      32.083  14.649   6.507  1.00  0.00     0.169 HD
BRANCH  11  18
HETATM   18  N   UNK N   1      27.459  17.006   5.991  0.00  0.00    -0.373 N 
HETATM   19  H   UNK N   1      27.454  17.991   5.988  0.00  0.00     0.161 HD
BRANCH  18  20
HETATM   20  C   UNK N   1      26.165  16.348   5.899  0.00  0.00     0.131 C 
BRANCH  20  21
HETATM   21  C   UNK N   1      25.298  16.812   4.735  0.00  0.00     0.093 C 
BRANCH  21  22
HETATM   22  S   UNK N   1      26.109  18.155   3.824  0.00  0.00    -0.172 SA
HETATM   23  C   UNK N   1      25.181  19.434   4.716  0.00  0.00     0.089 C 
ENDBRANCH  21  22
ENDBRANCH  20  21
ENDBRANCH  18  20
ENDBRANCH  11  18
BRANCH  14  24
HETATM   24  S   UNK N   1      30.682  13.199   4.501  0.00  0.00    -0.093 SA
BRANCH  24  25
HETATM   25  C   UNK N   1      32.195  13.880   3.754  0.00  0.00     0.091 C 
BRANCH  25  26
HETATM   26  C   UNK N   1      31.923  15.208   3.066  0.00  0.00     0.128 C 
BRANCH  26  27
HETATM   27  C   UNK N   1      32.999  16.230   3.411  0.00  0.00     0.388 C 
HETATM   28  F   UNK N   1      32.397  17.424   3.757  0.00  0.00    -0.171 F 
HETATM   29  F   UNK N   1      33.813  16.437   2.312  0.00  0.00    -0.171 F 
HETATM   30  F   UNK N   1      33.767  15.790   4.475  0.00  0.00    -0.171 F 
ENDBRANCH  26  27
ENDBRANCH  25  26
ENDBRANCH  24  25
ENDBRANCH  14  24
ENDBRANCH   1   6
BRANCH   5  31
HETATM   31  O   UNK N   1      31.510  15.312  10.352  0.00  0.00    -0.388 OA
HETATM   32  H   UNK N   1      31.288  15.039  11.255  0.00  0.00     0.210 HD
ENDBRANCH   5  31
BRANCH   3  33
HETATM   33  C   UNK N   1      35.589  14.768   8.685  0.00  0.00     0.215 C 
BRANCH  33  34
HETATM   34  O   UNK N   1      36.106  13.563   9.186  0.00  0.00    -0.294 OA
BRANCH  34  35
HETATM   35  P   UNK N   1      37.117  13.934  10.560  0.00  0.00     0.400 P 
HETATM   36  O   UNK N   1      38.565  13.741  10.038  0.00  0.00    -0.631 OA
BRANCH  35  37
HETATM   37  O   UNK N   1      36.984  12.794  11.873  0.00  0.00    -0.215 OA
BRANCH  37  38
HETATM   38  P   UNK N   1      36.048  13.504  13.163  0.00  0.00     0.299 P 
HETATM   39  O   UNK N   1      34.787  14.046  12.441  0.00  0.00    -0.651 OA
BRANCH  38  40
HETATM   40  C   UNK N   1      35.539  12.254  14.436  0.00  0.00     0.305 C 
HETATM   41 Cl   UNK N   1      36.996  11.542  15.169  0.00  0.00    -0.076 Cl
HETATM   42 Cl   UNK N   1      34.581  13.062  15.697  0.00  0.00    -0.076 Cl
BRANCH  40  43
HETATM   43  P   UNK N   1      34.527  10.920  13.635  0.00  0.00     0.288 P 
HETATM   44  O   UNK N   1      33.135  10.812  14.314  0.00  0.00    -0.651 OA
BRANCH  43  45
HETATM   45  O   UNK N   1      35.188   9.320  13.761  0.00  0.00    -0.327 OA
HETATM   46  H   UNK N   1      35.846   8.624  13.607  0.00  0.00     0.220 HD
ENDBRANCH  43  45
BRANCH  43  47
HETATM   47  O   UNK N   1      34.162  11.188  11.959  0.00  0.00    -0.327 OA
HETATM   48  H   UNK N   1      33.283  11.497  11.692  0.00  0.00     0.220 HD
ENDBRANCH  43  47
ENDBRANCH  40  43
ENDBRANCH  38  40
BRANCH  38  49
HETATM   49  O   UNK N   1      36.813  14.941  13.774  0.00  0.00    -0.326 OA
HETATM   50  H   UNK N   1      37.774  15.062  13.707  0.00  0.00     0.220 HD
ENDBRANCH  38  49
ENDBRANCH  37  38
ENDBRANCH  35  37
BRANCH  35  51
HETATM   51  O   UNK N   1      37.047  15.600  11.047  0.00  0.00    -0.307 OA
HETATM   52  H   UNK N   1      37.847  16.142  11.120  0.00  0.00     0.222 HD
ENDBRANCH  35  51
ENDBRANCH  34  35
ENDBRANCH  33  34
ENDBRANCH   3  33
BRANCH   4  53
HETATM   53  O   UNK N   1      33.548  13.096   9.871  0.00  0.00    -0.390 OA
HETATM   54  H   UNK N   1      34.489  12.926  10.036  0.00  0.00     0.210 HD
ENDBRANCH   4  53
TORSDOF 22
ENDMDL
MODEL 2
REMARK VINA RESULT:      -6.6      4.630      6.695
REMARK  22 active torsions:
REMARK  status: ('A' for Active; 'I' for Inactive)
REMARK    1  A    between atoms: C_1  and  S_13 
REMARK    2  A    between atoms: C_4  and  N_17 
REMARK    3  A    between atoms: C_19  and  N_12 
REMARK    4  A    between atoms: S_13  and  C_14 
REMARK    5  A    between atoms: C_14  and  C_15 
REMARK    6  A    between atoms: C_15  and  C_16 
REMARK    7  A    between atoms: C_18  and  N_17 
REMARK    8  A    between atoms: C_18  and  C_29 
REMARK    9  A    between atoms: C_21  and  C_28 
REMARK   10  A    between atoms: C_22  and  O_25 
REMARK   11  A    between atoms: C_23  and  O_24 
REMARK   12  A    between atoms: P_26  and  O_27 
REMARK   13  A    between atoms: P_26  and  O_35 
REMARK   14  A    between atoms: P_26  and  O_40 
REMARK   15  A    between atoms: O_27  and  C_28 
REMARK   16  A    between atoms: C_29  and  S_30 
REMARK   17  A    between atoms: O_35  and  P_36 
REMARK   18  A    between atoms: P_36  and  C_37 
REMARK   19  A    between atoms: P_36  and  O_42 
REMARK   20  A    between atoms: C_37  and  P_38 
REMARK   21  A    between atoms: P_38  and  O_39 
REMARK   22  A    between atoms: P_38  and  O_46 
ROOT
HETATM    1  C   UNK N   1      28.719  17.762   6.578  0.00  0.00     0.262 C 
HETATM    2  O   UNK N   1      29.727  16.768   6.663  0.00  0.00    -0.353 OA
HETATM    3  C   UNK N   1      30.447  17.026   7.848  0.00  0.00     0.180 C 
HETATM    4  C   UNK N   1      29.469  17.706   8.787  0.00  0.00     0.182 C 
HETATM    5  C   UNK N   1      28.792  18.630   7.835  0.00  0.00     0.198 C 
ENDROOT
BRANCH   1   6
HETATM    6  N   UNK N   1      27.407  17.157   6.373  0.00  0.00    -0.297 N 
HETATM    7  C   UNK N   1      26.967  16.010   6.946  0.00  0.00     0.188 A 
HETATM    8  N   UNK N   1      25.725  15.676   6.493  0.00  0.00    -0.346 N 
HETATM    9  C   UNK N   1      25.416  16.652   5.620  0.00  0.00     0.122 A 
ATOM     10  HN  UNK N   1      25.158  14.869   6.756  1.00  0.00     0.167 HD
HETATM   11  C   UNK N   1      24.300  16.806   4.811  0.00  0.00     0.134 A 
HETATM   12  C   UNK N   1      26.420  17.546   5.561  0.00  0.00     0.143 A 
HETATM   13  N   UNK N   1      24.263  17.901   3.989  0.00  0.00    -0.321 N 
HETATM   14  C   UNK N   1      25.301  18.803   3.950  0.00  0.00     0.147 A 
ATOM     15  HN  UNK N   1      23.449  18.050   3.393  1.00  0.00     0.169 HD
HETATM   16  N   UNK N   1      26.397  18.621   4.743  0.00  0.00    -0.321 N 
ATOM     17  HN  UNK N   1      27.177  19.278   4.718  1.00  0.00     0.169 HD
BRANCH  11  18
HETATM   18  N   UNK N   1      23.265  15.829   4.821  0.00  0.00    -0.373 N 
HETATM   19  H   UNK N   1      22.589  15.911   5.532  0.00  0.00     0.161 HD
BRANCH  18  20
HETATM   20  C   UNK N   1      23.099  14.724   3.890  0.00  0.00     0.131 C 
BRANCH  20  21
HETATM   21  C   UNK N   1      22.001  14.926   2.853  0.00  0.00     0.093 C 
BRANCH  21  22
HETATM   22  S   UNK N   1      22.532  14.316   1.228  0.00  0.00    -0.172 SA
HETATM   23  C   UNK N   1      24.285  14.595   1.603  0.00  0.00     0.089 C 
ENDBRANCH  21  22
ENDBRANCH  20  21
ENDBRANCH  18  20
ENDBRANCH  11  18
BRANCH  14  24
HETATM   24  S   UNK N   1      25.248  20.222   2.852  0.00  0.00    -0.093 SA
BRANCH  24  25
HETATM   25  C   UNK N   1      23.486  20.604   3.102  0.00  0.00     0.091 C 
BRANCH  25  26
HETATM   26  C   UNK N   1      22.722  20.573   1.788  0.00  0.00     0.128 C 
BRANCH  26  27
HETATM   27  C   UNK N   1      21.234  20.348   2.029  0.00  0.00     0.388 C 
HETATM   28  F   UNK N   1      20.995  18.993   2.151  0.00  0.00    -0.171 F 
HETATM   29  F   UNK N   1      20.511  20.840   0.958  0.00  0.00    -0.171 F 
HETATM   30  F   UNK N   1      20.826  20.982   3.190  0.00  0.00    -0.171 F 
ENDBRANCH  26  27
ENDBRANCH  25  26
ENDBRANCH  24  25
ENDBRANCH  14  24
ENDBRANCH   1   6
BRANCH   5  31
HETATM   31  O   UNK N   1      27.546  19.055   8.302  0.00  0.00    -0.388 OA
HETATM   32  H   UNK N   1      26.666  18.739   8.044  0.00  0.00     0.210 HD
ENDBRANCH   5  31
BRANCH   3  33
HETATM   33  C   UNK N   1      31.741  17.820   7.530  0.00  0.00     0.215 C 
BRANCH  33  34
HETATM   34  O   UNK N   1      32.608  17.929   8.629  0.00  0.00    -0.294 OA
BRANCH  34  35
HETATM   35  P   UNK N   1      34.247  17.789   8.045  0.00  0.00     0.400 P 
HETATM   36  O   UNK N   1      34.129  17.988   6.511  0.00  0.00    -0.631 OA
BRANCH  35  37
HETATM   37  O   UNK N   1      34.931  16.194   8.214  0.00  0.00    -0.215 OA
BRANCH  37  38
HETATM   38  P   UNK N   1      34.841  15.699   9.884  0.00  0.00     0.299 P 
HETATM   39  O   UNK N   1      33.355  15.288  10.062  0.00  0.00    -0.651 OA
BRANCH  38  40
HETATM   40  C   UNK N   1      35.930  14.243  10.249  0.00  0.00     0.305 C 
HETATM   41 Cl   UNK N   1      35.301  12.815   9.391  0.00  0.00    -0.076 Cl
HETATM   42 Cl   UNK N   1      37.579  14.589   9.681  0.00  0.00    -0.076 Cl
BRANCH  40  43
HETATM   43  P   UNK N   1      35.951  13.915  12.076  0.00  0.00     0.288 P 
HETATM   44  O   UNK N   1      37.006  12.832  12.423  0.00  0.00    -0.651 OA
BRANCH  43  45
HETATM   45  O   UNK N   1      34.468  13.290  12.728  0.00  0.00    -0.327 OA
HETATM   46  H   UNK N   1      33.611  13.347  13.178  0.00  0.00     0.220 HD
ENDBRANCH  43  45
BRANCH  43  47
HETATM   47  O   UNK N   1      36.402  15.276  13.055  0.00  0.00    -0.327 OA
HETATM   48  H   UNK N   1      35.813  15.591  13.759  0.00  0.00     0.220 HD
ENDBRANCH  43  47
ENDBRANCH  40  43
ENDBRANCH  38  40
BRANCH  38  49
HETATM   49  O   UNK N   1      35.014  17.062  10.951  0.00  0.00    -0.326 OA
HETATM   50  H   UNK N   1      34.261  17.643  11.142  0.00  0.00     0.220 HD
ENDBRANCH  38  49
ENDBRANCH  37  38
ENDBRANCH  35  37
BRANCH  35  51
HETATM   51  O   UNK N   1      35.287  19.075   8.574  0.00  0.00    -0.307 OA
HETATM   52  H   UNK N   1      35.155  19.518   9.426  0.00  0.00     0.222 HD
ENDBRANCH  35  51
ENDBRANCH  34  35
ENDBRANCH  33  34
ENDBRANCH   3  33
BRANCH   4  53
HETATM   53  O   UNK N   1      30.092  18.381   9.839  0.00  0.00    -0.390 OA
HETATM   54  H   UNK N   1      29.599  18.858  10.525  0.00  0.00     0.210 HD
ENDBRANCH   4  53
TORSDOF 22
ENDMDL
MODEL 3
REMARK VINA RESULT:      -6.6      9.908     12.881
REMARK  22 active torsions:
REMARK  status: ('A' for Active; 'I' for Inactive)
REMARK    1  A    between atoms: C_1  and  S_13 
REMARK    2  A    between atoms: C_4  and  N_17 
REMARK    3  A    between atoms: C_19  and  N_12 
REMARK    4  A    between atoms: S_13  and  C_14 
REMARK    5  A    between atoms: C_14  and  C_15 
REMARK    6  A    between atoms: C_15  and  C_16 
REMARK    7  A    between atoms: C_18  and  N_17 
REMARK    8  A    between atoms: C_18  and  C_29 
REMARK    9  A    between atoms: C_21  and  C_28 
REMARK   10  A    between atoms: C_22  and  O_25 
REMARK   11  A    between atoms: C_23  and  O_24 
REMARK   12  A    between atoms: P_26  and  O_27 
REMARK   13  A    between atoms: P_26  and  O_35 
REMARK   14  A    between atoms: P_26  and  O_40 
REMARK   15  A    between atoms: O_27  and  C_28 
REMARK   16  A    between atoms: C_29  and  S_30 
REMARK   17  A    between atoms: O_35  and  P_36 
REMARK   18  A    between atoms: P_36  and  C_37 
REMARK   19  A    between atoms: P_36  and  O_42 
REMARK   20  A    between atoms: C_37  and  P_38 
REMARK   21  A    between atoms: P_38  and  O_39 
REMARK   22  A    between atoms: P_38  and  O_46 
ROOT
HETATM    1  C   UNK N   1      26.212  18.360   4.037  0.00  0.00     0.262 C 
HETATM    2  O   UNK N   1      25.968  19.755   3.974  0.00  0.00    -0.353 OA
HETATM    3  C   UNK N   1      24.586  19.932   4.194  0.00  0.00     0.180 C 
HETATM    4  C   UNK N   1      24.150  18.761   5.054  0.00  0.00     0.182 C 
HETATM    5  C   UNK N   1      24.901  17.658   4.393  0.00  0.00     0.198 C 
ENDROOT
BRANCH   1   6
HETATM    6  N   UNK N   1      27.294  18.061   4.969  0.00  0.00    -0.297 N 
HETATM    7  C   UNK N   1      27.752  18.890   5.940  0.00  0.00     0.188 A 
HETATM    8  N   UNK N   1      28.819  18.345   6.592  0.00  0.00    -0.346 N 
HETATM    9  C   UNK N   1      29.005  17.157   5.988  0.00  0.00     0.122 A 
ATOM     10  HN  UNK N   1      29.354  18.746   7.362  1.00  0.00     0.167 HD
HETATM   11  C   UNK N   1      29.982  16.195   6.194  0.00  0.00     0.134 A 
HETATM   12  C   UNK N   1      28.081  16.983   5.025  0.00  0.00     0.143 A 
HETATM   13  N   UNK N   1      29.944  15.076   5.405  0.00  0.00    -0.321 N 
HETATM   14  C   UNK N   1      28.986  14.921   4.429  0.00  0.00     0.147 A 
ATOM     15  HN  UNK N   1      30.640  14.344   5.542  1.00  0.00     0.169 HD
HETATM   16  N   UNK N   1      28.044  15.890   4.233  0.00  0.00    -0.321 N 
ATOM     17  HN  UNK N   1      27.333  15.791   3.509  1.00  0.00     0.169 HD
BRANCH  11  18
HETATM   18  N   UNK N   1      31.002  16.402   7.166  0.00  0.00    -0.373 N 
HETATM   19  H   UNK N   1      30.874  15.964   8.039  0.00  0.00     0.161 HD
BRANCH  18  20
HETATM   20  C   UNK N   1      32.213  17.190   7.005  0.00  0.00     0.131 C 
BRANCH  20  21
HETATM   21  C   UNK N   1      32.685  17.344   5.564  0.00  0.00     0.093 C 
BRANCH  21  22
HETATM   22  S   UNK N   1      33.785  15.978   5.099  0.00  0.00    -0.172 SA
HETATM   23  C   UNK N   1      32.986  15.774   3.483  0.00  0.00     0.089 C 
ENDBRANCH  21  22
ENDBRANCH  20  21
ENDBRANCH  18  20
ENDBRANCH  11  18
BRANCH  14  24
HETATM   24  S   UNK N   1      28.959  13.460   3.388  0.00  0.00    -0.093 SA
BRANCH  24  25
HETATM   25  C   UNK N   1      27.947  14.179   2.057  0.00  0.00     0.091 C 
BRANCH  25  26
HETATM   26  C   UNK N   1      26.578  13.522   1.988  0.00  0.00     0.128 C 
BRANCH  26  27
HETATM   27  C   UNK N   1      25.478  14.570   1.862  0.00  0.00     0.388 C 
HETATM   28  F   UNK N   1      24.715  14.294   0.744  0.00  0.00    -0.171 F 
HETATM   29  F   UNK N   1      26.044  15.824   1.724  0.00  0.00    -0.171 F 
HETATM   30  F   UNK N   1      24.660  14.555   2.979  0.00  0.00    -0.171 F 
ENDBRANCH  26  27
ENDBRANCH  25  26
ENDBRANCH  24  25
ENDBRANCH  14  24
ENDBRANCH   1   6
BRANCH   5  31
HETATM   31  O   UNK N   1      25.060  16.549   5.227  0.00  0.00    -0.388 OA
HETATM   32  H   UNK N   1      24.430  15.834   5.405  0.00  0.00     0.210 HD
ENDBRANCH   5  31
BRANCH   3  33
HETATM   33  C   UNK N   1      23.842  20.091   2.843  0.00  0.00     0.215 C 
BRANCH  33  34
HETATM   34  O   UNK N   1      22.768  20.993   2.905  0.00  0.00    -0.294 OA
BRANCH  34  35
HETATM   35  P   UNK N   1      21.293  20.104   2.618  0.00  0.00     0.400 P 
HETATM   36  O   UNK N   1      20.421  20.387   3.870  0.00  0.00    -0.631 OA
BRANCH  35  37
HETATM   37  O   UNK N   1      21.491  18.371   2.624  0.00  0.00    -0.215 OA
BRANCH  37  38
HETATM   38  P   UNK N   1      20.165  17.634   1.762  0.00  0.00     0.299 P 
HETATM   39  O   UNK N   1      20.401  18.069   0.291  0.00  0.00    -0.651 OA
BRANCH  38  40
HETATM   40  C   UNK N   1      20.196  15.783   1.869  0.00  0.00     0.305 C 
HETATM   41 Cl   UNK N   1      19.100  15.109   0.638  0.00  0.00    -0.076 Cl
HETATM   42 Cl   UNK N   1      21.850  15.208   1.560  0.00  0.00    -0.076 Cl
BRANCH  40  43
HETATM   43  P   UNK N   1      19.647  15.242   3.558  0.00  0.00     0.288 P 
HETATM   44  O   UNK N   1      20.875  14.912   4.449  0.00  0.00    -0.651 OA
BRANCH  43  45
HETATM   45  O   UNK N   1      18.694  13.792   3.591  0.00  0.00    -0.327 OA
HETATM   46  H   UNK N   1      18.100  13.119   3.222  0.00  0.00     0.220 HD
ENDBRANCH  43  45
BRANCH  43  47
HETATM   47  O   UNK N   1      18.778  16.442   4.461  0.00  0.00    -0.327 OA
HETATM   48  H   UNK N   1      17.808  16.442   4.470  0.00  0.00     0.220 HD
ENDBRANCH  43  47
ENDBRANCH  40  43
ENDBRANCH  38  40
BRANCH  38  49
HETATM   49  O   UNK N   1      18.655  18.393   2.170  0.00  0.00    -0.326 OA
HETATM   50  H   UNK N   1      18.134  18.090   2.931  0.00  0.00     0.220 HD
ENDBRANCH  38  49
ENDBRANCH  37  38
ENDBRANCH  35  37
BRANCH  35  51
HETATM   51  O   UNK N   1      20.358  20.715   1.288  0.00  0.00    -0.307 OA
HETATM   52  H   UNK N   1      20.537  20.444   0.375  0.00  0.00     0.222 HD
ENDBRANCH  35  51
ENDBRANCH  34  35
ENDBRANCH  33  34
ENDBRANCH   3  33
BRANCH   4  53
HETATM   53  O   UNK N   1      22.769  18.553   5.045  0.00  0.00    -0.390 OA
HETATM   54  H   UNK N   1      22.369  17.679   4.914  0.00  0.00     0.210 HD
ENDBRANCH   4  53
TORSDOF 22
ENDMDL
MODEL 4
REMARK VINA RESULT:      -6.6      4.961      7.013
REMARK  22 active torsions:
REMARK  status: ('A' for Active; 'I' for Inactive)
REMARK    1  A    between atoms: C_1  and  S_13 
REMARK    2  A    between atoms: C_4  and  N_17 
REMARK    3  A    between atoms: C_19  and  N_12 
REMARK    4  A    between atoms: S_13  and  C_14 
REMARK    5  A    between atoms: C_14  and  C_15 
REMARK    6  A    between atoms: C_15  and  C_16 
REMARK    7  A    between atoms: C_18  and  N_17 
REMARK    8  A    between atoms: C_18  and  C_29 
REMARK    9  A    between atoms: C_21  and  C_28 
REMARK   10  A    between atoms: C_22  and  O_25 
REMARK   11  A    between atoms: C_23  and  O_24 
REMARK   12  A    between atoms: P_26  and  O_27 
REMARK   13  A    between atoms: P_26  and  O_35 
REMARK   14  A    between atoms: P_26  and  O_40 
REMARK   15  A    between atoms: O_27  and  C_28 
REMARK   16  A    between atoms: C_29  and  S_30 
REMARK   17  A    between atoms: O_35  and  P_36 
REMARK   18  A    between atoms: P_36  and  C_37 
REMARK   19  A    between atoms: P_36  and  O_42 
REMARK   20  A    between atoms: C_37  and  P_38 
REMARK   21  A    between atoms: P_38  and  O_39 
REMARK   22  A    between atoms: P_38  and  O_46 
ROOT
HETATM    1  C   UNK N   1      28.241  18.082   5.810  0.00  0.00     0.262 C 
HETATM    2  O   UNK N   1      28.907  16.901   6.222  0.00  0.00    -0.353 OA
HETATM    3  C   UNK N   1      29.258  17.088   7.575  0.00  0.00     0.180 C 
HETATM    4  C   UNK N   1      28.224  18.041   8.144  0.00  0.00     0.182 C 
HETATM    5  C   UNK N   1      28.117  19.011   7.018  0.00  0.00     0.198 C 
ENDROOT
BRANCH   1   6
HETATM    6  N   UNK N   1      26.956  17.768   5.194  0.00  0.00    -0.297 N 
HETATM    7  C   UNK N   1      26.389  18.440   4.161  0.00  0.00     0.188 A 
HETATM    8  N   UNK N   1      25.153  17.943   3.868  0.00  0.00    -0.346 N 
HETATM    9  C   UNK N   1      24.976  16.947   4.755  0.00  0.00     0.122 A 
ATOM     10  HN  UNK N   1      24.509  18.255   3.141  1.00  0.00     0.167 HD
HETATM   11  C   UNK N   1      23.880  16.124   4.967  0.00  0.00     0.134 A 
HETATM   12  C   UNK N   1      26.064  16.835   5.540  0.00  0.00     0.143 A 
HETATM   13  N   UNK N   1      23.970  15.199   5.973  0.00  0.00    -0.321 N 
HETATM   14  C   UNK N   1      25.095  15.102   6.758  0.00  0.00     0.147 A 
ATOM     15  HN  UNK N   1      23.186  14.570   6.143  1.00  0.00     0.169 HD
HETATM   16  N   UNK N   1      26.156  15.935   6.542  0.00  0.00    -0.321 N 
ATOM     17  HN  UNK N   1      26.992  15.879   7.122  1.00  0.00     0.169 HD
BRANCH  11  18
HETATM   18  N   UNK N   1      22.702  16.281   4.184  0.00  0.00    -0.373 N 
HETATM   19  H   UNK N   1      22.830  16.512   3.236  0.00  0.00     0.161 HD
BRANCH  18  20
HETATM   20  C   UNK N   1      21.327  16.134   4.637  0.00  0.00     0.131 C 
BRANCH  20  21
HETATM   21  C   UNK N   1      20.539  17.436   4.709  0.00  0.00     0.093 C 
BRANCH  21  22
HETATM   22  S   UNK N   1      21.334  18.725   3.709  0.00  0.00    -0.172 SA
HETATM   23  C   UNK N   1      20.182  18.482   2.328  0.00  0.00     0.089 C 
ENDBRANCH  21  22
ENDBRANCH  20  21
ENDBRANCH  18  20
ENDBRANCH  11  18
BRANCH  14  24
HETATM   24  S   UNK N   1      25.191  13.899   8.087  0.00  0.00    -0.093 SA
BRANCH  24  25
HETATM   25  C   UNK N   1      23.452  13.370   8.006  0.00  0.00     0.091 C 
BRANCH  25  26
HETATM   26  C   UNK N   1      23.182  12.212   8.953  0.00  0.00     0.128 C 
BRANCH  26  27
HETATM   27  C   UNK N   1      22.513  12.700  10.233  0.00  0.00     0.388 C 
HETATM   28  F   UNK N   1      23.423  12.640  11.271  0.00  0.00    -0.171 F 
HETATM   29  F   UNK N   1      21.434  11.889  10.531  0.00  0.00    -0.171 F 
HETATM   30  F   UNK N   1      22.081  14.007  10.090  0.00  0.00    -0.171 F 
ENDBRANCH  26  27
ENDBRANCH  25  26
ENDBRANCH  24  25
ENDBRANCH  14  24
ENDBRANCH   1   6
BRANCH   5  31
HETATM   31  O   UNK N   1      26.925  19.738   7.054  0.00  0.00    -0.388 OA
HETATM   32  H   UNK N   1      26.785  20.676   6.851  0.00  0.00     0.210 HD
ENDBRANCH   5  31
BRANCH   3  33
HETATM   33  C   UNK N   1      30.735  17.548   7.690  0.00  0.00     0.215 C 
BRANCH  33  34
HETATM   34  O   UNK N   1      31.375  17.073   8.846  0.00  0.00    -0.294 OA
BRANCH  34  35
HETATM   35  P   UNK N   1      33.075  16.894   8.492  0.00  0.00     0.400 P 
HETATM   36  O   UNK N   1      33.306  17.785   7.243  0.00  0.00    -0.631 OA
BRANCH  35  37
HETATM   37  O   UNK N   1      33.530  15.296   7.963  0.00  0.00    -0.215 OA
BRANCH  37  38
HETATM   38  P   UNK N   1      33.623  14.234   9.343  0.00  0.00     0.299 P 
HETATM   39  O   UNK N   1      32.729  13.032   8.937  0.00  0.00    -0.651 OA
BRANCH  38  40
HETATM   40  C   UNK N   1      35.350  13.637   9.660  0.00  0.00     0.305 C 
HETATM   41 Cl   UNK N   1      35.313  11.885   9.976  0.00  0.00    -0.076 Cl
HETATM   42 Cl   UNK N   1      36.350  13.953   8.223  0.00  0.00    -0.076 Cl
BRANCH  40  43
HETATM   43  P   UNK N   1      36.061  14.522  11.128  0.00  0.00     0.288 P 
HETATM   44  O   UNK N   1      34.996  14.661  12.249  0.00  0.00    -0.651 OA
BRANCH  43  45
HETATM   45  O   UNK N   1      36.576  16.152  10.825  0.00  0.00    -0.327 OA
HETATM   46  H   UNK N   1      36.957  16.872  10.298  0.00  0.00     0.220 HD
ENDBRANCH  43  45
BRANCH  43  47
HETATM   47  O   UNK N   1      37.386  13.707  11.899  0.00  0.00    -0.327 OA
HETATM   48  H   UNK N   1      37.292  13.362  12.801  0.00  0.00     0.220 HD
ENDBRANCH  43  47
ENDBRANCH  40  43
ENDBRANCH  38  40
BRANCH  38  49
HETATM   49  O   UNK N   1      32.791  14.911  10.711  0.00  0.00    -0.326 OA
HETATM   50  H   UNK N   1      31.988  14.495  11.063  0.00  0.00     0.220 HD
ENDBRANCH  38  49
ENDBRANCH  37  38
ENDBRANCH  35  37
BRANCH  35  51
HETATM   51  O   UNK N   1      34.114  17.570   9.708  0.00  0.00    -0.307 OA
HETATM   52  H   UNK N   1      34.955  17.152   9.948  0.00  0.00     0.222 HD
ENDBRANCH  35  51
ENDBRANCH  34  35
ENDBRANCH  33  34
ENDBRANCH   3  33
BRANCH   4  53
HETATM   53  O   UNK N   1      28.626  18.644   9.337  0.00  0.00    -0.390 OA
HETATM   54  H   UNK N   1      27.998  18.962  10.005  0.00  0.00     0.210 HD
ENDBRANCH   4  53
TORSDOF 22
ENDMDL
MODEL 5
REMARK VINA RESULT:      -6.6      5.737      8.073
REMARK  22 active torsions:
REMARK  status: ('A' for Active; 'I' for Inactive)
REMARK    1  A    between atoms: C_1  and  S_13 
REMARK    2  A    between atoms: C_4  and  N_17 
REMARK    3  A    between atoms: C_19  and  N_12 
REMARK    4  A    between atoms: S_13  and  C_14 
REMARK    5  A    between atoms: C_14  and  C_15 
REMARK    6  A    between atoms: C_15  and  C_16 
REMARK    7  A    between atoms: C_18  and  N_17 
REMARK    8  A    between atoms: C_18  and  C_29 
REMARK    9  A    between atoms: C_21  and  C_28 
REMARK   10  A    between atoms: C_22  and  O_25 
REMARK   11  A    between atoms: C_23  and  O_24 
REMARK   12  A    between atoms: P_26  and  O_27 
REMARK   13  A    between atoms: P_26  and  O_35 
REMARK   14  A    between atoms: P_26  and  O_40 
REMARK   15  A    between atoms: O_27  and  C_28 
REMARK   16  A    between atoms: C_29  and  S_30 
REMARK   17  A    between atoms: O_35  and  P_36 
REMARK   18  A    between atoms: P_36  and  C_37 
REMARK   19  A    between atoms: P_36  and  O_42 
REMARK   20  A    between atoms: C_37  and  P_38 
REMARK   21  A    between atoms: P_38  and  O_39 
REMARK   22  A    between atoms: P_38  and  O_46 
ROOT
HETATM    1  C   UNK N   1      28.490  18.222   6.245  0.00  0.00     0.262 C 
HETATM    2  O   UNK N   1      29.082  17.005   6.668  0.00  0.00    -0.353 OA
HETATM    3  C   UNK N   1      29.294  17.122   8.057  0.00  0.00     0.180 C 
HETATM    4  C   UNK N   1      28.228  18.077   8.560  0.00  0.00     0.182 C 
HETATM    5  C   UNK N   1      28.263  19.099   7.476  0.00  0.00     0.198 C 
ENDROOT
BRANCH   1   6
HETATM    6  N   UNK N   1      27.270  17.972   5.485  0.00  0.00    -0.297 N 
HETATM    7  C   UNK N   1      26.808  18.728   4.459  0.00  0.00     0.188 A 
HETATM    8  N   UNK N   1      25.605  18.270   4.010  0.00  0.00    -0.346 N 
HETATM    9  C   UNK N   1      25.339  17.210   4.794  0.00  0.00     0.122 A 
ATOM     10  HN  UNK N   1      25.035  18.645   3.251  1.00  0.00     0.167 HD
HETATM   11  C   UNK N   1      24.225  16.386   4.833  0.00  0.00     0.134 A 
HETATM   12  C   UNK N   1      26.345  17.025   5.668  0.00  0.00     0.143 A 
HETATM   13  N   UNK N   1      24.213  15.384   5.767  0.00  0.00    -0.321 N 
HETATM   14  C   UNK N   1      25.256  15.213   6.647  0.00  0.00     0.147 A 
ATOM     15  HN  UNK N   1      23.413  14.752   5.811  1.00  0.00     0.169 HD
HETATM   16  N   UNK N   1      26.336  16.047   6.601  0.00  0.00    -0.321 N 
ATOM     17  HN  UNK N   1      27.112  15.937   7.253  1.00  0.00     0.169 HD
BRANCH  11  18
HETATM   18  N   UNK N   1      23.128  16.617   3.955  0.00  0.00    -0.373 N 
HETATM   19  H   UNK N   1      23.151  16.150   3.089  0.00  0.00     0.161 HD
BRANCH  18  20
HETATM   20  C   UNK N   1      21.976  17.469   4.204  0.00  0.00     0.131 C 
BRANCH  20  21
HETATM   21  C   UNK N   1      22.063  18.856   3.578  0.00  0.00     0.093 C 
BRANCH  21  22
HETATM   22  S   UNK N   1      20.406  19.523   3.260  0.00  0.00    -0.172 SA
HETATM   23  C   UNK N   1      21.052  20.855   2.210  0.00  0.00     0.089 C 
ENDBRANCH  21  22
ENDBRANCH  20  21
ENDBRANCH  18  20
ENDBRANCH  11  18
BRANCH  14  24
HETATM   24  S   UNK N   1      25.218  13.909   7.879  0.00  0.00    -0.093 SA
BRANCH  24  25
HETATM   25  C   UNK N   1      23.456  13.497   7.684  0.00  0.00     0.091 C 
BRANCH  25  26
HETATM   26  C   UNK N   1      23.131  12.148   8.304  0.00  0.00     0.128 C 
BRANCH  26  27
HETATM   27  C   UNK N   1      22.426  12.321   9.645  0.00  0.00     0.388 C 
HETATM   28  F   UNK N   1      22.627  11.191  10.412  0.00  0.00    -0.171 F 
HETATM   29  F   UNK N   1      21.070  12.491   9.436  0.00  0.00    -0.171 F 
HETATM   30  F   UNK N   1      22.928  13.419  10.322  0.00  0.00    -0.171 F 
ENDBRANCH  26  27
ENDBRANCH  25  26
ENDBRANCH  24  25
ENDBRANCH  14  24
ENDBRANCH   1   6
BRANCH   5  31
HETATM   31  O   UNK N   1      27.091  19.857   7.423  0.00  0.00    -0.388 OA
HETATM   32  H   UNK N   1      26.220  19.647   7.796  0.00  0.00     0.210 HD
ENDBRANCH   5  31
BRANCH   3  33
HETATM   33  C   UNK N   1      30.761  17.534   8.345  0.00  0.00     0.215 C 
BRANCH  33  34
HETATM   34  O   UNK N   1      31.693  16.868   7.535  0.00  0.00    -0.294 OA
BRANCH  34  35
HETATM   35  P   UNK N   1      32.876  16.113   8.574  0.00  0.00     0.400 P 
HETATM   36  O   UNK N   1      33.719  17.294   9.122  0.00  0.00    -0.631 OA
BRANCH  35  37
HETATM   37  O   UNK N   1      34.037  15.120   7.732  0.00  0.00    -0.215 OA
BRANCH  37  38
HETATM   38  P   UNK N   1      34.277  15.750   6.122  0.00  0.00     0.299 P 
HETATM   39  O   UNK N   1      35.774  15.456   5.837  0.00  0.00    -0.651 OA
BRANCH  38  40
HETATM   40  C   UNK N   1      33.229  14.883   4.862  0.00  0.00     0.305 C 
HETATM   41 Cl   UNK N   1      34.287  14.034   3.708  0.00  0.00    -0.076 Cl
HETATM   42 Cl   UNK N   1      32.186  13.699   5.683  0.00  0.00    -0.076 Cl
BRANCH  40  43
HETATM   43  P   UNK N   1      32.183  16.121   3.956  0.00  0.00     0.288 P 
HETATM   44  O   UNK N   1      30.849  15.474   3.497  0.00  0.00    -0.651 OA
BRANCH  43  45
HETATM   45  O   UNK N   1      32.881  16.742   2.493  0.00  0.00    -0.327 OA
HETATM   46  H   UNK N   1      33.456  16.718   1.712  0.00  0.00     0.220 HD
ENDBRANCH  43  45
BRANCH  43  47
HETATM   47  O   UNK N   1      31.688  17.488   4.903  0.00  0.00    -0.327 OA
HETATM   48  H   UNK N   1      30.748  17.704   4.999  0.00  0.00     0.220 HD
ENDBRANCH  43  47
ENDBRANCH  40  43
ENDBRANCH  38  40
BRANCH  38  49
HETATM   49  O   UNK N   1      34.197  17.487   6.112  0.00  0.00    -0.326 OA
HETATM   50  H   UNK N   1      34.523  17.996   5.353  0.00  0.00     0.220 HD
ENDBRANCH  38  49
ENDBRANCH  37  38
ENDBRANCH  35  37
BRANCH  35  51
HETATM   51  O   UNK N   1      32.191  15.373   9.988  0.00  0.00    -0.307 OA
HETATM   52  H   UNK N   1      32.063  15.870  10.810  0.00  0.00     0.222 HD
ENDBRANCH  35  51
ENDBRANCH  34  35
ENDBRANCH  33  34
ENDBRANCH   3  33
BRANCH   4  53
HETATM   53  O   UNK N   1      28.517  18.615   9.815  0.00  0.00    -0.390 OA
HETATM   54  H   UNK N   1      29.004  19.446   9.934  0.00  0.00     0.210 HD
ENDBRANCH   4  53
TORSDOF 22
ENDMDL
MODEL 6
REMARK VINA RESULT:      -6.5      5.203      7.297
REMARK  22 active torsions:
REMARK  status: ('A' for Active; 'I' for Inactive)
REMARK    1  A    between atoms: C_1  and  S_13 
REMARK    2  A    between atoms: C_4  and  N_17 
REMARK    3  A    between atoms: C_19  and  N_12 
REMARK    4  A    between atoms: S_13  and  C_14 
REMARK    5  A    between atoms: C_14  and  C_15 
REMARK    6  A    between atoms: C_15  and  C_16 
REMARK    7  A    between atoms: C_18  and  N_17 
REMARK    8  A    between atoms: C_18  and  C_29 
REMARK    9  A    between atoms: C_21  and  C_28 
REMARK   10  A    between atoms: C_22  and  O_25 
REMARK   11  A    between atoms: C_23  and  O_24 
REMARK   12  A    between atoms: P_26  and  O_27 
REMARK   13  A    between atoms: P_26  and  O_35 
REMARK   14  A    between atoms: P_26  and  O_40 
REMARK   15  A    between atoms: O_27  and  C_28 
REMARK   16  A    between atoms: C_29  and  S_30 
REMARK   17  A    between atoms: O_35  and  P_36 
REMARK   18  A    between atoms: P_36  and  C_37 
REMARK   19  A    between atoms: P_36  and  O_42 
REMARK   20  A    between atoms: C_37  and  P_38 
REMARK   21  A    between atoms: P_38  and  O_39 
REMARK   22  A    between atoms: P_38  and  O_46 
ROOT
HETATM    1  C   UNK N   1      27.673  18.066   5.377  0.00  0.00     0.262 C 
HETATM    2  O   UNK N   1      28.304  16.804   5.523  0.00  0.00    -0.353 OA
HETATM    3  C   UNK N   1      29.070  16.872   6.705  0.00  0.00     0.180 C 
HETATM    4  C   UNK N   1      28.367  17.876   7.598  0.00  0.00     0.182 C 
HETATM    5  C   UNK N   1      28.025  18.923   6.594  0.00  0.00     0.198 C 
ENDROOT
BRANCH   1   6
HETATM    6  N   UNK N   1      26.235  17.910   5.181  0.00  0.00    -0.297 N 
HETATM    7  C   UNK N   1      25.411  18.824   4.611  0.00  0.00     0.188 A 
HETATM    8  N   UNK N   1      24.113  18.407   4.645  0.00  0.00    -0.346 N 
HETATM    9  C   UNK N   1      24.164  17.210   5.256  0.00  0.00     0.122 A 
ATOM     10  HN  UNK N   1      23.290  18.893   4.287  1.00  0.00     0.167 HD
HETATM   11  C   UNK N   1      23.140  16.347   5.615  0.00  0.00     0.134 A 
HETATM   12  C   UNK N   1      25.439  16.908   5.564  0.00  0.00     0.143 A 
HETATM   13  N   UNK N   1      23.486  15.189   6.260  0.00  0.00    -0.321 N 
HETATM   14  C   UNK N   1      24.798  14.902   6.560  0.00  0.00     0.147 A 
ATOM     15  HN  UNK N   1      22.757  14.527   6.524  1.00  0.00     0.169 HD
HETATM   16  N   UNK N   1      25.788  15.775   6.211  0.00  0.00    -0.321 N 
ATOM     17  HN  UNK N   1      26.763  15.578   6.435  1.00  0.00     0.169 HD
BRANCH  11  18
HETATM   18  N   UNK N   1      21.784  16.691   5.350  0.00  0.00    -0.373 N 
HETATM   19  H   UNK N   1      21.486  16.621   4.415  0.00  0.00     0.161 HD
BRANCH  18  20
HETATM   20  C   UNK N   1      20.792  17.133   6.318  0.00  0.00     0.131 C 
BRANCH  20  21
HETATM   21  C   UNK N   1      19.614  16.183   6.500  0.00  0.00     0.093 C 
BRANCH  21  22
HETATM   22  S   UNK N   1      19.244  15.313   4.951  0.00  0.00    -0.172 SA
HETATM   23  C   UNK N   1      20.009  13.774   5.535  0.00  0.00     0.089 C 
ENDBRANCH  21  22
ENDBRANCH  20  21
ENDBRANCH  18  20
ENDBRANCH  11  18
BRANCH  14  24
HETATM   24  S   UNK N   1      25.236  13.391   7.424  0.00  0.00    -0.093 SA
BRANCH  24  25
HETATM   25  C   UNK N   1      23.875  13.447   8.631  0.00  0.00     0.091 C 
BRANCH  25  26
HETATM   26  C   UNK N   1      24.282  12.816   9.953  0.00  0.00     0.128 C 
BRANCH  26  27
HETATM   27  C   UNK N   1      23.056  12.393  10.754  0.00  0.00     0.388 C 
HETATM   28  F   UNK N   1      22.630  11.156  10.312  0.00  0.00    -0.171 F 
HETATM   29  F   UNK N   1      22.041  13.313  10.569  0.00  0.00    -0.171 F 
HETATM   30  F   UNK N   1      23.360  12.308  12.102  0.00  0.00    -0.171 F 
ENDBRANCH  26  27
ENDBRANCH  25  26
ENDBRANCH  24  25
ENDBRANCH  14  24
ENDBRANCH   1   6
BRANCH   5  31
HETATM   31  O   UNK N   1      26.985  19.751   7.023  0.00  0.00    -0.388 OA
HETATM   32  H   UNK N   1      27.011  20.450   7.695  0.00  0.00     0.210 HD
ENDBRANCH   5  31
BRANCH   3  33
HETATM   33  C   UNK N   1      30.551  17.187   6.370  0.00  0.00     0.215 C 
BRANCH  33  34
HETATM   34  O   UNK N   1      31.433  16.159   6.738  0.00  0.00    -0.294 OA
BRANCH  34  35
HETATM   35  P   UNK N   1      32.122  16.563   8.291  0.00  0.00     0.400 P 
HETATM   36  O   UNK N   1      32.239  18.110   8.271  0.00  0.00    -0.631 OA
BRANCH  35  37
HETATM   37  O   UNK N   1      33.764  16.017   8.507  0.00  0.00    -0.215 OA
BRANCH  37  38
HETATM   38  P   UNK N   1      33.780  14.638   9.575  0.00  0.00     0.299 P 
HETATM   39  O   UNK N   1      32.708  13.695   8.967  0.00  0.00    -0.651 OA
BRANCH  38  40
HETATM   40  C   UNK N   1      35.421  13.775   9.590  0.00  0.00     0.305 C 
HETATM   41 Cl   UNK N   1      35.158  12.025   9.778  0.00  0.00    -0.076 Cl
HETATM   42 Cl   UNK N   1      36.256  14.082   8.050  0.00  0.00    -0.076 Cl
BRANCH  40  43
HETATM   43  P   UNK N   1      36.451  14.408  11.000  0.00  0.00     0.288 P 
HETATM   44  O   UNK N   1      35.660  14.321  12.333  0.00  0.00    -0.651 OA
BRANCH  43  45
HETATM   45  O   UNK N   1      36.909  16.078  10.884  0.00  0.00    -0.327 OA
HETATM   46  H   UNK N   1      36.768  17.036  10.943  0.00  0.00     0.220 HD
ENDBRANCH  43  45
BRANCH  43  47
HETATM   47  O   UNK N   1      37.900  13.503  11.306  0.00  0.00    -0.327 OA
HETATM   48  H   UNK N   1      38.723  13.722  10.842  0.00  0.00     0.220 HD
ENDBRANCH  43  47
ENDBRANCH  40  43
ENDBRANCH  38  40
BRANCH  38  49
HETATM   49  O   UNK N   1      33.122  15.045  11.133  0.00  0.00    -0.326 OA
HETATM   50  H   UNK N   1      32.899  14.354  11.776  0.00  0.00     0.220 HD
ENDBRANCH  38  49
ENDBRANCH  37  38
ENDBRANCH  35  37
BRANCH  35  51
HETATM   51  O   UNK N   1      31.070  16.221   9.630  0.00  0.00    -0.307 OA
HETATM   52  H   UNK N   1      30.757  16.922  10.222  0.00  0.00     0.222 HD
ENDBRANCH  35  51
ENDBRANCH  34  35
ENDBRANCH  33  34
ENDBRANCH   3  33
BRANCH   4  53
HETATM   53  O   UNK N   1      29.176  18.363   8.626  0.00  0.00    -0.390 OA
HETATM   54  H   UNK N   1      29.093  18.069   9.547  0.00  0.00     0.210 HD
ENDBRANCH   4  53
TORSDOF 22
ENDMDL
MODEL 7
REMARK VINA RESULT:      -6.5      4.801      6.950
REMARK  22 active torsions:
REMARK  status: ('A' for Active; 'I' for Inactive)
REMARK    1  A    between atoms: C_1  and  S_13 
REMARK    2  A    between atoms: C_4  and  N_17 
REMARK    3  A    between atoms: C_19  and  N_12 
REMARK    4  A    between atoms: S_13  and  C_14 
REMARK    5  A    between atoms: C_14  and  C_15 
REMARK    6  A    between atoms: C_15  and  C_16 
REMARK    7  A    between atoms: C_18  and  N_17 
REMARK    8  A    between atoms: C_18  and  C_29 
REMARK    9  A    between atoms: C_21  and  C_28 
REMARK   10  A    between atoms: C_22  and  O_25 
REMARK   11  A    between atoms: C_23  and  O_24 
REMARK   12  A    between atoms: P_26  and  O_27 
REMARK   13  A    between atoms: P_26  and  O_35 
REMARK   14  A    between atoms: P_26  and  O_40 
REMARK   15  A    between atoms: O_27  and  C_28 
REMARK   16  A    between atoms: C_29  and  S_30 
REMARK   17  A    between atoms: O_35  and  P_36 
REMARK   18  A    between atoms: P_36  and  C_37 
REMARK   19  A    between atoms: P_36  and  O_42 
REMARK   20  A    between atoms: C_37  and  P_38 
REMARK   21  A    between atoms: P_38  and  O_39 
REMARK   22  A    between atoms: P_38  and  O_46 
ROOT
HETATM    1  C   UNK N   1      28.718  17.375   6.574  0.00  0.00     0.262 C 
HETATM    2  O   UNK N   1      29.767  16.443   6.775  0.00  0.00    -0.353 OA
HETATM    3  C   UNK N   1      30.451  16.852   7.937  0.00  0.00     0.180 C 
HETATM    4  C   UNK N   1      29.426  17.577   8.789  0.00  0.00     0.182 C 
HETATM    5  C   UNK N   1      28.727  18.368   7.737  0.00  0.00     0.198 C 
ENDROOT
BRANCH   1   6
HETATM    6  N   UNK N   1      27.438  16.693   6.412  0.00  0.00    -0.297 N 
HETATM    7  C   UNK N   1      27.146  15.445   6.854  0.00  0.00     0.188 A 
HETATM    8  N   UNK N   1      25.889  15.070   6.480  0.00  0.00    -0.346 N 
HETATM    9  C   UNK N   1      25.419  16.126   5.791  0.00  0.00     0.122 A 
ATOM     10  HN  UNK N   1      25.413  14.190   6.678  1.00  0.00     0.167 HD
HETATM   11  C   UNK N   1      24.214  16.291   5.124  0.00  0.00     0.134 A 
HETATM   12  C   UNK N   1      26.344  17.103   5.763  0.00  0.00     0.143 A 
HETATM   13  N   UNK N   1      24.010  17.480   4.475  0.00  0.00    -0.321 N 
HETATM   14  C   UNK N   1      24.970  18.465   4.465  0.00  0.00     0.147 A 
ATOM     15  HN  UNK N   1      23.128  17.638   3.988  1.00  0.00     0.169 HD
HETATM   16  N   UNK N   1      26.156  18.273   5.115  0.00  0.00    -0.321 N 
ATOM     17  HN  UNK N   1      26.879  18.991   5.109  1.00  0.00     0.169 HD
BRANCH  11  18
HETATM   18  N   UNK N   1      23.258  15.237   5.094  0.00  0.00    -0.373 N 
HETATM   19  H   UNK N   1      23.614  14.319   5.111  0.00  0.00     0.161 HD
BRANCH  18  20
HETATM   20  C   UNK N   1      21.811  15.373   5.042  0.00  0.00     0.131 C 
BRANCH  20  21
HETATM   21  C   UNK N   1      21.083  14.910   6.298  0.00  0.00     0.093 C 
BRANCH  21  22
HETATM   22  S   UNK N   1      19.750  16.062   6.730  0.00  0.00    -0.172 SA
HETATM   23  C   UNK N   1      20.303  16.188   8.454  0.00  0.00     0.089 C 
ENDBRANCH  21  22
ENDBRANCH  20  21
ENDBRANCH  18  20
ENDBRANCH  11  18
BRANCH  14  24
HETATM   24  S   UNK N   1      24.698  20.010   3.593  0.00  0.00    -0.093 SA
BRANCH  24  25
HETATM   25  C   UNK N   1      22.891  19.843   3.448  0.00  0.00     0.091 C 
BRANCH  25  26
HETATM   26  C   UNK N   1      22.385  20.441   2.145  0.00  0.00     0.128 C 
BRANCH  26  27
HETATM   27  C   UNK N   1      20.861  20.501   2.130  0.00  0.00     0.388 C 
HETATM   28  F   UNK N   1      20.364  19.279   1.723  0.00  0.00    -0.171 F 
HETATM   29  F   UNK N   1      20.444  21.477   1.245  0.00  0.00    -0.171 F 
HETATM   30  F   UNK N   1      20.372  20.787   3.393  0.00  0.00    -0.171 F 
ENDBRANCH  26  27
ENDBRANCH  25  26
ENDBRANCH  24  25
ENDBRANCH  14  24
ENDBRANCH   1   6
BRANCH   5  31
HETATM   31  O   UNK N   1      27.456  18.781   8.140  0.00  0.00    -0.388 OA
HETATM   32  H   UNK N   1      26.597  18.558   7.747  0.00  0.00     0.210 HD
ENDBRANCH   5  31
BRANCH   3  33
HETATM   33  C   UNK N   1      31.715  17.668   7.560  0.00  0.00     0.215 C 
BRANCH  33  34
HETATM   34  O   UNK N   1      32.519  17.988   8.666  0.00  0.00    -0.294 OA
BRANCH  34  35
HETATM   35  P   UNK N   1      34.144  17.443   8.333  0.00  0.00     0.400 P 
HETATM   36  O   UNK N   1      34.581  18.267   7.093  0.00  0.00    -0.631 OA
BRANCH  35  37
HETATM   37  O   UNK N   1      34.247  15.787   7.798  0.00  0.00    -0.215 OA
BRANCH  37  38
HETATM   38  P   UNK N   1      34.015  14.723   9.161  0.00  0.00     0.299 P 
HETATM   39  O   UNK N   1      32.871  13.782   8.698  0.00  0.00    -0.651 OA
BRANCH  38  40
HETATM   40  C   UNK N   1      35.526  13.716   9.535  0.00  0.00     0.305 C 
HETATM   41 Cl   UNK N   1      35.042  12.030   9.842  0.00  0.00    -0.076 Cl
HETATM   42 Cl   UNK N   1      36.623  13.767   8.136  0.00  0.00    -0.076 Cl
BRANCH  40  43
HETATM   43  P   UNK N   1      36.384  14.402  11.032  0.00  0.00     0.288 P 
HETATM   44  O   UNK N   1      35.386  14.551  12.211  0.00  0.00    -0.651 OA
BRANCH  43  45
HETATM   45  O   UNK N   1      37.050  15.992  10.833  0.00  0.00    -0.327 OA
HETATM   46  H   UNK N   1      37.059  16.959  10.910  0.00  0.00     0.220 HD
ENDBRANCH  43  45
BRANCH  43  47
HETATM   47  O   UNK N   1      37.648  13.398  11.671  0.00  0.00    -0.327 OA
HETATM   48  H   UNK N   1      38.078  12.734  11.110  0.00  0.00     0.220 HD
ENDBRANCH  43  47
ENDBRANCH  40  43
ENDBRANCH  38  40
BRANCH  38  49
HETATM   49  O   UNK N   1      33.317  15.574  10.508  0.00  0.00    -0.326 OA
HETATM   50  H   UNK N   1      33.018  16.493  10.416  0.00  0.00     0.220 HD
ENDBRANCH  38  49
ENDBRANCH  37  38
ENDBRANCH  35  37
BRANCH  35  51
HETATM   51  O   UNK N   1      35.289  17.871   9.567  0.00  0.00    -0.307 OA
HETATM   52  H   UNK N   1      35.980  18.532   9.411  0.00  0.00     0.222 HD
ENDBRANCH  35  51
ENDBRANCH  34  35
ENDBRANCH  33  34
ENDBRANCH   3  33
BRANCH   4  53
HETATM   53  O   UNK N   1      29.998  18.382   9.776  0.00  0.00    -0.390 OA
HETATM   54  H   UNK N   1      29.705  19.290   9.951  0.00  0.00     0.210 HD
ENDBRANCH   4  53
TORSDOF 22
ENDMDL
MODEL 8
REMARK VINA RESULT:      -6.5      1.919      2.223
REMARK  22 active torsions:
REMARK  status: ('A' for Active; 'I' for Inactive)
REMARK    1  A    between atoms: C_1  and  S_13 
REMARK    2  A    between atoms: C_4  and  N_17 
REMARK    3  A    between atoms: C_19  and  N_12 
REMARK    4  A    between atoms: S_13  and  C_14 
REMARK    5  A    between atoms: C_14  and  C_15 
REMARK    6  A    between atoms: C_15  and  C_16 
REMARK    7  A    between atoms: C_18  and  N_17 
REMARK    8  A    between atoms: C_18  and  C_29 
REMARK    9  A    between atoms: C_21  and  C_28 
REMARK   10  A    between atoms: C_22  and  O_25 
REMARK   11  A    between atoms: C_23  and  O_24 
REMARK   12  A    between atoms: P_26  and  O_27 
REMARK   13  A    between atoms: P_26  and  O_35 
REMARK   14  A    between atoms: P_26  and  O_40 
REMARK   15  A    between atoms: O_27  and  C_28 
REMARK   16  A    between atoms: C_29  and  S_30 
REMARK   17  A    between atoms: O_35  and  P_36 
REMARK   18  A    between atoms: P_36  and  C_37 
REMARK   19  A    between atoms: P_36  and  O_42 
REMARK   20  A    between atoms: C_37  and  P_38 
REMARK   21  A    between atoms: P_38  and  O_39 
REMARK   22  A    between atoms: P_38  and  O_46 
ROOT
HETATM    1  C   UNK N   1      32.764  16.515   8.662  0.00  0.00     0.262 C 
HETATM    2  O   UNK N   1      33.533  16.037   7.571  0.00  0.00    -0.353 OA
HETATM    3  C   UNK N   1      34.043  14.781   7.959  0.00  0.00     0.180 C 
HETATM    4  C   UNK N   1      33.044  14.216   8.951  0.00  0.00     0.182 C 
HETATM    5  C   UNK N   1      32.749  15.439   9.749  0.00  0.00     0.198 C 
ENDROOT
BRANCH   1   6
HETATM    6  N   UNK N   1      31.428  16.908   8.225  0.00  0.00    -0.297 N 
HETATM    7  C   UNK N   1      30.677  17.897   8.769  0.00  0.00     0.188 A 
HETATM    8  N   UNK N   1      29.448  17.964   8.183  0.00  0.00    -0.346 N 
HETATM    9  C   UNK N   1      29.465  16.982   7.263  0.00  0.00     0.122 A 
ATOM     10  HN  UNK N   1      28.688  18.612   8.393  1.00  0.00     0.167 HD
HETATM   11  C   UNK N   1      28.467  16.545   6.405  0.00  0.00     0.134 A 
HETATM   12  C   UNK N   1      30.658  16.360   7.281  0.00  0.00     0.143 A 
HETATM   13  N   UNK N   1      28.759  15.491   5.581  0.00  0.00    -0.321 N 
HETATM   14  C   UNK N   1      29.988  14.874   5.616  0.00  0.00     0.147 A 
ATOM     15  HN  UNK N   1      28.050  15.156   4.928  1.00  0.00     0.169 HD
HETATM   16  N   UNK N   1      30.950  15.311   6.481  0.00  0.00    -0.321 N 
ATOM     17  HN  UNK N   1      31.862  14.858   6.522  1.00  0.00     0.169 HD
BRANCH  11  18
HETATM   18  N   UNK N   1      27.181  17.157   6.427  0.00  0.00    -0.373 N 
HETATM   19  H   UNK N   1      26.654  17.044   7.251  0.00  0.00     0.161 HD
BRANCH  18  20
HETATM   20  C   UNK N   1      26.565  17.931   5.361  0.00  0.00     0.131 C 
BRANCH  20  21
HETATM   21  C   UNK N   1      27.346  19.172   4.944  0.00  0.00     0.093 C 
BRANCH  21  22
HETATM   22  S   UNK N   1      26.288  20.645   4.999  0.00  0.00    -0.172 SA
HETATM   23  C   UNK N   1      27.334  21.453   6.242  0.00  0.00     0.089 C 
ENDBRANCH  21  22
ENDBRANCH  20  21
ENDBRANCH  18  20
ENDBRANCH  11  18
BRANCH  14  24
HETATM   24  S   UNK N   1      30.351  13.481   4.545  0.00  0.00    -0.093 SA
BRANCH  24  25
HETATM   25  C   UNK N   1      30.601  14.453   3.027  0.00  0.00     0.091 C 
BRANCH  25  26
HETATM   26  C   UNK N   1      29.356  15.250   2.670  0.00  0.00     0.128 C 
BRANCH  26  27
HETATM   27  C   UNK N   1      28.289  14.348   2.060  0.00  0.00     0.388 C 
HETATM   28  F   UNK N   1      27.471  15.103   1.242  0.00  0.00    -0.171 F 
HETATM   29  F   UNK N   1      27.526  13.786   3.067  0.00  0.00    -0.171 F 
HETATM   30  F   UNK N   1      28.871  13.342   1.309  0.00  0.00    -0.171 F 
ENDBRANCH  26  27
ENDBRANCH  25  26
ENDBRANCH  24  25
ENDBRANCH  14  24
ENDBRANCH   1   6
BRANCH   5  31
HETATM   31  O   UNK N   1      31.538  15.345  10.437  0.00  0.00    -0.388 OA
HETATM   32  H   UNK N   1      31.028  16.055  10.859  0.00  0.00     0.210 HD
ENDBRANCH   5  31
BRANCH   3  33
HETATM   33  C   UNK N   1      35.498  14.925   8.474  0.00  0.00     0.215 C 
BRANCH  33  34
HETATM   34  O   UNK N   1      36.011  13.740   9.025  0.00  0.00    -0.294 OA
BRANCH  34  35
HETATM   35  P   UNK N   1      37.048  14.167  10.363  0.00  0.00     0.400 P 
HETATM   36  O   UNK N   1      38.485  14.063   9.787  0.00  0.00    -0.631 OA
BRANCH  35  37
HETATM   37  O   UNK N   1      37.034  13.015  11.673  0.00  0.00    -0.215 OA
BRANCH  37  38
HETATM   38  P   UNK N   1      36.093  13.655  12.996  0.00  0.00     0.299 P 
HETATM   39  O   UNK N   1      34.778  14.119  12.314  0.00  0.00    -0.651 OA
BRANCH  38  40
HETATM   40  C   UNK N   1      35.703  12.368  14.272  0.00  0.00     0.305 C 
HETATM   41 Cl   UNK N   1      37.221  11.640  14.849  0.00  0.00    -0.076 Cl
HETATM   42 Cl   UNK N   1      34.863  13.136  15.639  0.00  0.00    -0.076 Cl
BRANCH  40  43
HETATM   43  P   UNK N   1      34.622  11.054  13.529  0.00  0.00     0.288 P 
HETATM   44  O   UNK N   1      35.345   9.680  13.549  0.00  0.00    -0.651 OA
BRANCH  43  45
HETATM   45  O   UNK N   1      34.212  11.296  11.860  0.00  0.00    -0.327 OA
HETATM   46  H   UNK N   1      33.620  11.499  11.119  0.00  0.00     0.220 HD
ENDBRANCH  43  45
BRANCH  43  47
HETATM   47  O   UNK N   1      33.137  10.765  14.380  0.00  0.00    -0.327 OA
HETATM   48  H   UNK N   1      32.949   9.891  14.757  0.00  0.00     0.220 HD
ENDBRANCH  43  47
ENDBRANCH  40  43
ENDBRANCH  38  40
BRANCH  38  49
HETATM   49  O   UNK N   1      36.781  15.135  13.595  0.00  0.00    -0.326 OA
HETATM   50  H   UNK N   1      36.240  15.935  13.688  0.00  0.00     0.220 HD
ENDBRANCH  38  49
ENDBRANCH  37  38
ENDBRANCH  35  37
BRANCH  35  51
HETATM   51  O   UNK N   1      36.897  15.823  10.862  0.00  0.00    -0.307 OA
HETATM   52  H   UNK N   1      36.447  16.067  11.686  0.00  0.00     0.222 HD
ENDBRANCH  35  51
ENDBRANCH  34  35
ENDBRANCH  33  34
ENDBRANCH   3  33
BRANCH   4  53
HETATM   53  O   UNK N   1      33.563  13.179   9.729  0.00  0.00    -0.390 OA
HETATM   54  H   UNK N   1      34.296  13.304  10.353  0.00  0.00     0.210 HD
ENDBRANCH   4  53
TORSDOF 22
ENDMDL
MODEL 9
REMARK VINA RESULT:      -6.5      3.316      5.238
REMARK  22 active torsions:
REMARK  status: ('A' for Active; 'I' for Inactive)
REMARK    1  A    between atoms: C_1  and  S_13 
REMARK    2  A    between atoms: C_4  and  N_17 
REMARK    3  A    between atoms: C_19  and  N_12 
REMARK    4  A    between atoms: S_13  and  C_14 
REMARK    5  A    between atoms: C_14  and  C_15 
REMARK    6  A    between atoms: C_15  and  C_16 
REMARK    7  A    between atoms: C_18  and  N_17 
REMARK    8  A    between atoms: C_18  and  C_29 
REMARK    9  A    between atoms: C_21  and  C_28 
REMARK   10  A    between atoms: C_22  and  O_25 
REMARK   11  A    between atoms: C_23  and  O_24 
REMARK   12  A    between atoms: P_26  and  O_27 
REMARK   13  A    between atoms: P_26  and  O_35 
REMARK   14  A    between atoms: P_26  and  O_40 
REMARK   15  A    between atoms: O_27  and  C_28 
REMARK   16  A    between atoms: C_29  and  S_30 
REMARK   17  A    between atoms: O_35  and  P_36 
REMARK   18  A    between atoms: P_36  and  C_37 
REMARK   19  A    between atoms: P_36  and  O_42 
REMARK   20  A    between atoms: C_37  and  P_38 
REMARK   21  A    between atoms: P_38  and  O_39 
REMARK   22  A    between atoms: P_38  and  O_46 
ROOT
HETATM    1  C   UNK N   1      31.210  15.191   5.456  0.00  0.00     0.262 C 
HETATM    2  O   UNK N   1      31.570  16.063   6.515  0.00  0.00    -0.353 OA
HETATM    3  C   UNK N   1      32.354  17.087   5.944  0.00  0.00     0.180 C 
HETATM    4  C   UNK N   1      31.890  17.212   4.505  0.00  0.00     0.182 C 
HETATM    5  C   UNK N   1      31.753  15.771   4.149  0.00  0.00     0.198 C 
ENDROOT
BRANCH   1   6
HETATM    6  N   UNK N   1      29.768  14.970   5.430  0.00  0.00    -0.297 N 
HETATM    7  C   UNK N   1      29.149  13.843   5.000  0.00  0.00     0.188 A 
HETATM    8  N   UNK N   1      27.792  13.980   5.034  0.00  0.00    -0.346 N 
HETATM    9  C   UNK N   1      27.597  15.229   5.497  0.00  0.00     0.122 A 
ATOM     10  HN  UNK N   1      27.086  13.293   4.771  1.00  0.00     0.167 HD
HETATM   11  C   UNK N   1      26.419  15.936   5.685  0.00  0.00     0.134 A 
HETATM   12  C   UNK N   1      28.782  15.815   5.746  0.00  0.00     0.143 A 
HETATM   13  N   UNK N   1      26.522  17.220   6.151  0.00  0.00    -0.321 N 
HETATM   14  C   UNK N   1      27.746  17.795   6.402  0.00  0.00     0.147 A 
ATOM     15  HN  UNK N   1      25.673  17.761   6.314  1.00  0.00     0.169 HD
HETATM   16  N   UNK N   1      28.893  17.085   6.193  0.00  0.00    -0.321 N 
ATOM     17  HN  UNK N   1      29.807  17.501   6.368  1.00  0.00     0.169 HD
BRANCH  11  18
HETATM   18  N   UNK N   1      25.166  15.345   5.361  0.00  0.00    -0.373 N 
HETATM   19  H   UNK N   1      25.193  14.449   4.955  0.00  0.00     0.161 HD
BRANCH  18  20
HETATM   20  C   UNK N   1      23.848  15.926   5.568  0.00  0.00     0.131 C 
BRANCH  20  21
HETATM   21  C   UNK N   1      22.704  14.919   5.580  0.00  0.00     0.093 C 
BRANCH  21  22
HETATM   22  S   UNK N   1      21.945  14.789   3.937  0.00  0.00    -0.172 SA
HETATM   23  C   UNK N   1      22.136  16.565   3.616  0.00  0.00     0.089 C 
ENDBRANCH  21  22
ENDBRANCH  20  21
ENDBRANCH  18  20
ENDBRANCH  11  18
BRANCH  14  24
HETATM   24  S   UNK N   1      27.867  19.485   6.993  0.00  0.00    -0.093 SA
BRANCH  24  25
HETATM   25  C   UNK N   1      27.919  20.269   5.351  0.00  0.00     0.091 C 
BRANCH  25  26
HETATM   26  C   UNK N   1      26.556  20.815   4.956  0.00  0.00     0.128 C 
BRANCH  26  27
HETATM   27  C   UNK N   1      26.067  20.173   3.662  0.00  0.00     0.388 C 
HETATM   28  F   UNK N   1      26.328  21.026   2.607  0.00  0.00    -0.171 F 
HETATM   29  F   UNK N   1      24.705  19.952   3.739  0.00  0.00    -0.171 F 
HETATM   30  F   UNK N   1      26.716  18.971   3.439  0.00  0.00    -0.171 F 
ENDBRANCH  26  27
ENDBRANCH  25  26
ENDBRANCH  24  25
ENDBRANCH  14  24
ENDBRANCH   1   6
BRANCH   5  31
HETATM   31  O   UNK N   1      30.915  15.573   3.050  0.00  0.00    -0.388 OA
HETATM   32  H   UNK N   1      31.125  15.154   2.201  0.00  0.00     0.210 HD
ENDBRANCH   5  31
BRANCH   3  33
HETATM   33  C   UNK N   1      33.862  16.784   6.143  0.00  0.00     0.215 C 
BRANCH  33  34
HETATM   34  O   UNK N   1      34.496  17.677   7.021  0.00  0.00    -0.294 OA
BRANCH  34  35
HETATM   35  P   UNK N   1      34.387  17.022   8.636  0.00  0.00     0.400 P 
HETATM   36  O   UNK N   1      35.156  18.040   9.518  0.00  0.00    -0.631 OA
BRANCH  35  37
HETATM   37  O   UNK N   1      35.255  15.526   8.860  0.00  0.00    -0.215 OA
BRANCH  37  38
HETATM   38  P   UNK N   1      34.256  14.405   9.748  0.00  0.00     0.299 P 
HETATM   39  O   UNK N   1      33.064  14.141   8.790  0.00  0.00    -0.651 OA
BRANCH  38  40
HETATM   40  C   UNK N   1      35.128  12.807  10.098  0.00  0.00     0.305 C 
HETATM   41 Cl   UNK N   1      34.010  11.454   9.801  0.00  0.00    -0.076 Cl
HETATM   42 Cl   UNK N   1      36.532  12.658   9.016  0.00  0.00    -0.076 Cl
BRANCH  40  43
HETATM   43  P   UNK N   1      35.693  12.774  11.867  0.00  0.00     0.288 P 
HETATM   44  O   UNK N   1      36.087  11.332  12.285  0.00  0.00    -0.651 OA
BRANCH  43  45
HETATM   45  O   UNK N   1      34.494  13.243  13.030  0.00  0.00    -0.327 OA
HETATM   46  H   UNK N   1      33.734  13.103  13.617  0.00  0.00     0.220 HD
ENDBRANCH  43  45
BRANCH  43  47
HETATM   47  O   UNK N   1      37.115  13.715  12.195  0.00  0.00    -0.327 OA
HETATM   48  H   UNK N   1      37.976  13.442  11.842  0.00  0.00     0.220 HD
ENDBRANCH  43  47
ENDBRANCH  40  43
ENDBRANCH  38  40
BRANCH  38  49
HETATM   49  O   UNK N   1      33.511  15.179  11.116  0.00  0.00    -0.326 OA
HETATM   50  H   UNK N   1      34.018  15.362  11.922  0.00  0.00     0.220 HD
ENDBRANCH  38  49
ENDBRANCH  37  38
ENDBRANCH  35  37
BRANCH  35  51
HETATM   51  O   UNK N   1      32.773  17.019   9.279  0.00  0.00    -0.307 OA
HETATM   52  H   UNK N   1      32.027  17.383   8.780  0.00  0.00     0.222 HD
ENDBRANCH  35  51
ENDBRANCH  34  35
ENDBRANCH  33  34
ENDBRANCH   3  33
BRANCH   4  53
HETATM   53  O   UNK N   1      32.800  17.883   3.687  0.00  0.00    -0.390 OA
HETATM   54  H   UNK N   1      33.362  18.607   4.006  0.00  0.00     0.210 HD
ENDBRANCH   4  53
TORSDOF 22
ENDMDL
