MODEL 1
REMARK VINA RESULT:      -7.0      0.000      0.000
REMARK  9 active torsions:
REMARK  status: ('A' for Active; 'I' for Inactive)
REMARK    1  A    between atoms: C_8  and  C_5 
REMARK    2  A    between atoms: C_9  and  C_5 
REMARK    3  A    between atoms: C_12  and  C_8 
REMARK    4  A    between atoms: C_13  and  C_9 
REMARK    5  A    between atoms: C_18  and  C_12 
REMARK    6  A    between atoms: C_19  and  C_13 
REMARK    7  A    between atoms: C_18  and  C_17 
REMARK    8  A    between atoms: C_20  and  C_18 
REMARK    9  A    between atoms: O_24  and  C_19 
ROOT
HETATM    1  C   UNK N   1      31.880  16.275   7.145  0.00  0.00     0.056 C 
ENDROOT
BRANCH   1   2
HETATM    2  C   UNK N   1      30.776  17.312   7.414  0.00  0.00     0.014 C 
BRANCH   2   3
HETATM    3  C   UNK N   1      29.404  16.868   6.910  0.00  0.00     0.001 C 
BRANCH   3   4
HETATM    4  C   UNK N   1      28.325  17.299   7.884  0.00  0.00     0.001 C 
BRANCH   4   5
HETATM    5  C   UNK N   1      28.306  18.811   7.989  0.00  0.00     0.010 C 
BRANCH   5   6
HETATM    6  C   UNK N   1      27.791  19.410   6.692  0.00  0.00     0.110 C 
BRANCH   6   7
HETATM    7  C   UNK N   1      27.032  20.683   6.920  0.00  0.00     0.139 C 
HETATM    8  O   UNK N   1      27.225  21.635   6.184  0.00  0.00    -0.650 OA
BRANCH   7   9
HETATM    9  O   UNK N   1      26.137  20.788   7.923  0.00  0.00    -0.776 OA
HETATM   10  H   UNK N   1      26.419  21.031   8.782  0.00  0.00     0.167 HD
ENDBRANCH   7   9
ENDBRANCH   6   7
ENDBRANCH   5   6
ENDBRANCH   4   5
ENDBRANCH   3   4
ENDBRANCH   2   3
ENDBRANCH   1   2
BRANCH   1  11
HETATM   11  C   UNK N   1      32.290  16.311   5.681  0.00  0.00    -0.050 A 
HETATM   12  C   UNK N   1      32.840  15.153   5.105  0.00  0.00     0.008 A 
HETATM   13  C   UNK N   1      33.239  15.144   3.766  0.00  0.00     0.001 A 
HETATM   14  C   UNK N   1      33.103  16.296   2.991  0.00  0.00     0.000 A 
HETATM   15  C   UNK N   1      32.558  17.455   3.551  0.00  0.00     0.001 A 
HETATM   16  C   UNK N   1      32.147  17.462   4.890  0.00  0.00     0.008 A 
ENDBRANCH   1  11
BRANCH   1  17
HETATM   17  C   UNK N   1      33.005  16.080   8.196  0.00  0.00     0.011 A 
HETATM   18  C   UNK N   1      33.836  17.074   8.653  0.00  0.00    -0.000 A 
HETATM   19  C   UNK N   1      33.773  18.488   8.166  0.00  0.00     0.053 C 
HETATM   20  C   UNK N   1      34.846  16.783   9.707  0.00  0.00     0.185 A 
HETATM   21  C   UNK N   1      34.979  15.425  10.275  0.00  0.00    -0.002 A 
HETATM   22  O   UNK N   1      35.571  17.681  10.119  0.00  0.00    -0.287 OA
HETATM   23  C   UNK N   1      36.011  15.171  11.336  0.00  0.00     0.053 C 
HETATM   24  C   UNK N   1      34.172  14.438   9.843  0.00  0.00    -0.002 A 
HETATM   25  C   UNK N   1      34.287  13.052  10.410  0.00  0.00     0.053 C 
HETATM   26  C   UNK N   1      33.146  14.714   8.804  0.00  0.00     0.186 A 
HETATM   27  O   UNK N   1      32.396  13.811   8.457  0.00  0.00    -0.287 OA
ENDBRANCH   1  17
TORSDOF 9
ENDMDL
MODEL 2
REMARK VINA RESULT:      -6.9     13.638     16.140
REMARK  9 active torsions:
REMARK  status: ('A' for Active; 'I' for Inactive)
REMARK    1  A    between atoms: C_8  and  C_5 
REMARK    2  A    between atoms: C_9  and  C_5 
REMARK    3  A    between atoms: C_12  and  C_8 
REMARK    4  A    between atoms: C_13  and  C_9 
REMARK    5  A    between atoms: C_18  and  C_12 
REMARK    6  A    between atoms: C_19  and  C_13 
REMARK    7  A    between atoms: C_18  and  C_17 
REMARK    8  A    between atoms: C_20  and  C_18 
REMARK    9  A    between atoms: O_24  and  C_19 
ROOT
HETATM    1  C   UNK N   1      28.046  24.444  -5.452  0.00  0.00     0.056 C 
ENDROOT
BRANCH   1   2
HETATM    2  C   UNK N   1      27.012  24.422  -4.314  0.00  0.00     0.014 C 
BRANCH   2   3
HETATM    3  C   UNK N   1      25.582  24.646  -4.802  0.00  0.00     0.001 C 
BRANCH   3   4
HETATM    4  C   UNK N   1      25.579  25.573  -6.001  0.00  0.00     0.001 C 
BRANCH   4   5
HETATM    5  C   UNK N   1      24.934  26.892  -5.626  0.00  0.00     0.010 C 
BRANCH   5   6
HETATM    6  C   UNK N   1      26.007  27.909  -5.278  0.00  0.00     0.110 C 
BRANCH   6   7
HETATM    7  C   UNK N   1      25.859  28.430  -3.880  0.00  0.00     0.139 C 
HETATM    8  O   UNK N   1      25.668  27.646  -2.965  0.00  0.00    -0.650 OA
BRANCH   7   9
HETATM    9  O   UNK N   1      25.941  29.750  -3.618  0.00  0.00    -0.776 OA
HETATM   10  H   UNK N   1      26.739  30.213  -3.779  0.00  0.00     0.167 HD
ENDBRANCH   7   9
ENDBRANCH   6   7
ENDBRANCH   5   6
ENDBRANCH   4   5
ENDBRANCH   3   4
ENDBRANCH   2   3
ENDBRANCH   1   2
BRANCH   1  11
HETATM   11  C   UNK N   1      29.010  25.606  -5.265  0.00  0.00    -0.050 A 
HETATM   12  C   UNK N   1      29.000  26.302  -4.044  0.00  0.00     0.008 A 
HETATM   13  C   UNK N   1      29.863  27.380  -3.832  0.00  0.00     0.001 A 
HETATM   14  C   UNK N   1      30.736  27.783  -4.843  0.00  0.00     0.000 A 
HETATM   15  C   UNK N   1      30.756  27.100  -6.063  0.00  0.00     0.001 A 
HETATM   16  C   UNK N   1      29.901  26.011  -6.272  0.00  0.00     0.008 A 
ENDBRANCH   1  11
BRANCH   1  17
HETATM   17  C   UNK N   1      28.638  23.103  -5.962  0.00  0.00     0.011 A 
HETATM   18  C   UNK N   1      29.559  22.342  -5.284  0.00  0.00    -0.000 A 
HETATM   19  C   UNK N   1      30.134  22.732  -3.958  0.00  0.00     0.053 C 
HETATM   20  C   UNK N   1      30.016  21.040  -5.844  0.00  0.00     0.185 A 
HETATM   21  C   UNK N   1      29.495  20.547  -7.136  0.00  0.00    -0.002 A 
HETATM   22  O   UNK N   1      30.826  20.362  -5.224  0.00  0.00    -0.287 OA
HETATM   23  C   UNK N   1      29.982  19.230  -7.670  0.00  0.00     0.053 C 
HETATM   24  C   UNK N   1      28.589  21.277  -7.814  0.00  0.00    -0.002 A 
HETATM   25  C   UNK N   1      28.045  20.793  -9.127  0.00  0.00     0.053 C 
HETATM   26  C   UNK N   1      28.109  22.570  -7.262  0.00  0.00     0.186 A 
HETATM   27  O   UNK N   1      27.254  23.195  -7.875  0.00  0.00    -0.287 OA
ENDBRANCH   1  17
TORSDOF 9
ENDMDL
MODEL 3
REMARK VINA RESULT:      -6.9     12.691     16.004
REMARK  9 active torsions:
REMARK  status: ('A' for Active; 'I' for Inactive)
REMARK    1  A    between atoms: C_8  and  C_5 
REMARK    2  A    between atoms: C_9  and  C_5 
REMARK    3  A    between atoms: C_12  and  C_8 
REMARK    4  A    between atoms: C_13  and  C_9 
REMARK    5  A    between atoms: C_18  and  C_12 
REMARK    6  A    between atoms: C_19  and  C_13 
REMARK    7  A    between atoms: C_18  and  C_17 
REMARK    8  A    between atoms: C_20  and  C_18 
REMARK    9  A    between atoms: O_24  and  C_19 
ROOT
HETATM    1  C   UNK N   1      27.397  24.257  -6.699  0.00  0.00     0.056 C 
ENDROOT
BRANCH   1   2
HETATM    2  C   UNK N   1      27.781  25.446  -7.595  0.00  0.00     0.014 C 
BRANCH   2   3
HETATM    3  C   UNK N   1      27.111  26.752  -7.174  0.00  0.00     0.001 C 
BRANCH   3   4
HETATM    4  C   UNK N   1      25.620  26.541  -6.997  0.00  0.00     0.001 C 
BRANCH   4   5
HETATM    5  C   UNK N   1      25.181  27.099  -5.658  0.00  0.00     0.010 C 
BRANCH   5   6
HETATM    6  C   UNK N   1      26.301  27.926  -5.053  0.00  0.00     0.110 C 
BRANCH   6   7
HETATM    7  C   UNK N   1      25.895  28.566  -3.759  0.00  0.00     0.139 C 
HETATM    8  O   UNK N   1      25.487  27.867  -2.847  0.00  0.00    -0.650 OA
BRANCH   7   9
HETATM    9  O   UNK N   1      25.980  29.900  -3.587  0.00  0.00    -0.776 OA
HETATM   10  H   UNK N   1      25.201  30.418  -3.527  0.00  0.00     0.167 HD
ENDBRANCH   7   9
ENDBRANCH   6   7
ENDBRANCH   5   6
ENDBRANCH   4   5
ENDBRANCH   3   4
ENDBRANCH   2   3
ENDBRANCH   1   2
BRANCH   1  11
HETATM   11  C   UNK N   1      26.704  23.181  -7.520  0.00  0.00    -0.050 A 
HETATM   12  C   UNK N   1      25.745  22.366  -6.895  0.00  0.00     0.008 A 
HETATM   13  C   UNK N   1      25.090  21.360  -7.609  0.00  0.00     0.001 A 
HETATM   14  C   UNK N   1      25.395  21.149  -8.955  0.00  0.00     0.000 A 
HETATM   15  C   UNK N   1      26.347  21.952  -9.589  0.00  0.00     0.001 A 
HETATM   16  C   UNK N   1      26.995  22.969  -8.878  0.00  0.00     0.008 A 
ENDBRANCH   1  11
BRANCH   1  17
HETATM   17  C   UNK N   1      28.388  23.787  -5.601  0.00  0.00     0.011 A 
HETATM   18  C   UNK N   1      28.137  23.814  -4.251  0.00  0.00    -0.000 A 
HETATM   19  C   UNK N   1      26.863  24.332  -3.660  0.00  0.00     0.053 C 
HETATM   20  C   UNK N   1      29.143  23.284  -3.289  0.00  0.00     0.185 A 
HETATM   21  C   UNK N   1      30.427  22.727  -3.765  0.00  0.00    -0.002 A 
HETATM   22  O   UNK N   1      28.902  23.298  -2.088  0.00  0.00    -0.287 OA
HETATM   23  C   UNK N   1      31.417  22.204  -2.765  0.00  0.00     0.053 C 
HETATM   24  C   UNK N   1      30.690  22.689  -5.085  0.00  0.00    -0.002 A 
HETATM   25  C   UNK N   1      31.986  22.125  -5.591  0.00  0.00     0.053 C 
HETATM   26  C   UNK N   1      29.691  23.198  -6.060  0.00  0.00     0.186 A 
HETATM   27  O   UNK N   1      29.935  23.114  -7.257  0.00  0.00    -0.287 OA
ENDBRANCH   1  17
TORSDOF 9
ENDMDL
MODEL 4
REMARK VINA RESULT:      -6.8      3.547      5.129
REMARK  9 active torsions:
REMARK  status: ('A' for Active; 'I' for Inactive)
REMARK    1  A    between atoms: C_8  and  C_5 
REMARK    2  A    between atoms: C_9  and  C_5 
REMARK    3  A    between atoms: C_12  and  C_8 
REMARK    4  A    between atoms: C_13  and  C_9 
REMARK    5  A    between atoms: C_18  and  C_12 
REMARK    6  A    between atoms: C_19  and  C_13 
REMARK    7  A    between atoms: C_18  and  C_17 
REMARK    8  A    between atoms: C_20  and  C_18 
REMARK    9  A    between atoms: O_24  and  C_19 
ROOT
HETATM    1  C   UNK N   1      28.319  17.173   5.019  0.00  0.00     0.056 C 
ENDROOT
BRANCH   1   2
HETATM    2  C   UNK N   1      27.978  18.309   4.039  0.00  0.00     0.014 C 
BRANCH   2   3
HETATM    3  C   UNK N   1      28.016  19.690   4.689  0.00  0.00     0.001 C 
BRANCH   3   4
HETATM    4  C   UNK N   1      26.766  20.470   4.330  0.00  0.00     0.001 C 
BRANCH   4   5
HETATM    5  C   UNK N   1      25.913  19.658   3.376  0.00  0.00     0.010 C 
BRANCH   5   6
HETATM    6  C   UNK N   1      24.980  20.579   2.610  0.00  0.00     0.110 C 
BRANCH   6   7
HETATM    7  C   UNK N   1      23.552  20.422   3.041  0.00  0.00     0.139 C 
HETATM    8  O   UNK N   1      22.752  21.309   2.797  0.00  0.00    -0.650 OA
BRANCH   7   9
HETATM    9  O   UNK N   1      23.140  19.313   3.688  0.00  0.00    -0.776 OA
HETATM   10  H   UNK N   1      22.831  19.371   4.571  0.00  0.00     0.167 HD
ENDBRANCH   7   9
ENDBRANCH   6   7
ENDBRANCH   5   6
ENDBRANCH   4   5
ENDBRANCH   3   4
ENDBRANCH   2   3
ENDBRANCH   1   2
BRANCH   1  11
HETATM   11  C   UNK N   1      28.132  15.823   4.346  0.00  0.00    -0.050 A 
HETATM   12  C   UNK N   1      27.881  15.785   2.964  0.00  0.00     0.008 A 
HETATM   13  C   UNK N   1      27.694  14.567   2.306  0.00  0.00     0.001 A 
HETATM   14  C   UNK N   1      27.744  13.372   3.025  0.00  0.00     0.000 A 
HETATM   15  C   UNK N   1      27.992  13.395   4.401  0.00  0.00     0.001 A 
HETATM   16  C   UNK N   1      28.192  14.614   5.059  0.00  0.00     0.008 A 
ENDBRANCH   1  11
BRANCH   1  17
HETATM   17  C   UNK N   1      29.538  17.334   5.966  0.00  0.00     0.011 A 
HETATM   18  C   UNK N   1      29.460  17.493   7.329  0.00  0.00    -0.000 A 
HETATM   19  C   UNK N   1      28.166  17.557   8.077  0.00  0.00     0.053 C 
HETATM   20  C   UNK N   1      30.701  17.582   8.147  0.00  0.00     0.185 A 
HETATM   21  C   UNK N   1      32.033  17.507   7.513  0.00  0.00    -0.002 A 
HETATM   22  O   UNK N   1      30.619  17.708   9.363  0.00  0.00    -0.287 OA
HETATM   23  C   UNK N   1      33.262  17.602   8.371  0.00  0.00     0.053 C 
HETATM   24  C   UNK N   1      32.131  17.348   6.179  0.00  0.00    -0.002 A 
HETATM   25  C   UNK N   1      33.475  17.266   5.515  0.00  0.00     0.053 C 
HETATM   26  C   UNK N   1      30.904  17.240   5.349  0.00  0.00     0.186 A 
HETATM   27  O   UNK N   1      31.018  17.054   4.145  0.00  0.00    -0.287 OA
ENDBRANCH   1  17
TORSDOF 9
ENDMDL
MODEL 5
REMARK VINA RESULT:      -6.8     10.202     12.376
REMARK  9 active torsions:
REMARK  status: ('A' for Active; 'I' for Inactive)
REMARK    1  A    between atoms: C_8  and  C_5 
REMARK    2  A    between atoms: C_9  and  C_5 
REMARK    3  A    between atoms: C_12  and  C_8 
REMARK    4  A    between atoms: C_13  and  C_9 
REMARK    5  A    between atoms: C_18  and  C_12 
REMARK    6  A    between atoms: C_19  and  C_13 
REMARK    7  A    between atoms: C_18  and  C_17 
REMARK    8  A    between atoms: C_20  and  C_18 
REMARK    9  A    between atoms: O_24  and  C_19 
ROOT
HETATM    1  C   UNK N   1      22.006  15.889   6.084  0.00  0.00     0.056 C 
ENDROOT
BRANCH   1   2
HETATM    2  C   UNK N   1      21.684  17.369   6.355  0.00  0.00     0.014 C 
BRANCH   2   3
HETATM    3  C   UNK N   1      22.259  18.309   5.298  0.00  0.00     0.001 C 
BRANCH   3   4
HETATM    4  C   UNK N   1      21.140  18.921   4.478  0.00  0.00     0.001 C 
BRANCH   4   5
HETATM    5  C   UNK N   1      21.319  18.557   3.017  0.00  0.00     0.010 C 
BRANCH   5   6
HETATM    6  C   UNK N   1      20.279  19.278   2.177  0.00  0.00     0.110 C 
BRANCH   6   7
HETATM    7  C   UNK N   1      20.891  20.334   1.306  0.00  0.00     0.139 C 
HETATM    8  O   UNK N   1      21.653  21.149   1.798  0.00  0.00    -0.650 OA
BRANCH   7   9
HETATM    9  O   UNK N   1      20.615  20.392  -0.012  0.00  0.00    -0.776 OA
HETATM   10  H   UNK N   1      20.637  19.612  -0.532  0.00  0.00     0.167 HD
ENDBRANCH   7   9
ENDBRANCH   6   7
ENDBRANCH   5   6
ENDBRANCH   4   5
ENDBRANCH   3   4
ENDBRANCH   2   3
ENDBRANCH   1   2
BRANCH   1  11
HETATM   11  C   UNK N   1      21.712  15.052   7.319  0.00  0.00    -0.050 A 
HETATM   12  C   UNK N   1      22.296  13.779   7.426  0.00  0.00     0.008 A 
HETATM   13  C   UNK N   1      22.047  12.972   8.539  0.00  0.00     0.001 A 
HETATM   14  C   UNK N   1      21.201  13.425   9.553  0.00  0.00     0.000 A 
HETATM   15  C   UNK N   1      20.613  14.689   9.458  0.00  0.00     0.001 A 
HETATM   16  C   UNK N   1      20.871  15.503   8.349  0.00  0.00     0.008 A 
ENDBRANCH   1  11
BRANCH   1  17
HETATM   17  C   UNK N   1      21.642  15.277   4.705  0.00  0.00     0.011 A 
HETATM   18  C   UNK N   1      20.364  15.019   4.272  0.00  0.00    -0.000 A 
HETATM   19  C   UNK N   1      19.145  15.278   5.101  0.00  0.00     0.053 C 
HETATM   20  C   UNK N   1      20.128  14.481   2.903  0.00  0.00     0.185 A 
HETATM   21  C   UNK N   1      21.259  14.210   1.991  0.00  0.00    -0.002 A 
HETATM   22  O   UNK N   1      18.984  14.270   2.521  0.00  0.00    -0.287 OA
HETATM   23  C   UNK N   1      20.983  13.666   0.619  0.00  0.00     0.053 C 
HETATM   24  C   UNK N   1      22.519  14.460   2.396  0.00  0.00    -0.002 A 
HETATM   25  C   UNK N   1      23.682  14.195   1.484  0.00  0.00     0.053 C 
HETATM   26  C   UNK N   1      22.771  15.013   3.752  0.00  0.00     0.186 A 
HETATM   27  O   UNK N   1      23.921  15.271   4.082  0.00  0.00    -0.287 OA
ENDBRANCH   1  17
TORSDOF 9
ENDMDL
MODEL 6
REMARK VINA RESULT:      -6.8     13.673     17.788
REMARK  9 active torsions:
REMARK  status: ('A' for Active; 'I' for Inactive)
REMARK    1  A    between atoms: C_8  and  C_5 
REMARK    2  A    between atoms: C_9  and  C_5 
REMARK    3  A    between atoms: C_12  and  C_8 
REMARK    4  A    between atoms: C_13  and  C_9 
REMARK    5  A    between atoms: C_18  and  C_12 
REMARK    6  A    between atoms: C_19  and  C_13 
REMARK    7  A    between atoms: C_18  and  C_17 
REMARK    8  A    between atoms: C_20  and  C_18 
REMARK    9  A    between atoms: O_24  and  C_19 
ROOT
HETATM    1  C   UNK N   1      27.935  26.044  -6.911  0.00  0.00     0.056 C 
ENDROOT
BRANCH   1   2
HETATM    2  C   UNK N   1      28.726  24.875  -6.298  0.00  0.00     0.014 C 
BRANCH   2   3
HETATM    3  C   UNK N   1      29.954  25.332  -5.514  0.00  0.00     0.001 C 
BRANCH   3   4
HETATM    4  C   UNK N   1      29.740  25.107  -4.030  0.00  0.00     0.001 C 
BRANCH   4   5
HETATM    5  C   UNK N   1      29.090  23.756  -3.807  0.00  0.00     0.010 C 
BRANCH   5   6
HETATM    6  C   UNK N   1      30.152  22.671  -3.791  0.00  0.00     0.110 C 
BRANCH   6   7
HETATM    7  C   UNK N   1      30.825  22.559  -2.456  0.00  0.00     0.139 C 
HETATM    8  O   UNK N   1      31.913  22.015  -2.377  0.00  0.00    -0.650 OA
BRANCH   7   9
HETATM    9  O   UNK N   1      30.247  23.055  -1.344  0.00  0.00    -0.776 OA
HETATM   10  H   UNK N   1      29.358  23.349  -1.366  0.00  0.00     0.167 HD
ENDBRANCH   7   9
ENDBRANCH   6   7
ENDBRANCH   5   6
ENDBRANCH   4   5
ENDBRANCH   3   4
ENDBRANCH   2   3
ENDBRANCH   1   2
BRANCH   1  11
HETATM   11  C   UNK N   1      26.941  25.525  -7.938  0.00  0.00    -0.050 A 
HETATM   12  C   UNK N   1      26.435  26.416  -8.899  0.00  0.00     0.008 A 
HETATM   13  C   UNK N   1      25.513  25.984  -9.856  0.00  0.00     0.001 A 
HETATM   14  C   UNK N   1      25.077  24.659  -9.855  0.00  0.00     0.000 A 
HETATM   15  C   UNK N   1      25.572  23.761  -8.904  0.00  0.00     0.001 A 
HETATM   16  C   UNK N   1      26.505  24.190  -7.952  0.00  0.00     0.008 A 
ENDBRANCH   1  11
BRANCH   1  17
HETATM   17  C   UNK N   1      27.471  27.205  -5.993  0.00  0.00     0.011 A 
HETATM   18  C   UNK N   1      26.569  27.082  -4.964  0.00  0.00    -0.000 A 
HETATM   19  C   UNK N   1      25.893  25.794  -4.611  0.00  0.00     0.053 C 
HETATM   20  C   UNK N   1      26.238  28.257  -4.110  0.00  0.00     0.185 A 
HETATM   21  C   UNK N   1      26.865  29.572  -4.355  0.00  0.00    -0.002 A 
HETATM   22  O   UNK N   1      25.445  28.131  -3.184  0.00  0.00    -0.287 OA
HETATM   23  C   UNK N   1      26.505  30.733  -3.474  0.00  0.00     0.053 C 
HETATM   24  C   UNK N   1      27.754  29.712  -5.357  0.00  0.00    -0.002 A 
HETATM   25  C   UNK N   1      28.406  31.039  -5.621  0.00  0.00     0.053 C 
HETATM   26  C   UNK N   1      28.109  28.547  -6.208  0.00  0.00     0.186 A 
HETATM   27  O   UNK N   1      28.950  28.689  -7.085  0.00  0.00    -0.287 OA
ENDBRANCH   1  17
TORSDOF 9
ENDMDL
MODEL 7
REMARK VINA RESULT:      -6.7      2.493      7.579
REMARK  9 active torsions:
REMARK  status: ('A' for Active; 'I' for Inactive)
REMARK    1  A    between atoms: C_8  and  C_5 
REMARK    2  A    between atoms: C_9  and  C_5 
REMARK    3  A    between atoms: C_12  and  C_8 
REMARK    4  A    between atoms: C_13  and  C_9 
REMARK    5  A    between atoms: C_18  and  C_12 
REMARK    6  A    between atoms: C_19  and  C_13 
REMARK    7  A    between atoms: C_18  and  C_17 
REMARK    8  A    between atoms: C_20  and  C_18 
REMARK    9  A    between atoms: O_24  and  C_19 
ROOT
HETATM    1  C   UNK N   1      29.709  17.443   5.815  0.00  0.00     0.056 C 
ENDROOT
BRANCH   1   2
HETATM    2  C   UNK N   1      29.907  17.000   7.275  0.00  0.00     0.014 C 
BRANCH   2   3
HETATM    3  C   UNK N   1      31.080  17.701   7.957  0.00  0.00     0.001 C 
BRANCH   3   4
HETATM    4  C   UNK N   1      31.999  16.678   8.597  0.00  0.00     0.001 C 
BRANCH   4   5
HETATM    5  C   UNK N   1      33.180  16.411   7.684  0.00  0.00     0.010 C 
BRANCH   5   6
HETATM    6  C   UNK N   1      33.856  17.721   7.322  0.00  0.00     0.110 C 
BRANCH   6   7
HETATM    7  C   UNK N   1      34.730  18.231   8.429  0.00  0.00     0.139 C 
HETATM    8  O   UNK N   1      35.109  19.389   8.408  0.00  0.00    -0.650 OA
BRANCH   7   9
HETATM    9  O   UNK N   1      35.095  17.429   9.450  0.00  0.00    -0.776 OA
HETATM   10  H   UNK N   1      35.354  16.544   9.283  0.00  0.00     0.167 HD
ENDBRANCH   7   9
ENDBRANCH   6   7
ENDBRANCH   5   6
ENDBRANCH   4   5
ENDBRANCH   3   4
ENDBRANCH   2   3
ENDBRANCH   1   2
BRANCH   1  11
HETATM   11  C   UNK N   1      30.786  16.836   4.930  0.00  0.00    -0.050 A 
HETATM   12  C   UNK N   1      31.626  17.696   4.202  0.00  0.00     0.008 A 
HETATM   13  C   UNK N   1      32.624  17.182   3.370  0.00  0.00     0.001 A 
HETATM   14  C   UNK N   1      32.785  15.802   3.247  0.00  0.00     0.000 A 
HETATM   15  C   UNK N   1      31.956  14.935   3.965  0.00  0.00     0.001 A 
HETATM   16  C   UNK N   1      30.964  15.449   4.808  0.00  0.00     0.008 A 
ENDBRANCH   1  11
BRANCH   1  17
HETATM   17  C   UNK N   1      28.270  17.517   5.237  0.00  0.00     0.011 A 
HETATM   18  C   UNK N   1      27.366  16.483   5.244  0.00  0.00    -0.000 A 
HETATM   19  C   UNK N   1      27.670  15.126   5.797  0.00  0.00     0.053 C 
HETATM   20  C   UNK N   1      25.990  16.685   4.711  0.00  0.00     0.185 A 
HETATM   21  C   UNK N   1      25.575  17.992   4.161  0.00  0.00    -0.002 A 
HETATM   22  O   UNK N   1      25.186  15.760   4.736  0.00  0.00    -0.287 OA
HETATM   23  C   UNK N   1      24.180  18.157   3.631  0.00  0.00     0.053 C 
HETATM   24  C   UNK N   1      26.446  19.019   4.149  0.00  0.00    -0.002 A 
HETATM   25  C   UNK N   1      26.043  20.357   3.599  0.00  0.00     0.053 C 
HETATM   26  C   UNK N   1      27.817  18.841   4.693  0.00  0.00     0.186 A 
HETATM   27  O   UNK N   1      28.577  19.800   4.710  0.00  0.00    -0.287 OA
ENDBRANCH   1  17
TORSDOF 9
ENDMDL
MODEL 8
REMARK VINA RESULT:      -6.7     12.388     16.629
REMARK  9 active torsions:
REMARK  status: ('A' for Active; 'I' for Inactive)
REMARK    1  A    between atoms: C_8  and  C_5 
REMARK    2  A    between atoms: C_9  and  C_5 
REMARK    3  A    between atoms: C_12  and  C_8 
REMARK    4  A    between atoms: C_13  and  C_9 
REMARK    5  A    between atoms: C_18  and  C_12 
REMARK    6  A    between atoms: C_19  and  C_13 
REMARK    7  A    between atoms: C_18  and  C_17 
REMARK    8  A    between atoms: C_20  and  C_18 
REMARK    9  A    between atoms: O_24  and  C_19 
ROOT
HETATM    1  C   UNK N   1      28.211  24.073  -5.987  0.00  0.00     0.056 C 
ENDROOT
BRANCH   1   2
HETATM    2  C   UNK N   1      28.973  23.083  -5.089  0.00  0.00     0.014 C 
BRANCH   2   3
HETATM    3  C   UNK N   1      30.095  22.353  -5.824  0.00  0.00     0.001 C 
BRANCH   3   4
HETATM    4  C   UNK N   1      30.236  20.941  -5.290  0.00  0.00     0.001 C 
BRANCH   4   5
HETATM    5  C   UNK N   1      31.689  20.664  -4.956  0.00  0.00     0.010 C 
BRANCH   5   6
HETATM    6  C   UNK N   1      32.289  21.862  -4.242  0.00  0.00     0.110 C 
BRANCH   6   7
HETATM    7  C   UNK N   1      32.129  21.770  -2.753  0.00  0.00     0.139 C 
HETATM    8  O   UNK N   1      31.231  22.390  -2.208  0.00  0.00    -0.650 OA
BRANCH   7   9
HETATM    9  O   UNK N   1      32.957  21.008  -2.012  0.00  0.00    -0.776 OA
HETATM   10  H   UNK N   1      32.726  20.780  -1.133  0.00  0.00     0.167 HD
ENDBRANCH   7   9
ENDBRANCH   6   7
ENDBRANCH   5   6
ENDBRANCH   4   5
ENDBRANCH   3   4
ENDBRANCH   2   3
ENDBRANCH   1   2
BRANCH   1  11
HETATM   11  C   UNK N   1      27.286  23.322  -6.932  0.00  0.00    -0.050 A 
HETATM   12  C   UNK N   1      26.091  22.786  -6.423  0.00  0.00     0.008 A 
HETATM   13  C   UNK N   1      25.215  22.081  -7.253  0.00  0.00     0.001 A 
HETATM   14  C   UNK N   1      25.530  21.895  -8.600  0.00  0.00     0.000 A 
HETATM   15  C   UNK N   1      26.716  22.422  -9.119  0.00  0.00     0.001 A 
HETATM   16  C   UNK N   1      27.589  23.139  -8.291  0.00  0.00     0.008 A 
ENDBRANCH   1  11
BRANCH   1  17
HETATM   17  C   UNK N   1      27.680  25.396  -5.373  0.00  0.00     0.011 A 
HETATM   18  C   UNK N   1      27.019  25.496  -4.173  0.00  0.00    -0.000 A 
HETATM   19  C   UNK N   1      26.700  24.317  -3.307  0.00  0.00     0.053 C 
HETATM   20  C   UNK N   1      26.603  26.828  -3.653  0.00  0.00     0.185 A 
HETATM   21  C   UNK N   1      26.888  28.061  -4.416  0.00  0.00    -0.002 A 
HETATM   22  O   UNK N   1      26.028  26.907  -2.574  0.00  0.00    -0.287 OA
HETATM   23  C   UNK N   1      26.452  29.386  -3.860  0.00  0.00     0.053 C 
HETATM   24  C   UNK N   1      27.539  27.984  -5.592  0.00  0.00    -0.002 A 
HETATM   25  C   UNK N   1      27.841  29.225  -6.382  0.00  0.00     0.053 C 
HETATM   26  C   UNK N   1      27.976  26.665  -6.118  0.00  0.00     0.186 A 
HETATM   27  O   UNK N   1      28.602  26.624  -7.169  0.00  0.00    -0.287 OA
ENDBRANCH   1  17
TORSDOF 9
ENDMDL
MODEL 9
REMARK VINA RESULT:      -6.7      3.335      5.787
REMARK  9 active torsions:
REMARK  status: ('A' for Active; 'I' for Inactive)
REMARK    1  A    between atoms: C_8  and  C_5 
REMARK    2  A    between atoms: C_9  and  C_5 
REMARK    3  A    between atoms: C_12  and  C_8 
REMARK    4  A    between atoms: C_13  and  C_9 
REMARK    5  A    between atoms: C_18  and  C_12 
REMARK    6  A    between atoms: C_19  and  C_13 
REMARK    7  A    between atoms: C_18  and  C_17 
REMARK    8  A    between atoms: C_20  and  C_18 
REMARK    9  A    between atoms: O_24  and  C_19 
ROOT
HETATM    1  C   UNK N   1      28.402  17.487   6.271  0.00  0.00     0.056 C 
ENDROOT
BRANCH   1   2
HETATM    2  C   UNK N   1      27.516  16.696   7.248  0.00  0.00     0.014 C 
BRANCH   2   3
HETATM    3  C   UNK N   1      26.547  15.749   6.543  0.00  0.00     0.001 C 
BRANCH   3   4
HETATM    4  C   UNK N   1      27.116  15.321   5.205  0.00  0.00     0.001 C 
BRANCH   4   5
HETATM    5  C   UNK N   1      26.096  15.573   4.112  0.00  0.00     0.010 C 
BRANCH   5   6
HETATM    6  C   UNK N   1      26.801  16.035   2.848  0.00  0.00     0.110 C 
BRANCH   6   7
HETATM    7  C   UNK N   1      27.723  14.988   2.301  0.00  0.00     0.139 C 
HETATM    8  O   UNK N   1      27.272  13.903   1.975  0.00  0.00    -0.650 OA
BRANCH   7   9
HETATM    9  O   UNK N   1      29.041  15.230   2.157  0.00  0.00    -0.776 OA
HETATM   10  H   UNK N   1      29.356  15.692   1.405  0.00  0.00     0.167 HD
ENDBRANCH   7   9
ENDBRANCH   6   7
ENDBRANCH   5   6
ENDBRANCH   4   5
ENDBRANCH   3   4
ENDBRANCH   2   3
ENDBRANCH   1   2
BRANCH   1  11
HETATM   11  C   UNK N   1      27.791  18.851   5.992  0.00  0.00    -0.050 A 
HETATM   12  C   UNK N   1      27.423  19.170   4.674  0.00  0.00     0.008 A 
HETATM   13  C   UNK N   1      26.865  20.415   4.371  0.00  0.00     0.001 A 
HETATM   14  C   UNK N   1      26.681  21.360   5.381  0.00  0.00     0.000 A 
HETATM   15  C   UNK N   1      27.044  21.056   6.697  0.00  0.00     0.001 A 
HETATM   16  C   UNK N   1      27.591  19.805   7.003  0.00  0.00     0.008 A 
ENDBRANCH   1  11
BRANCH   1  17
HETATM   17  C   UNK N   1      29.945  17.415   6.424  0.00  0.00     0.011 A 
HETATM   18  C   UNK N   1      30.623  17.518   7.614  0.00  0.00    -0.000 A 
HETATM   19  C   UNK N   1      29.947  17.740   8.930  0.00  0.00     0.053 C 
HETATM   20  C   UNK N   1      32.106  17.378   7.649  0.00  0.00     0.185 A 
HETATM   21  C   UNK N   1      32.872  17.134   6.409  0.00  0.00    -0.002 A 
HETATM   22  O   UNK N   1      32.699  17.455   8.718  0.00  0.00    -0.287 OA
HETATM   23  C   UNK N   1      34.366  17.000   6.484  0.00  0.00     0.053 C 
HETATM   24  C   UNK N   1      32.226  17.027   5.233  0.00  0.00    -0.002 A 
HETATM   25  C   UNK N   1      32.985  16.775   3.963  0.00  0.00     0.053 C 
HETATM   26  C   UNK N   1      30.746  17.146   5.182  0.00  0.00     0.186 A 
HETATM   27  O   UNK N   1      30.176  17.004   4.108  0.00  0.00    -0.287 OA
ENDBRANCH   1  17
TORSDOF 9
ENDMDL
