MODEL 1
REMARK VINA RESULT:      -8.7      0.000      0.000
REMARK  5 active torsions:
REMARK  status: ('A' for Active; 'I' for Inactive)
REMARK    1  A    between atoms: C_3  and  S_20 
REMARK    2  A    between atoms: C_5  and  N_10 
REMARK       I    between atoms: C_9  and  N_10 
REMARK    3  A    between atoms: C_13  and  N_16 
REMARK    4  A    between atoms: N_16  and  C_17 
REMARK    5  A    between atoms: S_20  and  N_32 
ROOT
HETATM    1  N   UNK N   1      34.327  16.638   9.674  0.00  0.00    -0.202 N 
ATOM      2  HN  UNK N   1      33.858  17.385   9.161  1.00  0.00     0.183 HD
HETATM    3  C   UNK N   1      33.989  15.339   9.450  0.00  0.00     0.684 A 
HETATM    4  N   UNK N   1      33.054  14.935   8.474  0.00  0.00    -0.192 N 
HETATM    5  C   UNK N   1      35.299  16.935  10.590  0.00  0.00     0.110 A 
HETATM    6  C   UNK N   1      35.949  15.909  11.304  0.00  0.00     0.067 A 
HETATM    7  C   UNK N   1      35.564  14.584  11.056  0.00  0.00     0.124 A 
HETATM    8  N   UNK N   1      34.615  14.368  10.125  0.00  0.00    -0.176 N 
ATOM      9  HN  UNK N   1      34.357  13.402   9.920  1.00  0.00     0.186 HD
HETATM   10  H   UNK N   1      33.150  14.003   8.171  0.00  0.00     0.184 HD
ENDROOT
BRANCH   4  11
HETATM   11  C   UNK N   1      32.006  15.647   7.865  0.00  0.00     0.050 A 
HETATM   12  C   UNK N   1      31.116  16.303   8.709  0.00  0.00     0.055 A 
HETATM   13  C   UNK N   1      30.094  17.093   8.204  0.00  0.00     0.087 A 
HETATM   14  C   UNK N   1      29.966  17.246   6.811  0.00  0.00    -0.039 A 
HETATM   15  C   UNK N   1      30.864  16.591   5.954  0.00  0.00     0.010 A 
HETATM   16  C   UNK N   1      28.891  18.095   6.226  0.00  0.00     0.050 C 
HETATM   17  C   UNK N   1      31.889  15.791   6.479  0.00  0.00     0.030 A 
BRANCH  13  18
HETATM   18  S   UNK N   1      28.987  17.881   9.378  0.00  0.00     0.257 S 
HETATM   19  O   UNK N   1      29.682  18.878  10.317  0.00  0.00    -0.201 OA
HETATM   20  O   UNK N   1      28.403  16.865  10.372  0.00  0.00    -0.201 OA
BRANCH  18  21
HETATM   21  N   UNK N   1      27.573  18.720   8.742  0.00  0.00    -0.324 N 
HETATM   22  H   UNK N   1      26.580  18.486   8.765  0.00  0.00     0.169 HD
HETATM   23  H   UNK N   1      27.786  19.598   8.268  0.00  0.00     0.169 HD
ENDBRANCH  18  21
ENDBRANCH  13  18
ENDBRANCH   4  11
BRANCH   7  24
HETATM   24  N   UNK N   1      36.212  13.449  11.656  0.00  0.00    -0.337 N 
HETATM   25  C   UNK N   1      37.197  12.709  10.902  0.00  0.00     0.158 C 
BRANCH  24  26
HETATM   26  C   UNK N   1      35.673  12.891  12.873  0.00  0.00     0.037 A 
HETATM   27  C   UNK N   1      35.240  11.530  12.917  0.00  0.00     0.031 A 
HETATM   28  C   UNK N   1      34.942  10.882  14.119  0.00  0.00     0.018 A 
HETATM   29  C   UNK N   1      35.091  11.616  15.278  0.00  0.00     0.016 A 
HETATM   30  C   UNK N   1      35.447  12.939  15.267  0.00  0.00     0.062 A 
HETATM   31  C   UNK N   1      34.977  11.274  16.599  0.00  0.00     0.036 A 
HETATM   32  C   UNK N   1      35.737  13.622  14.085  0.00  0.00     0.061 A 
HETATM   33  N   UNK N   1      35.541  13.393  16.530  0.00  0.00    -0.298 N 
HETATM   34  N   UNK N   1      35.257  12.371  17.335  0.00  0.00    -0.300 N 
ATOM     35  HN  UNK N   1      35.786  14.341  16.817  1.00  0.00     0.187 HD
HETATM   36  C   UNK N   1      35.290  12.452  18.784  0.00  0.00     0.177 C 
HETATM   37  C   UNK N   1      34.652   9.923  17.145  0.00  0.00     0.071 C 
ENDBRANCH  24  26
ENDBRANCH   7  24
TORSDOF 5
ENDMDL
MODEL 2
REMARK VINA RESULT:      -8.7      5.902     10.105
REMARK  5 active torsions:
REMARK  status: ('A' for Active; 'I' for Inactive)
REMARK    1  A    between atoms: C_3  and  S_20 
REMARK    2  A    between atoms: C_5  and  N_10 
REMARK       I    between atoms: C_9  and  N_10 
REMARK    3  A    between atoms: C_13  and  N_16 
REMARK    4  A    between atoms: N_16  and  C_17 
REMARK    5  A    between atoms: S_20  and  N_32 
ROOT
HETATM    1  N   UNK N   1      26.062  18.491   3.869  0.00  0.00    -0.202 N 
ATOM      2  HN  UNK N   1      25.451  18.524   3.053  1.00  0.00     0.183 HD
HETATM    3  C   UNK N   1      25.689  17.790   4.974  0.00  0.00     0.684 A 
HETATM    4  N   UNK N   1      24.509  17.021   5.046  0.00  0.00    -0.192 N 
HETATM    5  C   UNK N   1      27.260  19.151   3.860  0.00  0.00     0.110 A 
HETATM    6  C   UNK N   1      28.108  19.114   4.985  0.00  0.00     0.067 A 
HETATM    7  C   UNK N   1      27.683  18.392   6.110  0.00  0.00     0.124 A 
HETATM    8  N   UNK N   1      26.501  17.750   6.037  0.00  0.00    -0.176 N 
ATOM      9  HN  UNK N   1      26.206  17.199   6.843  1.00  0.00     0.186 HD
HETATM   10  H   UNK N   1      24.522  16.309   5.726  0.00  0.00     0.184 HD
ENDROOT
BRANCH   4  11
HETATM   11  C   UNK N   1      23.318  17.106   4.305  0.00  0.00     0.050 A 
HETATM   12  C   UNK N   1      22.886  18.380   3.951  0.00  0.00     0.055 A 
HETATM   13  C   UNK N   1      21.764  18.566   3.157  0.00  0.00     0.087 A 
HETATM   14  C   UNK N   1      21.059  17.442   2.688  0.00  0.00    -0.039 A 
HETATM   15  C   UNK N   1      21.491  16.154   3.038  0.00  0.00     0.010 A 
HETATM   16  C   UNK N   1      19.856  17.595   1.823  0.00  0.00     0.050 C 
HETATM   17  C   UNK N   1      22.625  15.981   3.846  0.00  0.00     0.030 A 
BRANCH  13  18
HETATM   18  S   UNK N   1      21.280  20.251   2.773  0.00  0.00     0.257 S 
HETATM   19  O   UNK N   1      22.416  21.275   2.917  0.00  0.00    -0.201 OA
HETATM   20  O   UNK N   1      20.246  20.784   3.777  0.00  0.00    -0.201 OA
BRANCH  18  21
HETATM   21  N   UNK N   1      20.547  20.561   1.199  0.00  0.00    -0.324 N 
HETATM   22  H   UNK N   1      19.641  20.952   0.940  0.00  0.00     0.169 HD
HETATM   23  H   UNK N   1      21.135  20.303   0.406  0.00  0.00     0.169 HD
ENDBRANCH  18  21
ENDBRANCH  13  18
ENDBRANCH   4  11
BRANCH   7  24
HETATM   24  N   UNK N   1      28.496  18.208   7.282  0.00  0.00    -0.337 N 
HETATM   25  C   UNK N   1      28.249  19.014   8.455  0.00  0.00     0.158 C 
BRANCH  24  26
HETATM   26  C   UNK N   1      29.717  17.445   7.180  0.00  0.00     0.037 A 
HETATM   27  C   UNK N   1      30.270  17.129   5.901  0.00  0.00     0.031 A 
HETATM   28  C   UNK N   1      31.559  16.609   5.756  0.00  0.00     0.018 A 
HETATM   29  C   UNK N   1      32.289  16.416   6.911  0.00  0.00     0.016 A 
HETATM   30  C   UNK N   1      31.767  16.653   8.155  0.00  0.00     0.062 A 
HETATM   31  C   UNK N   1      33.583  16.021   7.121  0.00  0.00     0.036 A 
HETATM   32  C   UNK N   1      30.479  17.158   8.339  0.00  0.00     0.061 A 
HETATM   33  N   UNK N   1      32.701  16.406   9.092  0.00  0.00    -0.298 N 
HETATM   34  N   UNK N   1      33.805  16.025   8.453  0.00  0.00    -0.300 N 
ATOM     35  HN  UNK N   1      32.585  16.496  10.102  1.00  0.00     0.187 HD
HETATM   36  C   UNK N   1      35.054  15.706   9.120  0.00  0.00     0.177 C 
HETATM   37  C   UNK N   1      34.595  15.690   6.075  0.00  0.00     0.071 C 
ENDBRANCH  24  26
ENDBRANCH   7  24
TORSDOF 5
ENDMDL
MODEL 3
REMARK VINA RESULT:      -8.6      1.570      2.206
REMARK  5 active torsions:
REMARK  status: ('A' for Active; 'I' for Inactive)
REMARK    1  A    between atoms: C_3  and  S_20 
REMARK    2  A    between atoms: C_5  and  N_10 
REMARK       I    between atoms: C_9  and  N_10 
REMARK    3  A    between atoms: C_13  and  N_16 
REMARK    4  A    between atoms: N_16  and  C_17 
REMARK    5  A    between atoms: S_20  and  N_32 
ROOT
HETATM    1  N   UNK N   1      33.034  13.521   9.021  0.00  0.00    -0.202 N 
ATOM      2  HN  UNK N   1      32.138  13.549   8.534  1.00  0.00     0.183 HD
HETATM    3  C   UNK N   1      33.672  14.678   9.345  0.00  0.00     0.684 A 
HETATM    4  N   UNK N   1      33.129  15.958   9.111  0.00  0.00    -0.192 N 
HETATM    5  C   UNK N   1      33.601  12.320   9.350  0.00  0.00     0.110 A 
HETATM    6  C   UNK N   1      34.841  12.273  10.019  0.00  0.00     0.067 A 
HETATM    7  C   UNK N   1      35.475  13.486  10.324  0.00  0.00     0.124 A 
HETATM    8  N   UNK N   1      34.845  14.628   9.988  0.00  0.00    -0.176 N 
ATOM      9  HN  UNK N   1      35.290  15.511  10.238  1.00  0.00     0.186 HD
HETATM   10  H   UNK N   1      33.496  16.673   9.681  0.00  0.00     0.184 HD
ENDROOT
BRANCH   4  11
HETATM   11  C   UNK N   1      32.148  16.380   8.197  0.00  0.00     0.050 A 
HETATM   12  C   UNK N   1      30.878  16.629   8.705  0.00  0.00     0.055 A 
HETATM   13  C   UNK N   1      29.863  17.121   7.899  0.00  0.00     0.087 A 
HETATM   14  C   UNK N   1      30.128  17.388   6.543  0.00  0.00    -0.039 A 
HETATM   15  C   UNK N   1      31.409  17.143   6.024  0.00  0.00     0.010 A 
HETATM   16  C   UNK N   1      29.071  17.928   5.643  0.00  0.00     0.050 C 
HETATM   17  C   UNK N   1      32.425  16.641   6.851  0.00  0.00     0.030 A 
BRANCH  13  18
HETATM   18  S   UNK N   1      28.254  17.391   8.648  0.00  0.00     0.257 S 
HETATM   19  O   UNK N   1      28.162  16.931  10.111  0.00  0.00    -0.201 OA
HETATM   20  O   UNK N   1      27.169  16.533   7.979  0.00  0.00    -0.201 OA
BRANCH  18  21
HETATM   21  N   UNK N   1      27.591  19.024   8.614  0.00  0.00    -0.324 N 
HETATM   22  H   UNK N   1      27.973  19.917   8.926  0.00  0.00     0.169 HD
HETATM   23  H   UNK N   1      26.657  19.088   8.206  0.00  0.00     0.169 HD
ENDBRANCH  18  21
ENDBRANCH  13  18
ENDBRANCH   4  11
BRANCH   7  24
HETATM   24  N   UNK N   1      36.696  13.569  11.080  0.00  0.00    -0.337 N 
HETATM   25  C   UNK N   1      37.956  13.695  10.386  0.00  0.00     0.158 C 
BRANCH  24  26
HETATM   26  C   UNK N   1      36.681  13.236  12.484  0.00  0.00     0.037 A 
HETATM   27  C   UNK N   1      35.958  14.047  13.413  0.00  0.00     0.031 A 
HETATM   28  C   UNK N   1      35.715  13.637  14.727  0.00  0.00     0.018 A 
HETATM   29  C   UNK N   1      36.201  12.399  15.094  0.00  0.00     0.016 A 
HETATM   30  C   UNK N   1      36.947  11.623  14.247  0.00  0.00     0.062 A 
HETATM   31  C   UNK N   1      36.066  11.667  16.244  0.00  0.00     0.036 A 
HETATM   32  C   UNK N   1      37.222  12.008  12.934  0.00  0.00     0.061 A 
HETATM   33  N   UNK N   1      37.265  10.465  14.854  0.00  0.00    -0.298 N 
HETATM   34  N   UNK N   1      36.721  10.499  16.069  0.00  0.00    -0.300 N 
ATOM     35  HN  UNK N   1      37.817   9.704  14.458  1.00  0.00     0.187 HD
HETATM   36  C   UNK N   1      36.808   9.408  17.023  0.00  0.00     0.177 C 
HETATM   37  C   UNK N   1      35.296  12.055  17.462  0.00  0.00     0.071 C 
ENDBRANCH  24  26
ENDBRANCH   7  24
TORSDOF 5
ENDMDL
MODEL 4
REMARK VINA RESULT:      -8.6      6.590     10.283
REMARK  5 active torsions:
REMARK  status: ('A' for Active; 'I' for Inactive)
REMARK    1  A    between atoms: C_3  and  S_20 
REMARK    2  A    between atoms: C_5  and  N_10 
REMARK       I    between atoms: C_9  and  N_10 
REMARK    3  A    between atoms: C_13  and  N_16 
REMARK    4  A    between atoms: N_16  and  C_17 
REMARK    5  A    between atoms: S_20  and  N_32 
ROOT
HETATM    1  N   UNK N   1      28.237  14.425   5.046  0.00  0.00    -0.202 N 
ATOM      2  HN  UNK N   1      29.182  14.440   4.662  1.00  0.00     0.183 HD
HETATM    3  C   UNK N   1      27.792  15.464   5.803  0.00  0.00     0.684 A 
HETATM    4  N   UNK N   1      28.546  16.631   6.043  0.00  0.00    -0.192 N 
HETATM    5  C   UNK N   1      27.411  13.362   4.804  0.00  0.00     0.110 A 
HETATM    6  C   UNK N   1      26.106  13.333   5.335  0.00  0.00     0.067 A 
HETATM    7  C   UNK N   1      25.688  14.416   6.122  0.00  0.00     0.124 A 
HETATM    8  N   UNK N   1      26.549  15.436   6.299  0.00  0.00    -0.176 N 
ATOM      9  HN  UNK N   1      26.235  16.238   6.844  1.00  0.00     0.186 HD
HETATM   10  H   UNK N   1      28.014  17.423   6.290  0.00  0.00     0.184 HD
ENDROOT
BRANCH   4  11
HETATM   11  C   UNK N   1      29.934  16.849   5.987  0.00  0.00     0.050 A 
HETATM   12  C   UNK N   1      30.682  16.423   7.079  0.00  0.00     0.055 A 
HETATM   13  C   UNK N   1      32.065  16.524   7.088  0.00  0.00     0.087 A 
HETATM   14  C   UNK N   1      32.725  17.054   5.962  0.00  0.00    -0.039 A 
HETATM   15  C   UNK N   1      31.975  17.481   4.855  0.00  0.00     0.010 A 
HETATM   16  C   UNK N   1      34.209  17.170   5.923  0.00  0.00     0.050 C 
HETATM   17  C   UNK N   1      30.576  17.378   4.863  0.00  0.00     0.030 A 
BRANCH  13  18
HETATM   18  S   UNK N   1      32.937  15.964   8.553  0.00  0.00     0.257 S 
HETATM   19  O   UNK N   1      33.926  14.818   8.291  0.00  0.00    -0.201 OA
HETATM   20  O   UNK N   1      31.978  15.326   9.571  0.00  0.00    -0.201 OA
BRANCH  18  21
HETATM   21  N   UNK N   1      33.826  17.162   9.494  0.00  0.00    -0.324 N 
HETATM   22  H   UNK N   1      33.579  18.106   9.793  0.00  0.00     0.169 HD
HETATM   23  H   UNK N   1      34.752  16.856   9.793  0.00  0.00     0.169 HD
ENDBRANCH  18  21
ENDBRANCH  13  18
ENDBRANCH   4  11
BRANCH   7  24
HETATM   24  N   UNK N   1      24.354  14.541   6.645  0.00  0.00    -0.337 N 
HETATM   25  C   UNK N   1      23.525  15.647   6.225  0.00  0.00     0.158 C 
BRANCH  24  26
HETATM   26  C   UNK N   1      23.965  13.745   7.784  0.00  0.00     0.037 A 
HETATM   27  C   UNK N   1      24.932  13.361   8.764  0.00  0.00     0.031 A 
HETATM   28  C   UNK N   1      24.566  12.805   9.993  0.00  0.00     0.018 A 
HETATM   29  C   UNK N   1      23.215  12.646  10.229  0.00  0.00     0.016 A 
HETATM   30  C   UNK N   1      22.266  12.950   9.289  0.00  0.00     0.062 A 
HETATM   31  C   UNK N   1      22.522  12.231  11.334  0.00  0.00     0.036 A 
HETATM   32  C   UNK N   1      22.596  13.492   8.046  0.00  0.00     0.061 A 
HETATM   33  N   UNK N   1      21.040  12.723   9.794  0.00  0.00    -0.298 N 
HETATM   34  N   UNK N   1      21.205  12.288  11.041  0.00  0.00    -0.300 N 
ATOM     35  HN  UNK N   1      20.151  12.859   9.312  1.00  0.00     0.187 HD
HETATM   36  C   UNK N   1      20.108  11.969  11.937  0.00  0.00     0.177 C 
HETATM   37  C   UNK N   1      23.101  11.830  12.651  0.00  0.00     0.071 C 
ENDBRANCH  24  26
ENDBRANCH   7  24
TORSDOF 5
ENDMDL
MODEL 5
REMARK VINA RESULT:      -8.5      6.382     12.170
REMARK  5 active torsions:
REMARK  status: ('A' for Active; 'I' for Inactive)
REMARK    1  A    between atoms: C_3  and  S_20 
REMARK    2  A    between atoms: C_5  and  N_10 
REMARK       I    between atoms: C_9  and  N_10 
REMARK    3  A    between atoms: C_13  and  N_16 
REMARK    4  A    between atoms: N_16  and  C_17 
REMARK    5  A    between atoms: S_20  and  N_32 
ROOT
HETATM    1  N   UNK N   1      27.718  19.612   4.941  0.00  0.00    -0.202 N 
ATOM      2  HN  UNK N   1      28.681  19.796   5.223  1.00  0.00     0.183 HD
HETATM    3  C   UNK N   1      26.922  18.818   5.706  0.00  0.00     0.684 A 
HETATM    4  N   UNK N   1      27.326  18.270   6.941  0.00  0.00    -0.192 N 
HETATM    5  C   UNK N   1      27.220  20.161   3.791  0.00  0.00     0.110 A 
HETATM    6  C   UNK N   1      25.892  19.908   3.392  0.00  0.00     0.067 A 
HETATM    7  C   UNK N   1      25.107  19.073   4.200  0.00  0.00     0.124 A 
HETATM    8  N   UNK N   1      25.659  18.587   5.328  0.00  0.00    -0.176 N 
ATOM      9  HN  UNK N   1      25.078  18.006   5.932  1.00  0.00     0.186 HD
HETATM   10  H   UNK N   1      26.588  18.023   7.544  0.00  0.00     0.184 HD
ENDROOT
BRANCH   4  11
HETATM   11  C   UNK N   1      28.612  18.019   7.451  0.00  0.00     0.050 A 
HETATM   12  C   UNK N   1      29.374  17.061   6.794  0.00  0.00     0.055 A 
HETATM   13  C   UNK N   1      30.681  16.795   7.173  0.00  0.00     0.087 A 
HETATM   14  C   UNK N   1      31.252  17.522   8.234  0.00  0.00    -0.039 A 
HETATM   15  C   UNK N   1      30.489  18.494   8.900  0.00  0.00     0.010 A 
HETATM   16  C   UNK N   1      32.656  17.278   8.667  0.00  0.00     0.050 C 
HETATM   17  C   UNK N   1      29.166  18.749   8.508  0.00  0.00     0.030 A 
BRANCH  13  18
HETATM   18  S   UNK N   1      31.573  15.524   6.271  0.00  0.00     0.257 S 
HETATM   19  O   UNK N   1      32.826  16.038   5.546  0.00  0.00    -0.201 OA
HETATM   20  O   UNK N   1      30.739  14.968   5.106  0.00  0.00    -0.201 OA
BRANCH  18  21
HETATM   21  N   UNK N   1      32.083  14.088   7.157  0.00  0.00    -0.324 N 
HETATM   22  H   UNK N   1      31.586  13.230   7.400  0.00  0.00     0.169 HD
HETATM   23  H   UNK N   1      33.049  14.119   7.485  0.00  0.00     0.169 HD
ENDBRANCH  18  21
ENDBRANCH  13  18
ENDBRANCH   4  11
BRANCH   7  24
HETATM   24  N   UNK N   1      23.716  18.812   3.945  0.00  0.00    -0.337 N 
HETATM   25  C   UNK N   1      22.906  19.823   3.305  0.00  0.00     0.158 C 
BRANCH  24  26
HETATM   26  C   UNK N   1      23.082  17.682   4.581  0.00  0.00     0.037 A 
HETATM   27  C   UNK N   1      23.476  16.349   4.250  0.00  0.00     0.031 A 
HETATM   28  C   UNK N   1      23.070  15.244   5.003  0.00  0.00     0.018 A 
HETATM   29  C   UNK N   1      22.268  15.495   6.098  0.00  0.00     0.016 A 
HETATM   30  C   UNK N   1      21.825  16.753   6.408  0.00  0.00     0.062 A 
HETATM   31  C   UNK N   1      21.779  14.677   7.081  0.00  0.00     0.036 A 
HETATM   32  C   UNK N   1      22.198  17.877   5.669  0.00  0.00     0.061 A 
HETATM   33  N   UNK N   1      21.086  16.709   7.532  0.00  0.00    -0.298 N 
HETATM   34  N   UNK N   1      21.067  15.441   7.937  0.00  0.00    -0.300 N 
ATOM     35  HN  UNK N   1      20.629  17.499   7.989  1.00  0.00     0.187 HD
HETATM   36  C   UNK N   1      20.400  14.989   9.145  0.00  0.00     0.177 C 
HETATM   37  C   UNK N   1      22.021  13.211   7.223  0.00  0.00     0.071 C 
ENDBRANCH  24  26
ENDBRANCH   7  24
TORSDOF 5
ENDMDL
MODEL 6
REMARK VINA RESULT:      -8.5      4.412      7.819
REMARK  5 active torsions:
REMARK  status: ('A' for Active; 'I' for Inactive)
REMARK    1  A    between atoms: C_3  and  S_20 
REMARK    2  A    between atoms: C_5  and  N_10 
REMARK       I    between atoms: C_9  and  N_10 
REMARK    3  A    between atoms: C_13  and  N_16 
REMARK    4  A    between atoms: N_16  and  C_17 
REMARK    5  A    between atoms: S_20  and  N_32 
ROOT
HETATM    1  N   UNK N   1      27.444  18.873   6.636  0.00  0.00    -0.202 N 
ATOM      2  HN  UNK N   1      26.526  19.316   6.679  1.00  0.00     0.183 HD
HETATM    3  C   UNK N   1      28.015  18.602   5.433  0.00  0.00     0.684 A 
HETATM    4  N   UNK N   1      27.441  18.968   4.198  0.00  0.00    -0.192 N 
HETATM    5  C   UNK N   1      28.105  18.547   7.789  0.00  0.00     0.110 A 
HETATM    6  C   UNK N   1      29.372  17.931   7.738  0.00  0.00     0.067 A 
HETATM    7  C   UNK N   1      29.923  17.654   6.479  0.00  0.00     0.124 A 
HETATM    8  N   UNK N   1      29.222  18.024   5.390  0.00  0.00    -0.176 N 
ATOM      9  HN  UNK N   1      29.637  17.852   4.474  1.00  0.00     0.186 HD
HETATM   10  H   UNK N   1      28.079  19.037   3.450  0.00  0.00     0.184 HD
ENDROOT
BRANCH   4  11
HETATM   11  C   UNK N   1      26.106  19.249   3.860  0.00  0.00     0.050 A 
HETATM   12  C   UNK N   1      25.124  18.501   4.500  0.00  0.00     0.055 A 
HETATM   13  C   UNK N   1      23.776  18.753   4.292  0.00  0.00     0.087 A 
HETATM   14  C   UNK N   1      23.396  19.797   3.428  0.00  0.00    -0.039 A 
HETATM   15  C   UNK N   1      24.383  20.559   2.782  0.00  0.00     0.010 A 
HETATM   16  C   UNK N   1      21.961  20.111   3.185  0.00  0.00     0.050 C 
HETATM   17  C   UNK N   1      25.742  20.289   2.999  0.00  0.00     0.030 A 
BRANCH  13  18
HETATM   18  S   UNK N   1      22.588  17.718   5.152  0.00  0.00     0.257 S 
HETATM   19  O   UNK N   1      21.547  17.066   4.230  0.00  0.00    -0.201 OA
HETATM   20  O   UNK N   1      21.699  18.544   6.096  0.00  0.00    -0.201 OA
BRANCH  18  21
HETATM   21  N   UNK N   1      23.209  16.422   6.173  0.00  0.00    -0.324 N 
HETATM   22  H   UNK N   1      22.969  15.432   6.230  0.00  0.00     0.169 HD
HETATM   23  H   UNK N   1      23.940  16.714   6.822  0.00  0.00     0.169 HD
ENDBRANCH  18  21
ENDBRANCH  13  18
ENDBRANCH   4  11
BRANCH   7  24
HETATM   24  N   UNK N   1      31.242  17.109   6.298  0.00  0.00    -0.337 N 
HETATM   25  C   UNK N   1      31.794  17.005   4.968  0.00  0.00     0.158 C 
BRANCH  24  26
HETATM   26  C   UNK N   1      31.873  16.414   7.393  0.00  0.00     0.037 A 
HETATM   27  C   UNK N   1      31.862  14.985   7.447  0.00  0.00     0.031 A 
HETATM   28  C   UNK N   1      32.657  14.268   8.345  0.00  0.00     0.018 A 
HETATM   29  C   UNK N   1      33.470  15.003   9.184  0.00  0.00     0.016 A 
HETATM   30  C   UNK N   1      33.462  16.373   9.198  0.00  0.00     0.062 A 
HETATM   31  C   UNK N   1      34.420  14.629  10.097  0.00  0.00     0.036 A 
HETATM   32  C   UNK N   1      32.669  17.121   8.326  0.00  0.00     0.061 A 
HETATM   33  N   UNK N   1      34.365  16.822  10.089  0.00  0.00    -0.298 N 
HETATM   34  N   UNK N   1      34.946  15.754  10.629  0.00  0.00    -0.300 N 
ATOM     35  HN  UNK N   1      34.567  17.798  10.308  1.00  0.00     0.187 HD
HETATM   36  C   UNK N   1      36.011  15.825  11.613  0.00  0.00     0.177 C 
HETATM   37  C   UNK N   1      34.845  13.236  10.421  0.00  0.00     0.071 C 
ENDBRANCH  24  26
ENDBRANCH   7  24
TORSDOF 5
ENDMDL
MODEL 7
REMARK VINA RESULT:      -8.3      3.665      9.875
REMARK  5 active torsions:
REMARK  status: ('A' for Active; 'I' for Inactive)
REMARK    1  A    between atoms: C_3  and  S_20 
REMARK    2  A    between atoms: C_5  and  N_10 
REMARK       I    between atoms: C_9  and  N_10 
REMARK    3  A    between atoms: C_13  and  N_16 
REMARK    4  A    between atoms: N_16  and  C_17 
REMARK    5  A    between atoms: S_20  and  N_32 
ROOT
HETATM    1  N   UNK N   1      34.936  13.829   9.984  0.00  0.00    -0.202 N 
ATOM      2  HN  UNK N   1      35.165  13.006  10.542  1.00  0.00     0.183 HD
HETATM    3  C   UNK N   1      35.105  15.075  10.503  0.00  0.00     0.684 A 
HETATM    4  N   UNK N   1      35.661  15.319  11.776  0.00  0.00    -0.192 N 
HETATM    5  C   UNK N   1      34.457  13.687   8.710  0.00  0.00     0.110 A 
HETATM    6  C   UNK N   1      34.136  14.819   7.934  0.00  0.00     0.067 A 
HETATM    7  C   UNK N   1      34.310  16.086   8.509  0.00  0.00     0.124 A 
HETATM    8  N   UNK N   1      34.806  16.147   9.760  0.00  0.00    -0.176 N 
ATOM      9  HN  UNK N   1      34.964  17.069  10.167  1.00  0.00     0.186 HD
HETATM   10  H   UNK N   1      36.046  16.218  11.893  0.00  0.00     0.184 HD
ENDROOT
BRANCH   4  11
HETATM   11  C   UNK N   1      35.753  14.487  12.906  0.00  0.00     0.050 A 
HETATM   12  C   UNK N   1      35.079  13.273  12.850  0.00  0.00     0.055 A 
HETATM   13  C   UNK N   1      35.170  12.350  13.882  0.00  0.00     0.087 A 
HETATM   14  C   UNK N   1      35.973  12.644  15.000  0.00  0.00    -0.039 A 
HETATM   15  C   UNK N   1      36.660  13.867  15.060  0.00  0.00     0.010 A 
HETATM   16  C   UNK N   1      36.109  11.678  16.125  0.00  0.00     0.050 C 
HETATM   17  C   UNK N   1      36.555  14.792  14.011  0.00  0.00     0.030 A 
BRANCH  13  18
HETATM   18  S   UNK N   1      34.246  10.820  13.721  0.00  0.00     0.257 S 
HETATM   19  O   UNK N   1      33.073  10.693  14.705  0.00  0.00    -0.201 OA
HETATM   20  O   UNK N   1      35.104   9.600  14.094  0.00  0.00    -0.201 OA
BRANCH  18  21
HETATM   21  N   UNK N   1      33.591  10.413  12.135  0.00  0.00    -0.324 N 
HETATM   22  H   UNK N   1      33.768  10.806  11.210  0.00  0.00     0.169 HD
HETATM   23  H   UNK N   1      32.917   9.648  12.145  0.00  0.00     0.169 HD
ENDBRANCH  18  21
ENDBRANCH  13  18
ENDBRANCH   4  11
BRANCH   7  24
HETATM   24  N   UNK N   1      34.100  17.313   7.789  0.00  0.00    -0.337 N 
HETATM   25  C   UNK N   1      34.729  18.528   8.253  0.00  0.00     0.158 C 
BRANCH  24  26
HETATM   26  C   UNK N   1      33.050  17.381   6.802  0.00  0.00     0.037 A 
HETATM   27  C   UNK N   1      33.360  17.313   5.408  0.00  0.00     0.031 A 
HETATM   28  C   UNK N   1      32.374  17.132   4.435  0.00  0.00     0.018 A 
HETATM   29  C   UNK N   1      31.073  17.013   4.878  0.00  0.00     0.016 A 
HETATM   30  C   UNK N   1      30.735  17.132   6.200  0.00  0.00     0.062 A 
HETATM   31  C   UNK N   1      29.903  16.742   4.220  0.00  0.00     0.036 A 
HETATM   32  C   UNK N   1      31.692  17.328   7.198  0.00  0.00     0.061 A 
HETATM   33  N   UNK N   1      29.411  16.948   6.348  0.00  0.00    -0.298 N 
HETATM   34  N   UNK N   1      28.912  16.707   5.137  0.00  0.00    -0.300 N 
ATOM     35  HN  UNK N   1      28.887  16.985   7.223  1.00  0.00     0.187 HD
HETATM   36  C   UNK N   1      27.512  16.418   4.883  0.00  0.00     0.177 C 
HETATM   37  C   UNK N   1      29.742  16.479   2.760  0.00  0.00     0.071 C 
ENDBRANCH  24  26
ENDBRANCH   7  24
TORSDOF 5
ENDMDL
MODEL 8
REMARK VINA RESULT:      -7.9      7.480     13.555
REMARK  5 active torsions:
REMARK  status: ('A' for Active; 'I' for Inactive)
REMARK    1  A    between atoms: C_3  and  S_20 
REMARK    2  A    between atoms: C_5  and  N_10 
REMARK       I    between atoms: C_9  and  N_10 
REMARK    3  A    between atoms: C_13  and  N_16 
REMARK    4  A    between atoms: N_16  and  C_17 
REMARK    5  A    between atoms: S_20  and  N_32 
ROOT
HETATM    1  N   UNK N   1      26.577  14.514   5.889  0.00  0.00    -0.202 N 
ATOM      2  HN  UNK N   1      27.546  14.310   5.642  1.00  0.00     0.183 HD
HETATM    3  C   UNK N   1      26.139  15.801   5.929  0.00  0.00     0.684 A 
HETATM    4  N   UNK N   1      26.938  16.906   5.570  0.00  0.00    -0.192 N 
HETATM    5  C   UNK N   1      25.712  13.496   6.184  0.00  0.00     0.110 A 
HETATM    6  C   UNK N   1      24.373  13.770   6.530  0.00  0.00     0.067 A 
HETATM    7  C   UNK N   1      23.963  15.110   6.573  0.00  0.00     0.124 A 
HETATM    8  N   UNK N   1      24.865  16.056   6.250  0.00  0.00    -0.176 N 
ATOM      9  HN  UNK N   1      24.558  17.029   6.250  1.00  0.00     0.186 HD
HETATM   10  H   UNK N   1      26.435  17.711   5.306  0.00  0.00     0.184 HD
ENDROOT
BRANCH   4  11
HETATM   11  C   UNK N   1      28.336  17.046   5.528  0.00  0.00     0.050 A 
HETATM   12  C   UNK N   1      28.999  17.108   6.748  0.00  0.00     0.055 A 
HETATM   13  C   UNK N   1      30.383  17.170   6.814  0.00  0.00     0.087 A 
HETATM   14  C   UNK N   1      31.131  17.154   5.622  0.00  0.00    -0.039 A 
HETATM   15  C   UNK N   1      30.467  17.088   4.387  0.00  0.00     0.010 A 
HETATM   16  C   UNK N   1      32.619  17.207   5.645  0.00  0.00     0.050 C 
HETATM   17  C   UNK N   1      29.067  17.031   4.335  0.00  0.00     0.030 A 
BRANCH  13  18
HETATM   18  S   UNK N   1      31.142  17.266   8.439  0.00  0.00     0.257 S 
HETATM   19  O   UNK N   1      32.294  18.276   8.530  0.00  0.00    -0.201 OA
HETATM   20  O   UNK N   1      31.844  15.951   8.812  0.00  0.00    -0.201 OA
BRANCH  18  21
HETATM   21  N   UNK N   1      30.096  17.599   9.819  0.00  0.00    -0.324 N 
HETATM   22  H   UNK N   1      29.121  17.361  10.003  0.00  0.00     0.169 HD
HETATM   23  H   UNK N   1      30.548  18.124  10.568  0.00  0.00     0.169 HD
ENDBRANCH  18  21
ENDBRANCH  13  18
ENDBRANCH   4  11
BRANCH   7  24
HETATM   24  N   UNK N   1      22.605  15.510   6.827  0.00  0.00    -0.337 N 
HETATM   25  C   UNK N   1      21.877  14.908   7.920  0.00  0.00     0.158 C 
BRANCH  24  26
HETATM   26  C   UNK N   1      21.897  16.276   5.830  0.00  0.00     0.037 A 
HETATM   27  C   UNK N   1      21.826  17.701   5.927  0.00  0.00     0.031 A 
HETATM   28  C   UNK N   1      21.367  18.496   4.873  0.00  0.00     0.018 A 
HETATM   29  C   UNK N   1      20.988  17.844   3.718  0.00  0.00     0.016 A 
HETATM   30  C   UNK N   1      20.989  16.478   3.613  0.00  0.00     0.062 A 
HETATM   31  C   UNK N   1      20.589  18.309   2.493  0.00  0.00     0.036 A 
HETATM   32  C   UNK N   1      21.425  15.652   4.650  0.00  0.00     0.061 A 
HETATM   33  N   UNK N   1      20.599  16.118   2.376  0.00  0.00    -0.298 N 
HETATM   34  N   UNK N   1      20.361  17.239   1.700  0.00  0.00    -0.300 N 
ATOM     35  HN  UNK N   1      20.505  15.165   2.023  1.00  0.00     0.187 HD
HETATM   36  C   UNK N   1      19.955  17.271   0.306  0.00  0.00     0.177 C 
HETATM   37  C   UNK N   1      20.470  19.737   2.077  0.00  0.00     0.071 C 
ENDBRANCH  24  26
ENDBRANCH   7  24
TORSDOF 5
ENDMDL
MODEL 9
REMARK VINA RESULT:      -7.9      7.390     12.240
REMARK  5 active torsions:
REMARK  status: ('A' for Active; 'I' for Inactive)
REMARK    1  A    between atoms: C_3  and  S_20 
REMARK    2  A    between atoms: C_5  and  N_10 
REMARK       I    between atoms: C_9  and  N_10 
REMARK    3  A    between atoms: C_13  and  N_16 
REMARK    4  A    between atoms: N_16  and  C_17 
REMARK    5  A    between atoms: S_20  and  N_32 
ROOT
HETATM    1  N   UNK N   1      27.014  19.694   3.961  0.00  0.00    -0.202 N 
ATOM      2  HN  UNK N   1      28.008  19.908   4.043  1.00  0.00     0.183 HD
HETATM    3  C   UNK N   1      26.512  18.561   4.522  0.00  0.00     0.684 A 
HETATM    4  N   UNK N   1      27.281  17.669   5.297  0.00  0.00    -0.192 N 
HETATM    5  C   UNK N   1      26.180  20.542   3.286  0.00  0.00     0.110 A 
HETATM    6  C   UNK N   1      24.806  20.250   3.165  0.00  0.00     0.067 A 
HETATM    7  C   UNK N   1      24.328  19.067   3.744  0.00  0.00     0.124 A 
HETATM    8  N   UNK N   1      25.205  18.293   4.412  0.00  0.00    -0.176 N 
ATOM      9  HN  UNK N   1      24.852  17.448   4.861  1.00  0.00     0.186 HD
HETATM   10  H   UNK N   1      26.761  17.107   5.917  0.00  0.00     0.184 HD
ENDROOT
BRANCH   4  11
HETATM   11  C   UNK N   1      28.669  17.451   5.329  0.00  0.00     0.050 A 
HETATM   12  C   UNK N   1      29.292  17.534   6.569  0.00  0.00     0.055 A 
HETATM   13  C   UNK N   1      30.643  17.262   6.717  0.00  0.00     0.087 A 
HETATM   14  C   UNK N   1      31.396  16.878   5.591  0.00  0.00    -0.039 A 
HETATM   15  C   UNK N   1      30.772  16.788   4.336  0.00  0.00     0.010 A 
HETATM   16  C   UNK N   1      32.847  16.565   5.705  0.00  0.00     0.050 C 
HETATM   17  C   UNK N   1      29.405  17.071   4.201  0.00  0.00     0.030 A 
BRANCH  13  18
HETATM   18  S   UNK N   1      31.355  17.417   8.357  0.00  0.00     0.257 S 
HETATM   19  O   UNK N   1      32.655  18.234   8.399  0.00  0.00    -0.201 OA
HETATM   20  O   UNK N   1      31.820  16.057   8.902  0.00  0.00    -0.201 OA
BRANCH  18  21
HETATM   21  N   UNK N   1      30.336  18.067   9.641  0.00  0.00    -0.324 N 
HETATM   22  H   UNK N   1      29.535  18.699   9.615  0.00  0.00     0.169 HD
HETATM   23  H   UNK N   1      30.592  17.753  10.578  0.00  0.00     0.169 HD
ENDBRANCH  18  21
ENDBRANCH  13  18
ENDBRANCH   4  11
BRANCH   7  24
HETATM   24  N   UNK N   1      22.936  18.705   3.763  0.00  0.00    -0.337 N 
HETATM   25  C   UNK N   1      21.945  19.661   3.327  0.00  0.00     0.158 C 
BRANCH  24  26
HETATM   26  C   UNK N   1      22.524  17.521   4.478  0.00  0.00     0.037 A 
HETATM   27  C   UNK N   1      22.944  16.227   4.041  0.00  0.00     0.031 A 
HETATM   28  C   UNK N   1      22.776  15.084   4.828  0.00  0.00     0.018 A 
HETATM   29  C   UNK N   1      22.186  15.259   6.064  0.00  0.00     0.016 A 
HETATM   30  C   UNK N   1      21.720  16.474   6.488  0.00  0.00     0.062 A 
HETATM   31  C   UNK N   1      21.960  14.392   7.099  0.00  0.00     0.036 A 
HETATM   32  C   UNK N   1      21.857  17.633   5.722  0.00  0.00     0.061 A 
HETATM   33  N   UNK N   1      21.221  16.358   7.732  0.00  0.00    -0.298 N 
HETATM   34  N   UNK N   1      21.374  15.088   8.098  0.00  0.00    -0.300 N 
ATOM     35  HN  UNK N   1      20.804  17.104   8.291  1.00  0.00     0.187 HD
HETATM   36  C   UNK N   1      20.992  14.570   9.400  0.00  0.00     0.177 C 
HETATM   37  C   UNK N   1      22.333  12.948   7.152  0.00  0.00     0.071 C 
ENDBRANCH  24  26
ENDBRANCH   7  24
TORSDOF 5
ENDMDL
