REMARK  6 active torsions:
REMARK  status: ('A' for Active; 'I' for Inactive)
REMARK    1  A    between atoms: O_1  and  C_14 
REMARK    2  A    between atoms: N_2  and  C_5 
REMARK    3  A    between atoms: C_3  and  C_4 
REMARK    4  A    between atoms: C_3  and  C_6 
REMARK    5  A    between atoms: C_3  and  C_7 
REMARK    6  A    between atoms: C_4  and  C_5 
ROOT
HETATM    1  C   UNK N   1       2.889   0.575   0.276  0.00  0.00     0.024 C 
ENDROOT
BRANCH   1   2
HETATM    2  C   UNK N   1       4.302   1.148  -0.002  0.00  0.00     0.018 C 
HETATM    3  C   UNK N   1       5.362   0.454   0.844  0.00  0.00     0.012 C 
BRANCH   2   4
HETATM    4  C   UNK N   1       4.355   2.646   0.306  0.00  0.00     0.276 C 
BRANCH   4   5
HETATM    5  N   UNK N   1       5.426   3.308  -0.425  0.00  0.00     0.080 N 
HETATM    6  C   UNK N   1       5.048   4.705  -0.538  0.00  0.00     0.309 C 
HETATM    7  C   UNK N   1       6.629   3.273   0.390  0.00  0.00     0.309 C 
ENDBRANCH   4   5
ENDBRANCH   2   4
ENDBRANCH   1   2
BRANCH   1   8
HETATM    8  C   UNK N   1       1.842   1.304  -0.568  0.00  0.00     0.005 C 
HETATM    9  C   UNK N   1       1.291   2.505   0.178  0.00  0.00     0.006 C 
ENDBRANCH   1   8
BRANCH   1  10
HETATM   10  C   UNK N   1       2.728  -0.918   0.055  0.00  0.00    -0.051 A 
HETATM   11  C   UNK N   1       1.480  -1.511   0.313  0.00  0.00     0.044 A 
HETATM   12  C   UNK N   1       1.289  -2.881   0.118  0.00  0.00     0.066 A 
HETATM   13  C   UNK N   1       2.347  -3.679  -0.322  0.00  0.00     0.036 A 
HETATM   14  C   UNK N   1       3.595  -3.104  -0.577  0.00  0.00     0.003 A 
HETATM   15  C   UNK N   1       3.783  -1.730  -0.397  0.00  0.00     0.007 A 
BRANCH  12  16
HETATM   16  O   UNK N   1       0.085  -3.429   0.349  0.00  0.00    -0.361 OA
HETATM   17  H   UNK N   1      -0.667  -2.893   0.510  0.00  0.00     0.217 HD
ENDBRANCH  12  16
ENDBRANCH   1  10
TORSDOF 6
