REMARK  26 active torsions:
REMARK  status: ('A' for Active; 'I' for Inactive)
REMARK    1  A    between atoms: C_1  and  O_13 
REMARK    2  A    between atoms: C_4  and  O_74 
REMARK    3  A    between atoms: C_5  and  O_73 
REMARK    4  A    between atoms: C_7  and  O_65 
REMARK    5  A    between atoms: C_10  and  O_75 
REMARK    6  A    between atoms: C_11  and  O_13 
REMARK    7  A    between atoms: C_14  and  O_56 
REMARK    8  A    between atoms: C_17  and  O_69 
REMARK    9  A    between atoms: C_18  and  O_65 
REMARK   10  A    between atoms: C_20  and  O_48 
REMARK   11  A    between atoms: C_23  and  O_68 
REMARK   12  A    between atoms: C_24  and  O_66 
REMARK   13  A    between atoms: C_27  and  O_49 
REMARK   14  A    between atoms: C_28  and  O_48 
REMARK   15  A    between atoms: C_30  and  O_34 
REMARK   16  A    between atoms: C_33  and  O_34 
REMARK   17  A    between atoms: C_35  and  O_60 
REMARK   18  A    between atoms: C_39  and  O_59 
REMARK   19  A    between atoms: C_44  and  O_56 
REMARK   20  A    between atoms: C_45  and  C_52 
REMARK   21  A    between atoms: C_51  and  C_52 
REMARK   22  A    between atoms: C_51  and  C_55 
REMARK   23  A    between atoms: C_52  and  O_57 
REMARK   24  A    between atoms: C_54  and  O_53 
REMARK   25  A    between atoms: C_54  and  C_55 
REMARK   26  A    between atoms: C_55  and  O_61 
ROOT
HETATM    1  C   UNK N   1      19.915  -9.123   1.377  0.00  0.00     0.006 A 
HETATM    2  C   UNK N   1      19.762  -8.217   0.328  0.00  0.00     0.081 A 
HETATM    3  C   UNK N   1      21.106  -9.782   1.571  0.00  0.00     0.088 A 
HETATM    4  C   UNK N   1      22.209  -9.513   0.750  0.00  0.00     0.042 A 
HETATM    5  C   UNK N   1      22.062  -8.659  -0.380  0.00  0.00    -0.017 A 
HETATM    6  C   UNK N   1      20.822  -8.010  -0.591  0.00  0.00     0.050 A 
HETATM    7  C   UNK N   1      23.461 -10.040   1.059  0.00  0.00     0.094 A 
HETATM    8  C   UNK N   1      24.560  -9.797   0.253  0.00  0.00     0.053 A 
HETATM    9  C   UNK N   1      24.424  -9.036  -0.935  0.00  0.00    -0.040 A 
HETATM   10  C   UNK N   1      23.171  -8.449  -1.232  0.00  0.00     0.020 A 
HETATM   11  C   UNK N   1      25.868 -10.357   0.624  0.00  0.00     0.192 C 
HETATM   12  C   UNK N   1      26.866 -10.514  -0.439  0.00  0.00     0.206 C 
HETATM   13  C   UNK N   1      27.010  -9.215  -1.250  0.00  0.00     0.063 C 
HETATM   14  C   UNK N   1      25.626  -8.825  -1.860  0.00  0.00     0.050 C 
HETATM   15  O   UNK N   1      26.124 -10.731   1.761  0.00  0.00    -0.289 OA
HETATM   16  C   UNK N   1      18.800  -9.356   2.338  0.00  0.00     0.054 C 
ENDROOT
BRANCH  12  17
HETATM   17  O   UNK N   1      27.192 -11.827  -0.923  0.00  0.00    -0.348 OA
BRANCH  17  18
HETATM   18  C   UNK N   1      26.093 -12.746  -0.953  0.00  0.00     0.263 C 
HETATM   19  O   UNK N   1      25.346 -12.783   0.237  0.00  0.00    -0.354 OA
HETATM   20  C   UNK N   1      24.044 -13.178  -0.127  0.00  0.00     0.151 C 
HETATM   21  C   UNK N   1      24.062 -14.525  -0.862  0.00  0.00     0.176 C 
HETATM   22  C   UNK N   1      23.186 -13.288   1.113  0.00  0.00     0.042 C 
HETATM   23  C   UNK N   1      25.437 -15.211  -0.703  0.00  0.00     0.160 C 
HETATM   24  C   UNK N   1      26.548 -14.211  -1.178  0.00  0.00     0.095 C 
BRANCH  21  25
HETATM   25  O   UNK N   1      23.809 -14.306  -2.216  0.00  0.00    -0.390 OA
HETATM   26  H   UNK N   1      23.852 -14.077  -3.158  0.00  0.00     0.210 HD
ENDBRANCH  21  25
BRANCH  23  27
HETATM   27  O   UNK N   1      25.684 -15.605   0.644  0.00  0.00    -0.353 OA
BRANCH  27  28
HETATM   28  C   UNK N   1      24.736 -16.545   1.156  0.00  0.00     0.263 C 
HETATM   29  O   UNK N   1      23.649 -15.868   1.785  0.00  0.00    -0.354 OA
HETATM   30  C   UNK N   1      22.451 -16.613   1.744  0.00  0.00     0.151 C 
HETATM   31  C   UNK N   1      21.961 -16.823   0.307  0.00  0.00     0.176 C 
HETATM   32  C   UNK N   1      21.379 -15.943   2.587  0.00  0.00     0.042 C 
HETATM   33  C   UNK N   1      23.110 -17.348  -0.560  0.00  0.00     0.160 C 
HETATM   34  C   UNK N   1      24.373 -17.721   0.210  0.00  0.00     0.095 C 
BRANCH  31  35
HETATM   35  O   UNK N   1      21.449 -15.650  -0.254  0.00  0.00    -0.390 OA
HETATM   36  H   UNK N   1      21.976 -14.935  -0.643  0.00  0.00     0.210 HD
ENDBRANCH  31  35
BRANCH  33  37
HETATM   37  O   UNK N   1      22.781 -18.230  -1.613  0.00  0.00    -0.353 OA
BRANCH  37  38
HETATM   38  C   UNK N   1      21.883 -19.255  -1.226  0.00  0.00     0.263 C 
HETATM   39  O   UNK N   1      20.523 -18.959  -1.526  0.00  0.00    -0.354 OA
HETATM   40  C   UNK N   1      19.831 -18.756  -0.320  0.00  0.00     0.152 C 
HETATM   41  C   UNK N   1      19.685 -20.060   0.483  0.00  0.00     0.180 C 
HETATM   42  C   UNK N   1      18.530 -18.002  -0.522  0.00  0.00     0.042 C 
HETATM   43  C   UNK N   1      20.960 -20.927   0.376  0.00  0.00     0.087 C 
HETATM   44  C   UNK N   1      22.169 -20.035   0.090  0.00  0.00     0.101 C 
HETATM   45  C   UNK N   1      21.162 -21.685   1.672  0.00  0.00     0.049 C 
BRANCH  41  46
HETATM   46  O   UNK N   1      18.558 -20.792   0.091  0.00  0.00    -0.390 OA
HETATM   47  H   UNK N   1      17.728 -20.370  -0.180  0.00  0.00     0.210 HD
ENDBRANCH  41  46
BRANCH  43  48
HETATM   48  O   UNK N   1      20.840 -21.849  -0.669  0.00  0.00    -0.387 OA
HETATM   49  H   UNK N   1      20.245 -22.097  -1.394  0.00  0.00     0.210 HD
ENDBRANCH  43  48
ENDBRANCH  37  38
ENDBRANCH  33  37
ENDBRANCH  27  28
ENDBRANCH  23  27
ENDBRANCH  17  18
ENDBRANCH  12  17
BRANCH  13  50
HETATM   50  C   UNK N   1      27.411  -8.116  -0.226  0.00  0.00     0.200 C 
BRANCH  50  51
HETATM   51  C   UNK N   1      28.599  -8.450   0.644  0.00  0.00     0.186 C 
HETATM   52  O   UNK N   1      28.418  -8.673   1.832  0.00  0.00    -0.292 OA
BRANCH  51  53
HETATM   53  C   UNK N   1      29.988  -8.495   0.084  0.00  0.00     0.218 C 
BRANCH  53  54
HETATM   54  C   UNK N   1      30.614  -9.883   0.237  0.00  0.00     0.150 C 
HETATM   55  C   UNK N   1      32.018  -9.893  -0.336  0.00  0.00     0.042 C 
BRANCH  54  56
HETATM   56  O   UNK N   1      29.854 -10.837  -0.438  0.00  0.00    -0.393 OA
HETATM   57  H   UNK N   1      29.015 -10.711  -0.908  0.00  0.00     0.210 HD
ENDBRANCH  54  56
ENDBRANCH  53  54
BRANCH  53  58
HETATM   58  O   UNK N   1      30.770  -7.552   0.758  0.00  0.00    -0.385 OA
HETATM   59  H   UNK N   1      31.607  -7.694   1.225  0.00  0.00     0.210 HD
ENDBRANCH  53  58
ENDBRANCH  51  53
ENDBRANCH  50  51
BRANCH  50  60
HETATM   60  O   UNK N   1      27.526  -6.844  -0.788  0.00  0.00    -0.383 OA
HETATM   61  C   UNK N   1      26.638  -6.057  -0.047  0.00  0.00     0.202 C 
ENDBRANCH  50  60
ENDBRANCH  13  50
BRANCH   7  62
HETATM   62  O   UNK N   1      23.621 -10.784   2.175  0.00  0.00    -0.359 OA
HETATM   63  H   UNK N   1      23.230 -11.139   2.949  0.00  0.00     0.217 HD
ENDBRANCH   7  62
BRANCH   3  64
HETATM   64  O   UNK N   1      21.193 -10.666   2.589  0.00  0.00    -0.359 OA
HETATM   65  H   UNK N   1      20.693 -11.025   3.295  0.00  0.00     0.217 HD
ENDBRANCH   3  64
BRANCH   2  66
HETATM   66  O   UNK N   1      18.599  -7.528   0.295  0.00  0.00    -0.320 OA
BRANCH  66  67
HETATM   67  C   UNK N   1      17.653  -7.490  -0.699  0.00  0.00     0.269 C 
HETATM   68  C   UNK N   1      17.561  -8.807  -1.500  0.00  0.00     0.096 C 
HETATM   69  C   UNK N   1      16.872  -9.931  -0.723  0.00  0.00     0.160 C 
HETATM   70  C   UNK N   1      15.768  -9.414   0.222  0.00  0.00     0.176 C 
HETATM   71  C   UNK N   1      15.363  -7.974  -0.109  0.00  0.00     0.151 C 
HETATM   72  O   UNK N   1      16.431  -7.034  -0.111  0.00  0.00    -0.353 OA
HETATM   73  C   UNK N   1      14.560  -7.876  -1.392  0.00  0.00     0.042 C 
BRANCH  69  74
HETATM   74  O   UNK N   1      17.805 -10.747  -0.055  0.00  0.00    -0.353 OA
BRANCH  74  75
HETATM   75  C   UNK N   1      17.457 -12.107  -0.213  0.00  0.00     0.263 C 
HETATM   76  O   UNK N   1      16.153 -12.441   0.253  0.00  0.00    -0.354 OA
HETATM   77  C   UNK N   1      15.294 -12.456  -0.861  0.00  0.00     0.151 C 
HETATM   78  C   UNK N   1      15.567 -13.663  -1.777  0.00  0.00     0.175 C 
HETATM   79  C   UNK N   1      13.840 -12.278  -0.465  0.00  0.00     0.042 C 
HETATM   80  C   UNK N   1      17.068 -14.023  -1.771  0.00  0.00     0.154 C 
HETATM   81  C   UNK N   1      17.891 -12.749  -1.554  0.00  0.00     0.095 C 
BRANCH  78  82
HETATM   82  O   UNK N   1      14.797 -14.776  -1.425  0.00  0.00    -0.390 OA
HETATM   83  H   UNK N   1      13.861 -14.699  -1.181  0.00  0.00     0.210 HD
ENDBRANCH  78  82
BRANCH  80  84
HETATM   84  O   UNK N   1      17.353 -14.928  -0.741  0.00  0.00    -0.393 OA
HETATM   85  H   UNK N   1      16.909 -15.412  -0.028  0.00  0.00     0.210 HD
ENDBRANCH  80  84
ENDBRANCH  74  75
ENDBRANCH  69  74
BRANCH  70  86
HETATM   86  O   UNK N   1      16.135  -9.508   1.564  0.00  0.00    -0.390 OA
HETATM   87  H   UNK N   1      16.206  -9.762   2.497  0.00  0.00     0.210 HD
ENDBRANCH  70  86
ENDBRANCH  66  67
ENDBRANCH   2  66
TORSDOF 26
