MODEL 1
REMARK VINA RESULT:      -5.8      0.000      0.000
REMARK  4 active torsions:
REMARK  status: ('A' for Active; 'I' for Inactive)
REMARK    1  A    between atoms: C_14  and  C_3 
REMARK    2  A    between atoms: C_15  and  C_12 
REMARK    3  A    between atoms: O_17  and  C_13 
REMARK    4  A    between atoms: C_15  and  C_14 
ROOT
HETATM    1  C   UNK N   1      31.140  15.011   3.295  0.00  0.00     0.309 C 
HETATM    2  C   UNK N   1      31.010  15.141   6.279  0.00  0.00     0.052 C 
HETATM    3  C   UNK N   1      31.679  17.262   5.162  0.00  0.00     0.052 C 
HETATM    4  C   UNK N   1      32.053  14.400   5.431  0.00  0.00     0.273 C 
HETATM    5  C   UNK N   1      32.726  16.467   4.372  0.00  0.00     0.273 C 
HETATM    6  C   UNK N   1      31.385  16.623   6.528  0.00  0.00     0.051 C 
HETATM    7  N   UNK N   1      32.315  15.075   4.157  0.00  0.00     0.084 N 
ENDROOT
BRANCH   6   8
HETATM    8  C   UNK N   1      32.599  16.769   7.454  0.00  0.00    -0.039 A 
HETATM    9  C   UNK N   1      32.985  15.706   8.291  0.00  0.00     0.008 A 
HETATM   10  C   UNK N   1      34.090  15.828   9.138  0.00  0.00     0.003 A 
HETATM   11  C   UNK N   1      34.812  17.021   9.179  0.00  0.00     0.036 A 
HETATM   12  C   UNK N   1      34.435  18.092   8.366  0.00  0.00     0.066 A 
HETATM   13  C   UNK N   1      33.343  17.964   7.503  0.00  0.00     0.044 A 
BRANCH  12  14
HETATM   14  O   UNK N   1      35.118  19.247   8.418  0.00  0.00    -0.361 OA
HETATM   15  H   UNK N   1      35.614  19.513   9.167  0.00  0.00     0.217 HD
ENDBRANCH  12  14
ENDBRANCH   6   8
BRANCH   6  16
HETATM   16  C   UNK N   1      30.176  17.343   7.118  0.00  0.00     0.139 C 
HETATM   17  O   UNK N   1      29.421  17.986   6.401  0.00  0.00    -0.297 OA
BRANCH  16  18
HETATM   18  C   UNK N   1      29.910  17.307   8.595  0.00  0.00     0.075 C 
HETATM   19  C   UNK N   1      30.027  18.701   9.185  0.00  0.00     0.013 C 
ENDBRANCH  16  18
ENDBRANCH   6  16
TORSDOF 4
ENDMDL
MODEL 2
REMARK VINA RESULT:      -5.6      2.111      4.535
REMARK  4 active torsions:
REMARK  status: ('A' for Active; 'I' for Inactive)
REMARK    1  A    between atoms: C_14  and  C_3 
REMARK    2  A    between atoms: C_15  and  C_12 
REMARK    3  A    between atoms: O_17  and  C_13 
REMARK    4  A    between atoms: C_15  and  C_14 
ROOT
HETATM    1  C   UNK N   1      34.944  13.602   9.013  0.00  0.00     0.309 C 
HETATM    2  C   UNK N   1      33.093  14.771   6.977  0.00  0.00     0.052 C 
HETATM    3  C   UNK N   1      33.967  16.388   8.654  0.00  0.00     0.052 C 
HETATM    4  C   UNK N   1      32.723  13.824   8.127  0.00  0.00     0.273 C 
HETATM    5  C   UNK N   1      33.541  15.411   9.757  0.00  0.00     0.273 C 
HETATM    6  C   UNK N   1      33.087  16.260   7.403  0.00  0.00     0.051 C 
HETATM    7  N   UNK N   1      33.575  14.017   9.303  0.00  0.00     0.084 N 
ENDROOT
BRANCH   6   8
HETATM    8  C   UNK N   1      31.671  16.776   7.696  0.00  0.00    -0.039 A 
HETATM    9  C   UNK N   1      30.600  16.424   6.855  0.00  0.00     0.008 A 
HETATM   10  C   UNK N   1      29.307  16.889   7.112  0.00  0.00     0.003 A 
HETATM   11  C   UNK N   1      29.069  17.728   8.201  0.00  0.00     0.036 A 
HETATM   12  C   UNK N   1      30.122  18.099   9.039  0.00  0.00     0.066 A 
HETATM   13  C   UNK N   1      31.412  17.619   8.794  0.00  0.00     0.044 A 
BRANCH  12  14
HETATM   14  O   UNK N   1      29.898  18.922  10.075  0.00  0.00    -0.361 OA
HETATM   15  H   UNK N   1      30.233  19.796  10.115  0.00  0.00     0.217 HD
ENDBRANCH  12  14
ENDBRANCH   6   8
BRANCH   6  16
HETATM   16  C   UNK N   1      33.736  17.089   6.299  0.00  0.00     0.139 C 
HETATM   17  O   UNK N   1      34.336  18.123   6.567  0.00  0.00    -0.297 OA
BRANCH  16  18
HETATM   18  C   UNK N   1      33.622  16.674   4.861  0.00  0.00     0.075 C 
HETATM   19  C   UNK N   1      32.695  17.615   4.114  0.00  0.00     0.013 C 
ENDBRANCH  16  18
ENDBRANCH   6  16
TORSDOF 4
ENDMDL
MODEL 3
REMARK VINA RESULT:      -5.5     13.731     16.123
REMARK  4 active torsions:
REMARK  status: ('A' for Active; 'I' for Inactive)
REMARK    1  A    between atoms: C_14  and  C_3 
REMARK    2  A    between atoms: C_15  and  C_12 
REMARK    3  A    between atoms: O_17  and  C_13 
REMARK    4  A    between atoms: C_15  and  C_14 
ROOT
HETATM    1  C   UNK N   1      26.804  28.397  -5.093  0.00  0.00     0.309 C 
HETATM    2  C   UNK N   1      25.925  25.608  -4.473  0.00  0.00     0.052 C 
HETATM    3  C   UNK N   1      28.269  25.816  -5.283  0.00  0.00     0.052 C 
HETATM    4  C   UNK N   1      25.472  26.479  -5.653  0.00  0.00     0.273 C 
HETATM    5  C   UNK N   1      27.745  26.652  -6.458  0.00  0.00     0.273 C 
HETATM    6  C   UNK N   1      27.219  24.815  -4.779  0.00  0.00     0.051 C 
HETATM    7  N   UNK N   1      26.526  27.389  -6.110  0.00  0.00     0.084 N 
ENDROOT
BRANCH   6   8
HETATM    8  C   UNK N   1      26.994  23.712  -5.822  0.00  0.00    -0.039 A 
HETATM    9  C   UNK N   1      28.085  23.163  -6.521  0.00  0.00     0.008 A 
HETATM   10  C   UNK N   1      27.891  22.159  -7.474  0.00  0.00     0.003 A 
HETATM   11  C   UNK N   1      26.604  21.703  -7.758  0.00  0.00     0.036 A 
HETATM   12  C   UNK N   1      25.508  22.245  -7.084  0.00  0.00     0.066 A 
HETATM   13  C   UNK N   1      25.702  23.236  -6.117  0.00  0.00     0.044 A 
BRANCH  12  14
HETATM   14  O   UNK N   1      24.267  21.821  -7.371  0.00  0.00    -0.361 OA
HETATM   15  H   UNK N   1      24.087  20.977  -7.735  0.00  0.00     0.217 HD
ENDBRANCH  12  14
ENDBRANCH   6   8
BRANCH   6  16
HETATM   16  C   UNK N   1      27.747  24.215  -3.479  0.00  0.00     0.139 C 
HETATM   17  O   UNK N   1      26.974  23.831  -2.610  0.00  0.00    -0.297 OA
BRANCH  16  18
HETATM   18  C   UNK N   1      29.223  24.120  -3.223  0.00  0.00     0.075 C 
HETATM   19  C   UNK N   1      29.632  22.669  -3.038  0.00  0.00     0.013 C 
ENDBRANCH  16  18
ENDBRANCH   6  16
TORSDOF 4
ENDMDL
MODEL 4
REMARK VINA RESULT:      -5.5      9.084     11.431
REMARK  4 active torsions:
REMARK  status: ('A' for Active; 'I' for Inactive)
REMARK    1  A    between atoms: C_14  and  C_3 
REMARK    2  A    between atoms: C_15  and  C_12 
REMARK    3  A    between atoms: O_17  and  C_13 
REMARK    4  A    between atoms: C_15  and  C_14 
ROOT
HETATM    1  C   UNK N   1      24.953  14.910   4.301  0.00  0.00     0.309 C 
HETATM    2  C   UNK N   1      23.817  17.578   5.032  0.00  0.00     0.052 C 
HETATM    3  C   UNK N   1      22.131  15.830   4.489  0.00  0.00     0.052 C 
HETATM    4  C   UNK N   1      24.566  17.214   3.743  0.00  0.00     0.273 C 
HETATM    5  C   UNK N   1      22.907  15.540   3.199  0.00  0.00     0.273 C 
HETATM    6  C   UNK N   1      22.299  17.287   4.945  0.00  0.00     0.051 C 
HETATM    7  N   UNK N   1      24.340  15.823   3.341  0.00  0.00     0.084 N 
ENDROOT
BRANCH   6   8
HETATM    8  C   UNK N   1      21.581  18.233   3.972  0.00  0.00    -0.039 A 
HETATM    9  C   UNK N   1      22.237  19.374   3.477  0.00  0.00     0.008 A 
HETATM   10  C   UNK N   1      21.592  20.241   2.591  0.00  0.00     0.003 A 
HETATM   11  C   UNK N   1      20.275  19.994   2.203  0.00  0.00     0.036 A 
HETATM   12  C   UNK N   1      19.602  18.873   2.695  0.00  0.00     0.066 A 
HETATM   13  C   UNK N   1      20.253  17.995   3.566  0.00  0.00     0.044 A 
BRANCH  12  14
HETATM   14  O   UNK N   1      18.329  18.645   2.339  0.00  0.00    -0.361 OA
HETATM   15  H   UNK N   1      18.062  17.891   1.850  0.00  0.00     0.217 HD
ENDBRANCH  12  14
ENDBRANCH   6   8
BRANCH   6  16
HETATM   16  C   UNK N   1      21.696  17.403   6.341  0.00  0.00     0.139 C 
HETATM   17  O   UNK N   1      21.449  18.500   6.825  0.00  0.00    -0.297 OA
BRANCH  16  18
HETATM   18  C   UNK N   1      21.426  16.175   7.163  0.00  0.00     0.075 C 
HETATM   19  C   UNK N   1      20.419  16.485   8.256  0.00  0.00     0.013 C 
ENDBRANCH  16  18
ENDBRANCH   6  16
TORSDOF 4
ENDMDL
MODEL 5
REMARK VINA RESULT:      -5.3      1.947      4.336
REMARK  4 active torsions:
REMARK  status: ('A' for Active; 'I' for Inactive)
REMARK    1  A    between atoms: C_14  and  C_3 
REMARK    2  A    between atoms: C_15  and  C_12 
REMARK    3  A    between atoms: O_17  and  C_13 
REMARK    4  A    between atoms: C_15  and  C_14 
ROOT
HETATM    1  C   UNK N   1      34.797  16.695   9.857  0.00  0.00     0.309 C 
HETATM    2  C   UNK N   1      33.040  18.019   7.832  0.00  0.00     0.052 C 
HETATM    3  C   UNK N   1      32.128  15.917   8.803  0.00  0.00     0.052 C 
HETATM    4  C   UNK N   1      34.364  17.288   7.570  0.00  0.00     0.273 C 
HETATM    5  C   UNK N   1      33.464  15.237   8.481  0.00  0.00     0.273 C 
HETATM    6  C   UNK N   1      31.820  17.065   7.830  0.00  0.00     0.051 C 
HETATM    7  N   UNK N   1      34.585  16.183   8.507  0.00  0.00     0.084 N 
ENDROOT
BRANCH   6   8
HETATM    8  C   UNK N   1      31.518  16.509   6.433  0.00  0.00    -0.039 A 
HETATM    9  C   UNK N   1      31.000  15.210   6.283  0.00  0.00     0.008 A 
HETATM   10  C   UNK N   1      30.721  14.694   5.014  0.00  0.00     0.003 A 
HETATM   11  C   UNK N   1      30.975  15.459   3.875  0.00  0.00     0.036 A 
HETATM   12  C   UNK N   1      31.501  16.746   4.004  0.00  0.00     0.066 A 
HETATM   13  C   UNK N   1      31.762  17.271   5.273  0.00  0.00     0.044 A 
BRANCH  12  14
HETATM   14  O   UNK N   1      31.763  17.476   2.908  0.00  0.00    -0.361 OA
HETATM   15  H   UNK N   1      32.607  17.842   2.728  0.00  0.00     0.217 HD
ENDBRANCH  12  14
ENDBRANCH   6   8
BRANCH   6  16
HETATM   16  C   UNK N   1      30.610  17.816   8.377  0.00  0.00     0.139 C 
HETATM   17  O   UNK N   1      30.755  18.759   9.144  0.00  0.00    -0.297 OA
BRANCH  16  18
HETATM   18  C   UNK N   1      29.217  17.390   8.014  0.00  0.00     0.075 C 
HETATM   19  C   UNK N   1      28.265  17.667   9.165  0.00  0.00     0.013 C 
ENDBRANCH  16  18
ENDBRANCH   6  16
TORSDOF 4
ENDMDL
MODEL 6
REMARK VINA RESULT:      -5.3     13.228     15.055
REMARK  4 active torsions:
REMARK  status: ('A' for Active; 'I' for Inactive)
REMARK    1  A    between atoms: C_14  and  C_3 
REMARK    2  A    between atoms: C_15  and  C_12 
REMARK    3  A    between atoms: O_17  and  C_13 
REMARK    4  A    between atoms: C_15  and  C_14 
ROOT
HETATM    1  C   UNK N   1      29.063  28.681  -5.953  0.00  0.00     0.309 C 
HETATM    2  C   UNK N   1      28.294  25.819  -6.347  0.00  0.00     0.052 C 
HETATM    3  C   UNK N   1      28.239  26.608  -3.988  0.00  0.00     0.052 C 
HETATM    4  C   UNK N   1      29.697  26.427  -6.486  0.00  0.00     0.273 C 
HETATM    5  C   UNK N   1      29.656  27.162  -4.183  0.00  0.00     0.273 C 
HETATM    6  C   UNK N   1      27.966  25.398  -4.893  0.00  0.00     0.051 C 
HETATM    7  N   UNK N   1      29.908  27.554  -5.574  0.00  0.00     0.084 N 
ENDROOT
BRANCH   6   8
HETATM    8  C   UNK N   1      28.799  24.193  -4.434  0.00  0.00    -0.039 A 
HETATM    9  C   UNK N   1      29.046  23.124  -5.315  0.00  0.00     0.008 A 
HETATM   10  C   UNK N   1      29.803  22.023  -4.907  0.00  0.00     0.003 A 
HETATM   11  C   UNK N   1      30.307  21.962  -3.608  0.00  0.00     0.036 A 
HETATM   12  C   UNK N   1      30.061  23.007  -2.715  0.00  0.00     0.066 A 
HETATM   13  C   UNK N   1      29.320  24.119  -3.128  0.00  0.00     0.044 A 
BRANCH  12  14
HETATM   14  O   UNK N   1      30.528  22.941  -1.459  0.00  0.00    -0.361 OA
HETATM   15  H   UNK N   1      30.782  22.137  -1.050  0.00  0.00     0.217 HD
ENDBRANCH  12  14
ENDBRANCH   6   8
BRANCH   6  16
HETATM   16  C   UNK N   1      26.477  25.081  -4.798  0.00  0.00     0.139 C 
HETATM   17  O   UNK N   1      26.026  24.492  -3.824  0.00  0.00    -0.297 OA
BRANCH  16  18
HETATM   18  C   UNK N   1      25.542  25.454  -5.911  0.00  0.00     0.075 C 
HETATM   19  C   UNK N   1      24.860  26.776  -5.606  0.00  0.00     0.013 C 
ENDBRANCH  16  18
ENDBRANCH   6  16
TORSDOF 4
ENDMDL
MODEL 7
REMARK VINA RESULT:      -5.3     13.929     15.732
REMARK  4 active torsions:
REMARK  status: ('A' for Active; 'I' for Inactive)
REMARK    1  A    between atoms: C_14  and  C_3 
REMARK    2  A    between atoms: C_15  and  C_12 
REMARK    3  A    between atoms: O_17  and  C_13 
REMARK    4  A    between atoms: C_15  and  C_14 
ROOT
HETATM    1  C   UNK N   1      26.648  23.630  -7.899  0.00  0.00     0.309 C 
HETATM    2  C   UNK N   1      28.358  24.848  -5.770  0.00  0.00     0.052 C 
HETATM    3  C   UNK N   1      25.951  24.615  -5.182  0.00  0.00     0.052 C 
HETATM    4  C   UNK N   1      27.939  25.491  -7.100  0.00  0.00     0.273 C 
HETATM    5  C   UNK N   1      25.602  25.295  -6.511  0.00  0.00     0.273 C 
HETATM    6  C   UNK N   1      27.317  25.070  -4.646  0.00  0.00     0.051 C 
HETATM    7  N   UNK N   1      26.615  25.044  -7.542  0.00  0.00     0.084 N 
ENDROOT
BRANCH   6   8
HETATM    8  C   UNK N   1      27.248  26.535  -4.196  0.00  0.00    -0.039 A 
HETATM    9  C   UNK N   1      26.003  27.153  -3.977  0.00  0.00     0.008 A 
HETATM   10  C   UNK N   1      25.929  28.487  -3.568  0.00  0.00     0.003 A 
HETATM   11  C   UNK N   1      27.097  29.231  -3.391  0.00  0.00     0.036 A 
HETATM   12  C   UNK N   1      28.341  28.639  -3.616  0.00  0.00     0.066 A 
HETATM   13  C   UNK N   1      28.417  27.299  -4.007  0.00  0.00     0.044 A 
BRANCH  12  14
HETATM   14  O   UNK N   1      29.464  29.359  -3.465  0.00  0.00    -0.361 OA
HETATM   15  H   UNK N   1      29.465  30.292  -3.384  0.00  0.00     0.217 HD
ENDBRANCH  12  14
ENDBRANCH   6   8
BRANCH   6  16
HETATM   16  C   UNK N   1      27.669  24.168  -3.467  0.00  0.00     0.139 C 
HETATM   17  O   UNK N   1      26.840  23.923  -2.600  0.00  0.00    -0.297 OA
BRANCH  16  18
HETATM   18  C   UNK N   1      29.049  23.594  -3.326  0.00  0.00     0.075 C 
HETATM   19  C   UNK N   1      29.230  22.992  -1.945  0.00  0.00     0.013 C 
ENDBRANCH  16  18
ENDBRANCH   6  16
TORSDOF 4
ENDMDL
MODEL 8
REMARK VINA RESULT:      -5.2      6.381      8.520
REMARK  4 active torsions:
REMARK  status: ('A' for Active; 'I' for Inactive)
REMARK    1  A    between atoms: C_14  and  C_3 
REMARK    2  A    between atoms: C_15  and  C_12 
REMARK    3  A    between atoms: O_17  and  C_13 
REMARK    4  A    between atoms: C_15  and  C_14 
ROOT
HETATM    1  C   UNK N   1      36.705  10.294  10.645  0.00  0.00     0.309 C 
HETATM    2  C   UNK N   1      34.808  12.015  12.187  0.00  0.00     0.052 C 
HETATM    3  C   UNK N   1      37.117  12.921  11.976  0.00  0.00     0.052 C 
HETATM    4  C   UNK N   1      35.407  10.673  12.629  0.00  0.00     0.273 C 
HETATM    5  C   UNK N   1      37.648  11.565  12.458  0.00  0.00     0.273 C 
HETATM    6  C   UNK N   1      35.717  13.220  12.534  0.00  0.00     0.051 C 
HETATM    7  N   UNK N   1      36.755  10.461  12.093  0.00  0.00     0.084 N 
ENDROOT
BRANCH   6   8
HETATM    8  C   UNK N   1      35.793  13.475  14.046  0.00  0.00    -0.039 A 
HETATM    9  C   UNK N   1      34.895  12.835  14.919  0.00  0.00     0.008 A 
HETATM   10  C   UNK N   1      34.955  13.061  16.297  0.00  0.00     0.003 A 
HETATM   11  C   UNK N   1      35.899  13.944  16.822  0.00  0.00     0.036 A 
HETATM   12  C   UNK N   1      36.791  14.598  15.969  0.00  0.00     0.066 A 
HETATM   13  C   UNK N   1      36.744  14.358  14.592  0.00  0.00     0.044 A 
BRANCH  12  14
HETATM   14  O   UNK N   1      37.687  15.462  16.470  0.00  0.00    -0.361 OA
HETATM   15  H   UNK N   1      38.608  15.290  16.489  0.00  0.00     0.217 HD
ENDBRANCH  12  14
ENDBRANCH   6   8
BRANCH   6  16
HETATM   16  C   UNK N   1      35.191  14.456  11.813  0.00  0.00     0.139 C 
HETATM   17  O   UNK N   1      33.990  14.615  11.642  0.00  0.00    -0.297 OA
BRANCH  16  18
HETATM   18  C   UNK N   1      36.139  15.484  11.265  0.00  0.00     0.075 C 
HETATM   19  C   UNK N   1      35.366  16.652  10.678  0.00  0.00     0.013 C 
ENDBRANCH  16  18
ENDBRANCH   6  16
TORSDOF 4
ENDMDL
MODEL 9
REMARK VINA RESULT:      -5.2      2.737      5.083
REMARK  4 active torsions:
REMARK  status: ('A' for Active; 'I' for Inactive)
REMARK    1  A    between atoms: C_14  and  C_3 
REMARK    2  A    between atoms: C_15  and  C_12 
REMARK    3  A    between atoms: O_17  and  C_13 
REMARK    4  A    between atoms: C_15  and  C_14 
ROOT
HETATM    1  C   UNK N   1      28.787  13.741   3.270  0.00  0.00     0.309 C 
HETATM    2  C   UNK N   1      29.509  16.642   3.345  0.00  0.00     0.052 C 
HETATM    3  C   UNK N   1      29.611  15.476   5.541  0.00  0.00     0.052 C 
HETATM    4  C   UNK N   1      28.113  16.042   3.125  0.00  0.00     0.273 C 
HETATM    5  C   UNK N   1      28.199  14.938   5.275  0.00  0.00     0.273 C 
HETATM    6  C   UNK N   1      29.853  16.823   4.844  0.00  0.00     0.051 C 
HETATM    7  N   UNK N   1      27.932  14.776   3.841  0.00  0.00     0.084 N 
ENDROOT
BRANCH   6   8
HETATM    8  C   UNK N   1      29.010  17.921   5.506  0.00  0.00    -0.039 A 
HETATM    9  C   UNK N   1      28.496  18.982   4.737  0.00  0.00     0.008 A 
HETATM   10  C   UNK N   1      27.728  19.987   5.330  0.00  0.00     0.003 A 
HETATM   11  C   UNK N   1      27.478  19.960   6.703  0.00  0.00     0.036 A 
HETATM   12  C   UNK N   1      27.991  18.922   7.484  0.00  0.00     0.066 A 
HETATM   13  C   UNK N   1      28.743  17.906   6.889  0.00  0.00     0.044 A 
BRANCH  12  14
HETATM   14  O   UNK N   1      27.768  18.906   8.808  0.00  0.00    -0.361 OA
HETATM   15  H   UNK N   1      27.515  18.133   9.273  0.00  0.00     0.217 HD
ENDBRANCH  12  14
ENDBRANCH   6   8
BRANCH   6  16
HETATM   16  C   UNK N   1      31.339  17.144   4.972  0.00  0.00     0.139 C 
HETATM   17  O   UNK N   1      31.879  17.918   4.193  0.00  0.00    -0.297 OA
BRANCH  16  18
HETATM   18  C   UNK N   1      32.175  16.488   6.032  0.00  0.00     0.075 C 
HETATM   19  C   UNK N   1      32.889  17.539   6.863  0.00  0.00     0.013 C 
ENDBRANCH  16  18
ENDBRANCH   6  16
TORSDOF 4
ENDMDL
