REMARK  9 active torsions:
REMARK  status: ('A' for Active; 'I' for Inactive)
REMARK    1  A    between atoms: C_3  and  N_12 
REMARK    2  A    between atoms: C_9  and  O_30 
REMARK    3  A    between atoms: C_10  and  O_13 
REMARK    4  A    between atoms: N_12  and  C_15 
REMARK    5  A    between atoms: O_13  and  C_14 
REMARK    6  A    between atoms: C_14  and  C_22 
REMARK    7  A    between atoms: C_19  and  O_33 
REMARK    8  A    between atoms: C_22  and  C_23 
REMARK    9  A    between atoms: C_23  and  N_24 
ROOT
HETATM    1  C   UNK N   1       3.928 -11.812   0.034  0.00  0.00     0.113 A 
HETATM    2  C   UNK N   1       4.106 -13.201   0.060  0.00  0.00     0.087 A 
HETATM    3  C   UNK N   1       5.408 -13.752   0.055  0.00  0.00     0.067 A 
HETATM    4  C   UNK N   1       6.492 -12.849   0.065  0.00  0.00     0.022 A 
HETATM    5  C   UNK N   1       6.266 -11.458  -0.011  0.00  0.00     0.047 A 
HETATM    6  N   UNK N   1       4.998 -10.978  -0.023  0.00  0.00    -0.364 N 
ATOM      7  HN  UNK N   1       4.845  -9.971  -0.075  1.00  0.00     0.165 HD
HETATM    8  C   UNK N   1       7.783 -13.291   0.179  0.00  0.00     0.055 A 
HETATM    9  C   UNK N   1       8.872 -12.440   0.136  0.00  0.00     0.102 A 
HETATM   10  C   UNK N   1       8.668 -11.057  -0.058  0.00  0.00     0.104 A 
HETATM   11  C   UNK N   1       7.353 -10.572  -0.090  0.00  0.00     0.070 A 
HETATM   12  C   UNK N   1       2.947 -14.054   0.091  0.00  0.00     0.103 C 
HETATM   13  N   UNK N   1       2.033 -14.763   0.116  0.00  0.00    -0.191 NA
ENDROOT
BRANCH   3  14
HETATM   14  N   UNK N   1       5.550 -15.192   0.067  0.00  0.00    -0.353 N 
HETATM   15  H   UNK N   1       4.692 -15.650   0.217  0.00  0.00     0.166 HD
BRANCH  14  16
HETATM   16  C   UNK N   1       6.648 -16.123  -0.086  0.00  0.00     0.057 A 
HETATM   17  C   UNK N   1       6.454 -17.437   0.364  0.00  0.00     0.062 A 
HETATM   18  C   UNK N   1       7.494 -18.369   0.326  0.00  0.00     0.052 A 
HETATM   19 Cl   UNK N   1       4.901 -17.930   1.014  0.00  0.00    -0.082 Cl
HETATM   20  C   UNK N   1       8.744 -18.021  -0.181  0.00  0.00     0.069 A 
HETATM   21  C   UNK N   1       8.957 -16.744  -0.706  0.00  0.00     0.092 A 
HETATM   22 Cl   UNK N   1      10.040 -19.206  -0.159  0.00  0.00    -0.081 Cl
HETATM   23  C   UNK N   1       7.900 -15.804  -0.665  0.00  0.00     0.069 A 
BRANCH  21  24
HETATM   24  O   UNK N   1      10.178 -16.450  -1.227  0.00  0.00    -0.354 OA
HETATM   25  C   UNK N   1      10.487 -15.275  -1.872  0.00  0.00     0.210 C 
ENDBRANCH  21  24
ENDBRANCH  14  16
ENDBRANCH   3  14
BRANCH   9  26
HETATM   26  O   UNK N   1      10.107 -12.942   0.317  0.00  0.00    -0.353 OA
HETATM   27  C   UNK N   1      10.343 -14.149   0.935  0.00  0.00     0.210 C 
ENDBRANCH   9  26
BRANCH  10  28
HETATM   28  O   UNK N   1       9.696 -10.178  -0.194  0.00  0.00    -0.348 OA
BRANCH  28  29
HETATM   29  C   UNK N   1      10.926 -10.524  -0.716  0.00  0.00     0.177 C 
BRANCH  29  30
HETATM   30  C   UNK N   1      11.866 -10.958   0.379  0.00  0.00     0.057 C 
BRANCH  30  31
HETATM   31  C   UNK N   1      12.835 -11.988  -0.182  0.00  0.00     0.274 C 
BRANCH  31  32
HETATM   32  N   UNK N   1      13.765 -12.461   0.844  0.00  0.00     0.091 N 
HETATM   33  C   UNK N   1      14.825 -13.217   0.164  0.00  0.00     0.302 C 
HETATM   34  C   UNK N   1      16.026 -12.342  -0.242  0.00  0.00     0.302 C 
HETATM   35  N   UNK N   1      15.603 -10.964  -0.487  0.00  0.00     0.087 N 
HETATM   36  C   UNK N   1      15.102 -10.354   0.747  0.00  0.00     0.302 C 
HETATM   37  C   UNK N   1      16.783 -10.206  -0.854  0.00  0.00     0.310 C 
HETATM   38  C   UNK N   1      14.335 -11.352   1.630  0.00  0.00     0.302 C 
ENDBRANCH  31  32
ENDBRANCH  30  31
ENDBRANCH  29  30
ENDBRANCH  28  29
ENDBRANCH  10  28
TORSDOF 9
