MODEL 1
REMARK VINA RESULT:      -6.7      0.000      0.000
REMARK  7 active torsions:
REMARK  status: ('A' for Active; 'I' for Inactive)
REMARK    1  A    between atoms: C_2  and  C_3 
REMARK       I    between atoms: C_2  and  N_14 
REMARK    2  A    between atoms: C_9  and  N_10 
REMARK    3  A    between atoms: N_14  and  C_15 
REMARK    4  A    between atoms: N_18  and  C_19 
REMARK    5  A    between atoms: C_19  and  C_20 
REMARK    6  A    between atoms: C_20  and  C_21 
REMARK    7  A    between atoms: C_21  and  O_22 
ROOT
HETATM    1  O   UNK N   1      34.816  18.236   7.716  0.00  0.00    -0.268 OA
HETATM    2  C   UNK N   1      34.080  17.259   7.659  0.00  0.00     0.254 C 
HETATM    3  N   UNK N   1      34.330  16.144   8.397  0.00  0.00    -0.352 N 
HETATM    4  H   UNK N   1      33.690  15.405   8.278  0.00  0.00     0.163 HD
ENDROOT
BRANCH   2   5
HETATM    5  C   UNK N   1      32.887  17.272   6.785  0.00  0.00     0.067 A 
HETATM    6  C   UNK N   1      31.575  17.324   7.279  0.00  0.00     0.093 A 
HETATM    7  O   UNK N   1      31.209  17.367   8.558  0.00  0.00    -0.349 OA
HETATM    8  C   UNK N   1      30.503  17.351   6.450  0.00  0.00     0.006 A 
HETATM    9  C   UNK N   1      29.829  17.429   8.686  0.00  0.00     0.180 A 
HETATM   10  C   UNK N   1      29.255  17.420   7.240  0.00  0.00     0.070 A 
HETATM   11  C   UNK N   1      30.653  17.318   5.060  0.00  0.00     0.057 A 
HETATM   12  C   UNK N   1      31.953  17.255   4.525  0.00  0.00     0.061 A 
HETATM   13 Cl   UNK N   1      32.225  17.203   2.792  0.00  0.00    -0.082 Cl
HETATM   14  C   UNK N   1      33.061  17.236   5.388  0.00  0.00     0.046 A 
BRANCH  11  15
HETATM   15  N   UNK N   1      29.524  17.349   4.214  0.00  0.00    -0.397 N 
HETATM   16  H   UNK N   1      29.129  16.511   3.881  0.00  0.00     0.156 HD
HETATM   17  H   UNK N   1      29.130  18.214   3.956  0.00  0.00     0.156 HD
ENDBRANCH  11  15
ENDBRANCH   2   5
BRANCH   3  18
HETATM   18  C   UNK N   1      35.409  15.893   9.333  0.00  0.00     0.088 C 
HETATM   19  C   UNK N   1      36.054  14.562   8.954  0.00  0.00     0.055 C 
HETATM   20  C   UNK N   1      36.793  13.964  10.134  0.00  0.00     0.274 C 
HETATM   21  N   UNK N   1      35.883  13.685  11.260  0.00  0.00     0.088 N 
HETATM   22  C   UNK N   1      34.766  14.631  11.430  0.00  0.00     0.274 C 
HETATM   23  C   UNK N   1      35.055  16.005  10.826  0.00  0.00     0.055 C 
BRANCH  21  24
HETATM   24  C   UNK N   1      36.621  13.537  12.519  0.00  0.00     0.274 C 
BRANCH  24  25
HETATM   25  C   UNK N   1      35.886  14.123  13.727  0.00  0.00     0.056 C 
BRANCH  25  26
HETATM   26  C   UNK N   1      35.597  13.022  14.740  0.00  0.00     0.168 C 
BRANCH  26  27
HETATM   27  O   UNK N   1      34.233  12.721  14.760  0.00  0.00    -0.396 OA
HETATM   28  C   UNK N   1      34.156  11.376  14.409  0.00  0.00     0.201 C 
ENDBRANCH  26  27
ENDBRANCH  25  26
ENDBRANCH  24  25
ENDBRANCH  21  24
ENDBRANCH   3  18
TORSDOF 7
ENDMDL
MODEL 2
REMARK VINA RESULT:      -6.7      5.464     11.129
REMARK  7 active torsions:
REMARK  status: ('A' for Active; 'I' for Inactive)
REMARK    1  A    between atoms: C_2  and  C_3 
REMARK       I    between atoms: C_2  and  N_14 
REMARK    2  A    between atoms: C_9  and  N_10 
REMARK    3  A    between atoms: N_14  and  C_15 
REMARK    4  A    between atoms: N_18  and  C_19 
REMARK    5  A    between atoms: C_19  and  C_20 
REMARK    6  A    between atoms: C_20  and  C_21 
REMARK    7  A    between atoms: C_21  and  O_22 
ROOT
HETATM    1  O   UNK N   1      28.766  16.431   4.035  0.00  0.00    -0.268 OA
HETATM    2  C   UNK N   1      28.820  17.388   4.796  0.00  0.00     0.254 C 
HETATM    3  N   UNK N   1      27.997  18.459   4.641  0.00  0.00    -0.352 N 
HETATM    4  H   UNK N   1      28.119  19.186   5.294  0.00  0.00     0.163 HD
ENDROOT
BRANCH   2   5
HETATM    5  C   UNK N   1      29.784  17.398   5.917  0.00  0.00     0.067 A 
HETATM    6  C   UNK N   1      29.404  17.589   7.254  0.00  0.00     0.093 A 
HETATM    7  O   UNK N   1      28.167  17.785   7.708  0.00  0.00    -0.349 OA
HETATM    8  C   UNK N   1      30.311  17.577   8.261  0.00  0.00     0.006 A 
HETATM    9  C   UNK N   1      28.153  17.921   9.089  0.00  0.00     0.180 A 
HETATM   10  C   UNK N   1      29.631  17.787   9.558  0.00  0.00     0.070 A 
HETATM   11  C   UNK N   1      31.674  17.384   8.014  0.00  0.00     0.057 A 
HETATM   12  C   UNK N   1      32.097  17.198   6.685  0.00  0.00     0.061 A 
HETATM   13 Cl   UNK N   1      33.791  16.955   6.293  0.00  0.00    -0.082 Cl
HETATM   14  C   UNK N   1      31.153  17.203   5.647  0.00  0.00     0.046 A 
BRANCH  11  15
HETATM   15  N   UNK N   1      32.602  17.372   9.078  0.00  0.00    -0.397 N 
HETATM   16  H   UNK N   1      32.382  16.925   9.926  0.00  0.00     0.156 HD
HETATM   17  H   UNK N   1      33.476  17.815   8.969  0.00  0.00     0.156 HD
ENDBRANCH  11  15
ENDBRANCH   2   5
BRANCH   3  18
HETATM   18  C   UNK N   1      26.965  18.679   3.646  0.00  0.00     0.088 C 
HETATM   19  C   UNK N   1      26.835  20.186   3.435  0.00  0.00     0.055 C 
HETATM   20  C   UNK N   1      25.479  20.536   2.855  0.00  0.00     0.274 C 
HETATM   21  N   UNK N   1      24.384  20.142   3.761  0.00  0.00     0.088 N 
HETATM   22  C   UNK N   1      24.612  18.915   4.544  0.00  0.00     0.274 C 
HETATM   23  C   UNK N   1      25.621  17.972   3.891  0.00  0.00     0.055 C 
BRANCH  21  24
HETATM   24  C   UNK N   1      23.104  20.062   3.049  0.00  0.00     0.274 C 
BRANCH  24  25
HETATM   25  C   UNK N   1      22.050  19.231   3.784  0.00  0.00     0.056 C 
BRANCH  25  26
HETATM   26  C   UNK N   1      20.655  19.715   3.409  0.00  0.00     0.168 C 
BRANCH  26  27
HETATM   27  O   UNK N   1      20.352  19.361   2.092  0.00  0.00    -0.396 OA
HETATM   28  C   UNK N   1      19.953  18.029   2.161  0.00  0.00     0.201 C 
ENDBRANCH  26  27
ENDBRANCH  25  26
ENDBRANCH  24  25
ENDBRANCH  21  24
ENDBRANCH   3  18
TORSDOF 7
ENDMDL
MODEL 3
REMARK VINA RESULT:      -6.4      3.624      8.521
REMARK  7 active torsions:
REMARK  status: ('A' for Active; 'I' for Inactive)
REMARK    1  A    between atoms: C_2  and  C_3 
REMARK       I    between atoms: C_2  and  N_14 
REMARK    2  A    between atoms: C_9  and  N_10 
REMARK    3  A    between atoms: N_14  and  C_15 
REMARK    4  A    between atoms: N_18  and  C_19 
REMARK    5  A    between atoms: C_19  and  C_20 
REMARK    6  A    between atoms: C_20  and  C_21 
REMARK    7  A    between atoms: C_21  and  O_22 
ROOT
HETATM    1  O   UNK N   1      35.480  17.228  10.588  0.00  0.00    -0.268 OA
HETATM    2  C   UNK N   1      34.872  16.170  10.496  0.00  0.00     0.254 C 
HETATM    3  N   UNK N   1      33.881  16.003   9.579  0.00  0.00    -0.352 N 
HETATM    4  H   UNK N   1      33.441  15.122   9.585  0.00  0.00     0.163 HD
ENDROOT
BRANCH   2   5
HETATM    5  C   UNK N   1      35.208  15.035  11.382  0.00  0.00     0.067 A 
HETATM    6  C   UNK N   1      34.938  13.698  11.051  0.00  0.00     0.093 A 
HETATM    7  O   UNK N   1      34.360  13.256   9.937  0.00  0.00    -0.349 OA
HETATM    8  C   UNK N   1      35.274  12.679  11.880  0.00  0.00     0.006 A 
HETATM    9  C   UNK N   1      34.265  11.872   9.933  0.00  0.00     0.180 A 
HETATM   10  C   UNK N   1      34.888  11.386  11.273  0.00  0.00     0.070 A 
HETATM   11  C   UNK N   1      35.898  12.912  13.110  0.00  0.00     0.057 A 
HETATM   12  C   UNK N   1      36.176  14.240  13.482  0.00  0.00     0.061 A 
HETATM   13 Cl   UNK N   1      36.950  14.615  15.012  0.00  0.00    -0.082 Cl
HETATM   14  C   UNK N   1      35.834  15.292  12.617  0.00  0.00     0.046 A 
BRANCH  11  15
HETATM   15  N   UNK N   1      36.241  11.836  13.956  0.00  0.00    -0.397 N 
HETATM   16  H   UNK N   1      36.421  10.944  13.581  0.00  0.00     0.156 HD
HETATM   17  H   UNK N   1      36.301  11.979  14.929  0.00  0.00     0.156 HD
ENDBRANCH  11  15
ENDBRANCH   2   5
BRANCH   3  18
HETATM   18  C   UNK N   1      33.383  16.944   8.594  0.00  0.00     0.088 C 
HETATM   19  C   UNK N   1      32.099  16.366   8.005  0.00  0.00     0.055 C 
HETATM   20  C   UNK N   1      31.807  16.970   6.646  0.00  0.00     0.274 C 
HETATM   21  N   UNK N   1      32.881  16.678   5.679  0.00  0.00     0.088 N 
HETATM   22  C   UNK N   1      34.244  16.619   6.237  0.00  0.00     0.274 C 
HETATM   23  C   UNK N   1      34.391  17.416   7.532  0.00  0.00     0.055 C 
BRANCH  21  24
HETATM   24  C   UNK N   1      32.838  17.598   4.538  0.00  0.00     0.274 C 
BRANCH  24  25
HETATM   25  C   UNK N   1      31.979  17.089   3.378  0.00  0.00     0.056 C 
BRANCH  25  26
HETATM   26  C   UNK N   1      32.365  15.654   3.040  0.00  0.00     0.168 C 
BRANCH  26  27
HETATM   27  O   UNK N   1      33.588  15.623   2.366  0.00  0.00    -0.396 OA
HETATM   28  C   UNK N   1      34.166  14.408   2.727  0.00  0.00     0.201 C 
ENDBRANCH  26  27
ENDBRANCH  25  26
ENDBRANCH  24  25
ENDBRANCH  21  24
ENDBRANCH   3  18
TORSDOF 7
ENDMDL
MODEL 4
REMARK VINA RESULT:      -6.4      3.742      8.885
REMARK  7 active torsions:
REMARK  status: ('A' for Active; 'I' for Inactive)
REMARK    1  A    between atoms: C_2  and  C_3 
REMARK       I    between atoms: C_2  and  N_14 
REMARK    2  A    between atoms: C_9  and  N_10 
REMARK    3  A    between atoms: N_14  and  C_15 
REMARK    4  A    between atoms: N_18  and  C_19 
REMARK    5  A    between atoms: C_19  and  C_20 
REMARK    6  A    between atoms: C_20  and  C_21 
REMARK    7  A    between atoms: C_21  and  O_22 
ROOT
HETATM    1  O   UNK N   1      36.599  13.227  11.049  0.00  0.00    -0.268 OA
HETATM    2  C   UNK N   1      35.852  13.870  11.775  0.00  0.00     0.254 C 
HETATM    3  N   UNK N   1      35.086  14.880  11.282  0.00  0.00    -0.352 N 
HETATM    4  H   UNK N   1      34.525  15.348  11.942  0.00  0.00     0.163 HD
ENDROOT
BRANCH   2   5
HETATM    5  C   UNK N   1      35.759  13.557  13.217  0.00  0.00     0.067 A 
HETATM    6  C   UNK N   1      35.050  12.455  13.718  0.00  0.00     0.093 A 
HETATM    7  O   UNK N   1      34.374  11.554  13.007  0.00  0.00    -0.349 OA
HETATM    8  C   UNK N   1      34.997  12.186  15.046  0.00  0.00     0.006 A 
HETATM    9  C   UNK N   1      33.805  10.589  13.825  0.00  0.00     0.180 A 
HETATM   10  C   UNK N   1      34.198  10.964  15.283  0.00  0.00     0.070 A 
HETATM   11  C   UNK N   1      35.641  13.001  15.983  0.00  0.00     0.057 A 
HETATM   12  C   UNK N   1      36.355  14.122  15.520  0.00  0.00     0.061 A 
HETATM   13 Cl   UNK N   1      37.183  15.197  16.634  0.00  0.00    -0.082 Cl
HETATM   14  C   UNK N   1      36.413  14.392  14.144  0.00  0.00     0.046 A 
BRANCH  11  15
HETATM   15  N   UNK N   1      35.576  12.702  17.360  0.00  0.00    -0.397 N 
HETATM   16  H   UNK N   1      35.386  11.785  17.662  0.00  0.00     0.156 HD
HETATM   17  H   UNK N   1      35.721  13.416  18.023  0.00  0.00     0.156 HD
ENDBRANCH  11  15
ENDBRANCH   2   5
BRANCH   3  18
HETATM   18  C   UNK N   1      34.983  15.363   9.919  0.00  0.00     0.088 C 
HETATM   19  C   UNK N   1      34.928  16.888   9.968  0.00  0.00     0.055 C 
HETATM   20  C   UNK N   1      34.296  17.448   8.708  0.00  0.00     0.274 C 
HETATM   21  N   UNK N   1      32.907  16.982   8.545  0.00  0.00     0.088 N 
HETATM   22  C   UNK N   1      32.630  15.616   9.023  0.00  0.00     0.274 C 
HETATM   23  C   UNK N   1      33.876  14.734   9.055  0.00  0.00     0.055 C 
BRANCH  21  24
HETATM   24  C   UNK N   1      32.451  17.139   7.159  0.00  0.00     0.274 C 
BRANCH  24  25
HETATM   25  C   UNK N   1      33.567  17.545   6.194  0.00  0.00     0.056 C 
BRANCH  25  26
HETATM   26  C   UNK N   1      33.966  16.352   5.334  0.00  0.00     0.168 C 
BRANCH  26  27
HETATM   27  O   UNK N   1      35.191  15.832   5.757  0.00  0.00    -0.396 OA
HETATM   28  C   UNK N   1      35.051  14.450   5.649  0.00  0.00     0.201 C 
ENDBRANCH  26  27
ENDBRANCH  25  26
ENDBRANCH  24  25
ENDBRANCH  21  24
ENDBRANCH   3  18
TORSDOF 7
ENDMDL
MODEL 5
REMARK VINA RESULT:      -6.4      3.355      8.717
REMARK  7 active torsions:
REMARK  status: ('A' for Active; 'I' for Inactive)
REMARK    1  A    between atoms: C_2  and  C_3 
REMARK       I    between atoms: C_2  and  N_14 
REMARK    2  A    between atoms: C_9  and  N_10 
REMARK    3  A    between atoms: N_14  and  C_15 
REMARK    4  A    between atoms: N_18  and  C_19 
REMARK    5  A    between atoms: C_19  and  C_20 
REMARK    6  A    between atoms: C_20  and  C_21 
REMARK    7  A    between atoms: C_21  and  O_22 
ROOT
HETATM    1  O   UNK N   1      35.136  17.892   9.454  0.00  0.00    -0.268 OA
HETATM    2  C   UNK N   1      34.651  16.773   9.549  0.00  0.00     0.254 C 
HETATM    3  N   UNK N   1      33.413  16.497   9.057  0.00  0.00    -0.352 N 
HETATM    4  H   UNK N   1      33.101  15.572   9.188  0.00  0.00     0.163 HD
ENDROOT
BRANCH   2   5
HETATM    5  C   UNK N   1      35.407  15.682  10.200  0.00  0.00     0.067 A 
HETATM    6  C   UNK N   1      35.985  14.619   9.490  0.00  0.00     0.093 A 
HETATM    7  O   UNK N   1      35.945  14.429   8.173  0.00  0.00    -0.349 OA
HETATM    8  C   UNK N   1      36.687  13.643  10.116  0.00  0.00     0.006 A 
HETATM    9  C   UNK N   1      36.636  13.282   7.807  0.00  0.00     0.180 A 
HETATM   10  C   UNK N   1      37.190  12.667   9.124  0.00  0.00     0.070 A 
HETATM   11  C   UNK N   1      36.861  13.643  11.503  0.00  0.00     0.057 A 
HETATM   12  C   UNK N   1      36.289  14.687  12.253  0.00  0.00     0.061 A 
HETATM   13 Cl   UNK N   1      36.457  14.754  13.999  0.00  0.00    -0.082 Cl
HETATM   14  C   UNK N   1      35.570  15.700  11.599  0.00  0.00     0.046 A 
BRANCH  11  15
HETATM   15  N   UNK N   1      37.598  12.618  12.135  0.00  0.00    -0.397 N 
HETATM   16  H   UNK N   1      37.594  11.704  11.770  0.00  0.00     0.156 HD
HETATM   17  H   UNK N   1      38.118  12.819  12.947  0.00  0.00     0.156 HD
ENDBRANCH  11  15
ENDBRANCH   2   5
BRANCH   3  18
HETATM   18  C   UNK N   1      32.490  17.377   8.366  0.00  0.00     0.088 C 
HETATM   19  C   UNK N   1      31.072  16.950   8.738  0.00  0.00     0.055 C 
HETATM   20  C   UNK N   1      30.075  17.420   7.698  0.00  0.00     0.274 C 
HETATM   21  N   UNK N   1      30.356  16.836   6.374  0.00  0.00     0.088 N 
HETATM   22  C   UNK N   1      31.779  16.622   6.058  0.00  0.00     0.274 C 
HETATM   23  C   UNK N   1      32.708  17.539   6.851  0.00  0.00     0.055 C 
BRANCH  21  24
HETATM   24  C   UNK N   1      29.706  17.601   5.304  0.00  0.00     0.274 C 
BRANCH  24  25
HETATM   25  C   UNK N   1      28.495  18.406   5.781  0.00  0.00     0.056 C 
BRANCH  25  26
HETATM   26  C   UNK N   1      28.116  19.442   4.730  0.00  0.00     0.168 C 
BRANCH  26  27
HETATM   27  O   UNK N   1      27.579  20.580   5.337  0.00  0.00    -0.396 OA
HETATM   28  C   UNK N   1      27.454  20.245   6.683  0.00  0.00     0.201 C 
ENDBRANCH  26  27
ENDBRANCH  25  26
ENDBRANCH  24  25
ENDBRANCH  21  24
ENDBRANCH   3  18
TORSDOF 7
ENDMDL
MODEL 6
REMARK VINA RESULT:      -6.3      1.535      1.887
REMARK  7 active torsions:
REMARK  status: ('A' for Active; 'I' for Inactive)
REMARK    1  A    between atoms: C_2  and  C_3 
REMARK       I    between atoms: C_2  and  N_14 
REMARK    2  A    between atoms: C_9  and  N_10 
REMARK    3  A    between atoms: N_14  and  C_15 
REMARK    4  A    between atoms: N_18  and  C_19 
REMARK    5  A    between atoms: C_19  and  C_20 
REMARK    6  A    between atoms: C_20  and  C_21 
REMARK    7  A    between atoms: C_21  and  O_22 
ROOT
HETATM    1  O   UNK N   1      33.346  17.085   6.018  0.00  0.00    -0.268 OA
HETATM    2  C   UNK N   1      32.548  16.874   6.921  0.00  0.00     0.254 C 
HETATM    3  N   UNK N   1      32.952  16.363   8.115  0.00  0.00    -0.352 N 
HETATM    4  H   UNK N   1      32.238  16.218   8.777  0.00  0.00     0.163 HD
ENDROOT
BRANCH   2   5
HETATM    5  C   UNK N   1      31.113  17.181   6.737  0.00  0.00     0.067 A 
HETATM    6  C   UNK N   1      30.297  17.679   7.764  0.00  0.00     0.093 A 
HETATM    7  O   UNK N   1      30.667  17.943   9.015  0.00  0.00    -0.349 OA
HETATM    8  C   UNK N   1      28.988  17.966   7.557  0.00  0.00     0.006 A 
HETATM    9  C   UNK N   1      29.608  18.441   9.760  0.00  0.00     0.180 A 
HETATM   10  C   UNK N   1      28.382  18.486   8.802  0.00  0.00     0.070 A 
HETATM   11  C   UNK N   1      28.385  17.768   6.311  0.00  0.00     0.057 A 
HETATM   12  C   UNK N   1      29.167  17.261   5.258  0.00  0.00     0.061 A 
HETATM   13 Cl   UNK N   1      28.481  16.979   3.667  0.00  0.00    -0.082 Cl
HETATM   14  C   UNK N   1      30.524  16.973   5.474  0.00  0.00     0.046 A 
BRANCH  11  15
HETATM   15  N   UNK N   1      27.021  18.075   6.117  0.00  0.00    -0.397 N 
HETATM   16  H   UNK N   1      26.734  18.590   5.329  0.00  0.00     0.156 HD
HETATM   17  H   UNK N   1      26.353  17.773   6.775  0.00  0.00     0.156 HD
ENDBRANCH  11  15
ENDBRANCH   2   5
BRANCH   3  18
HETATM   18  C   UNK N   1      34.288  16.002   8.546  0.00  0.00     0.088 C 
HETATM   19  C   UNK N   1      34.451  14.497   8.347  0.00  0.00     0.055 C 
HETATM   20  C   UNK N   1      35.554  13.950   9.232  0.00  0.00     0.274 C 
HETATM   21  N   UNK N   1      35.254  14.154  10.661  0.00  0.00     0.088 N 
HETATM   22  C   UNK N   1      34.521  15.390  10.990  0.00  0.00     0.274 C 
HETATM   23  C   UNK N   1      34.708  16.488   9.944  0.00  0.00     0.055 C 
BRANCH  21  24
HETATM   24  C   UNK N   1      36.465  14.047  11.481  0.00  0.00     0.274 C 
BRANCH  24  25
HETATM   25  C   UNK N   1      36.221  14.330  12.965  0.00  0.00     0.056 C 
BRANCH  25  26
HETATM   26  C   UNK N   1      35.895  13.031  13.693  0.00  0.00     0.168 C 
BRANCH  26  27
HETATM   27  O   UNK N   1      34.581  13.053  14.166  0.00  0.00    -0.396 OA
HETATM   28  C   UNK N   1      34.284  11.725  14.463  0.00  0.00     0.201 C 
ENDBRANCH  26  27
ENDBRANCH  25  26
ENDBRANCH  24  25
ENDBRANCH  21  24
ENDBRANCH   3  18
TORSDOF 7
ENDMDL
MODEL 7
REMARK VINA RESULT:      -6.3      4.258     10.000
REMARK  7 active torsions:
REMARK  status: ('A' for Active; 'I' for Inactive)
REMARK    1  A    between atoms: C_2  and  C_3 
REMARK       I    between atoms: C_2  and  N_14 
REMARK    2  A    between atoms: C_9  and  N_10 
REMARK    3  A    between atoms: N_14  and  C_15 
REMARK    4  A    between atoms: N_18  and  C_19 
REMARK    5  A    between atoms: C_19  and  C_20 
REMARK    6  A    between atoms: C_20  and  C_21 
REMARK    7  A    between atoms: C_21  and  O_22 
ROOT
HETATM    1  O   UNK N   1      36.842  14.834  14.581  0.00  0.00    -0.268 OA
HETATM    2  C   UNK N   1      36.224  13.817  14.292  0.00  0.00     0.254 C 
HETATM    3  N   UNK N   1      35.871  13.548  13.006  0.00  0.00    -0.352 N 
HETATM    4  H   UNK N   1      35.368  12.712  12.871  0.00  0.00     0.163 HD
ENDROOT
BRANCH   2   5
HETATM    5  C   UNK N   1      35.851  12.844  15.342  0.00  0.00     0.067 A 
HETATM    6  C   UNK N   1      35.691  11.473  15.094  0.00  0.00     0.093 A 
HETATM    7  O   UNK N   1      35.840  10.853  13.925  0.00  0.00    -0.349 OA
HETATM    8  C   UNK N   1      35.365  10.605  16.083  0.00  0.00     0.006 A 
HETATM    9  C   UNK N   1      35.621   9.489  14.046  0.00  0.00     0.180 A 
HETATM   10  C   UNK N   1      35.278   9.231  15.542  0.00  0.00     0.070 A 
HETATM   11  C   UNK N   1      35.162  11.037  17.398  0.00  0.00     0.057 A 
HETATM   12  C   UNK N   1      35.304  12.407  17.684  0.00  0.00     0.061 A 
HETATM   13 Cl   UNK N   1      35.060  13.029  19.308  0.00  0.00    -0.082 Cl
HETATM   14  C   UNK N   1      35.651  13.301  16.659  0.00  0.00     0.046 A 
BRANCH  11  15
HETATM   15  N   UNK N   1      34.825  10.116  18.413  0.00  0.00    -0.397 N 
HETATM   16  H   UNK N   1      34.674   9.169  18.195  0.00  0.00     0.156 HD
HETATM   17  H   UNK N   1      34.740  10.425  19.344  0.00  0.00     0.156 HD
ENDBRANCH  11  15
ENDBRANCH   2   5
BRANCH   3  18
HETATM   18  C   UNK N   1      36.133  14.322  11.808  0.00  0.00     0.088 C 
HETATM   19  C   UNK N   1      35.439  15.673  11.966  0.00  0.00     0.055 C 
HETATM   20  C   UNK N   1      35.196  16.317  10.616  0.00  0.00     0.274 C 
HETATM   21  N   UNK N   1      34.316  15.489   9.770  0.00  0.00     0.088 N 
HETATM   22  C   UNK N   1      34.461  14.032   9.931  0.00  0.00     0.274 C 
HETATM   23  C   UNK N   1      35.833  13.627  10.469  0.00  0.00     0.055 C 
BRANCH  21  24
HETATM   24  C   UNK N   1      34.433  15.859   8.356  0.00  0.00     0.274 C 
BRANCH  24  25
HETATM   25  C   UNK N   1      33.167  16.508   7.791  0.00  0.00     0.056 C 
BRANCH  25  26
HETATM   26  C   UNK N   1      33.489  17.904   7.270  0.00  0.00     0.168 C 
BRANCH  26  27
HETATM   27  O   UNK N   1      34.230  17.826   6.089  0.00  0.00    -0.396 OA
HETATM   28  C   UNK N   1      33.302  17.492   5.105  0.00  0.00     0.201 C 
ENDBRANCH  26  27
ENDBRANCH  25  26
ENDBRANCH  24  25
ENDBRANCH  21  24
ENDBRANCH   3  18
TORSDOF 7
ENDMDL
MODEL 8
REMARK VINA RESULT:      -6.1      2.851      4.293
REMARK  7 active torsions:
REMARK  status: ('A' for Active; 'I' for Inactive)
REMARK    1  A    between atoms: C_2  and  C_3 
REMARK       I    between atoms: C_2  and  N_14 
REMARK    2  A    between atoms: C_9  and  N_10 
REMARK    3  A    between atoms: N_14  and  C_15 
REMARK    4  A    between atoms: N_18  and  C_19 
REMARK    5  A    between atoms: C_19  and  C_20 
REMARK    6  A    between atoms: C_20  and  C_21 
REMARK    7  A    between atoms: C_21  and  O_22 
ROOT
HETATM    1  O   UNK N   1      29.247  17.395   9.156  0.00  0.00    -0.268 OA
HETATM    2  C   UNK N   1      29.725  17.523   8.037  0.00  0.00     0.254 C 
HETATM    3  N   UNK N   1      31.013  17.171   7.775  0.00  0.00    -0.352 N 
HETATM    4  H   UNK N   1      31.312  17.318   6.849  0.00  0.00     0.163 HD
ENDROOT
BRANCH   2   5
HETATM    5  C   UNK N   1      28.904  18.059   6.930  0.00  0.00     0.067 A 
HETATM    6  C   UNK N   1      28.823  17.448   5.670  0.00  0.00     0.093 A 
HETATM    7  O   UNK N   1      29.447  16.337   5.283  0.00  0.00    -0.349 OA
HETATM    8  C   UNK N   1      28.047  17.957   4.681  0.00  0.00     0.006 A 
HETATM    9  C   UNK N   1      29.127  16.008   3.974  0.00  0.00     0.180 A 
HETATM   10  C   UNK N   1      28.142  17.105   3.475  0.00  0.00     0.070 A 
HETATM   11  C   UNK N   1      27.296  19.122   4.867  0.00  0.00     0.057 A 
HETATM   12  C   UNK N   1      27.358  19.769   6.115  0.00  0.00     0.061 A 
HETATM   13 Cl   UNK N   1      26.451  21.240   6.424  0.00  0.00    -0.082 Cl
HETATM   14  C   UNK N   1      28.156  19.234   7.138  0.00  0.00     0.046 A 
BRANCH  11  15
HETATM   15  N   UNK N   1      26.493  19.633   3.825  0.00  0.00    -0.397 N 
HETATM   16  H   UNK N   1      26.885  20.213   3.134  0.00  0.00     0.156 HD
HETATM   17  H   UNK N   1      25.535  19.409   3.792  0.00  0.00     0.156 HD
ENDBRANCH  11  15
ENDBRANCH   2   5
BRANCH   3  18
HETATM   18  C   UNK N   1      32.004  16.610   8.672  0.00  0.00     0.088 C 
HETATM   19  C   UNK N   1      33.244  17.499   8.610  0.00  0.00     0.055 C 
HETATM   20  C   UNK N   1      34.477  16.741   9.062  0.00  0.00     0.274 C 
HETATM   21  N   UNK N   1      34.748  15.581   8.194  0.00  0.00     0.088 N 
HETATM   22  C   UNK N   1      33.561  14.898   7.649  0.00  0.00     0.274 C 
HETATM   23  C   UNK N   1      32.310  15.112   8.499  0.00  0.00     0.055 C 
BRANCH  21  24
HETATM   24  C   UNK N   1      35.632  14.615   8.855  0.00  0.00     0.274 C 
BRANCH  24  25
HETATM   25  C   UNK N   1      35.759  14.840  10.364  0.00  0.00     0.056 C 
BRANCH  25  26
HETATM   26  C   UNK N   1      35.106  13.687  11.116  0.00  0.00     0.168 C 
BRANCH  26  27
HETATM   27  O   UNK N   1      34.782  14.074  12.418  0.00  0.00    -0.396 OA
HETATM   28  C   UNK N   1      35.991  14.462  12.990  0.00  0.00     0.201 C 
ENDBRANCH  26  27
ENDBRANCH  25  26
ENDBRANCH  24  25
ENDBRANCH  21  24
ENDBRANCH   3  18
TORSDOF 7
ENDMDL
MODEL 9
REMARK VINA RESULT:      -6.1      2.920      4.440
REMARK  7 active torsions:
REMARK  status: ('A' for Active; 'I' for Inactive)
REMARK    1  A    between atoms: C_2  and  C_3 
REMARK       I    between atoms: C_2  and  N_14 
REMARK    2  A    between atoms: C_9  and  N_10 
REMARK    3  A    between atoms: N_14  and  C_15 
REMARK    4  A    between atoms: N_18  and  C_19 
REMARK    5  A    between atoms: C_19  and  C_20 
REMARK    6  A    between atoms: C_20  and  C_21 
REMARK    7  A    between atoms: C_21  and  O_22 
ROOT
HETATM    1  O   UNK N   1      28.842  18.003   8.977  0.00  0.00    -0.268 OA
HETATM    2  C   UNK N   1      29.260  17.801   7.844  0.00  0.00     0.254 C 
HETATM    3  N   UNK N   1      30.566  17.496   7.619  0.00  0.00    -0.352 N 
HETATM    4  H   UNK N   1      30.813  17.360   6.675  0.00  0.00     0.163 HD
ENDROOT
BRANCH   2   5
HETATM    5  C   UNK N   1      28.345  17.877   6.685  0.00  0.00     0.067 A 
HETATM    6  C   UNK N   1      27.749  19.072   6.256  0.00  0.00     0.093 A 
HETATM    7  O   UNK N   1      27.901  20.277   6.801  0.00  0.00    -0.349 OA
HETATM    8  C   UNK N   1      26.927  19.110   5.178  0.00  0.00     0.006 A 
HETATM    9  C   UNK N   1      27.176  21.238   6.111  0.00  0.00     0.180 A 
HETATM   10  C   UNK N   1      26.457  20.494   4.949  0.00  0.00     0.070 A 
HETATM   11  C   UNK N   1      26.627  17.956   4.447  0.00  0.00     0.057 A 
HETATM   12  C   UNK N   1      27.198  16.736   4.852  0.00  0.00     0.061 A 
HETATM   13 Cl   UNK N   1      26.865  15.243   3.990  0.00  0.00    -0.082 Cl
HETATM   14  C   UNK N   1      28.055  16.703   5.963  0.00  0.00     0.046 A 
BRANCH  11  15
HETATM   15  N   UNK N   1      25.771  18.018   3.326  0.00  0.00    -0.397 N 
HETATM   16  H   UNK N   1      26.144  18.070   2.417  0.00  0.00     0.156 HD
HETATM   17  H   UNK N   1      24.794  18.010   3.456  0.00  0.00     0.156 HD
ENDBRANCH  11  15
ENDBRANCH   2   5
BRANCH   3  18
HETATM   18  C   UNK N   1      31.645  17.343   8.576  0.00  0.00     0.088 C 
HETATM   19  C   UNK N   1      32.858  18.096   8.035  0.00  0.00     0.055 C 
HETATM   20  C   UNK N   1      34.140  17.572   8.652  0.00  0.00     0.274 C 
HETATM   21  N   UNK N   1      34.352  16.148   8.334  0.00  0.00     0.088 N 
HETATM   22  C   UNK N   1      33.133  15.326   8.235  0.00  0.00     0.274 C 
HETATM   23  C   UNK N   1      31.960  15.906   9.024  0.00  0.00     0.055 C 
BRANCH  21  24
HETATM   24  C   UNK N   1      35.309  15.532   9.258  0.00  0.00     0.274 C 
BRANCH  24  25
HETATM   25  C   UNK N   1      35.372  16.226  10.621  0.00  0.00     0.056 C 
BRANCH  25  26
HETATM   26  C   UNK N   1      35.655  15.201  11.712  0.00  0.00     0.168 C 
BRANCH  26  27
HETATM   27  O   UNK N   1      34.518  14.430  11.964  0.00  0.00    -0.396 OA
HETATM   28  C   UNK N   1      35.003  13.154  12.241  0.00  0.00     0.201 C 
ENDBRANCH  26  27
ENDBRANCH  25  26
ENDBRANCH  24  25
ENDBRANCH  21  24
ENDBRANCH   3  18
TORSDOF 7
ENDMDL
