REMARK  15 active torsions:
REMARK  status: ('A' for Active; 'I' for Inactive)
REMARK    1  A    between atoms: C_20  and  C_19 
REMARK    2  A    between atoms: C_29  and  C_19 
REMARK    3  A    between atoms: C_30  and  N_44 
REMARK    4  A    between atoms: C_31  and  O_47 
REMARK    5  A    between atoms: C_32  and  O_57 
REMARK    6  A    between atoms: C_34  and  O_57 
REMARK    7  A    between atoms: C_35  and  O_58 
REMARK    8  A    between atoms: C_36  and  N_45 
REMARK    9  A    between atoms: C_37  and  O_49 
REMARK   10  A    between atoms: C_38  and  O_58 
REMARK   11  A    between atoms: C_39  and  O_59 
REMARK   12  A    between atoms: C_40  and  O_52 
REMARK   13  A    between atoms: C_41  and  O_50 
REMARK   14  A    between atoms: C_42  and  O_59 
REMARK   15  A    between atoms: C_43  and  O_51 
ROOT
HETATM    1  C   UNK N   1      -2.234   0.610   2.663  0.00  0.00     0.012 C 
HETATM    2  C   UNK N   1      -1.592   8.953  -1.309  0.00  0.00     0.040 C 
HETATM    3  C   UNK N   1      -0.043   4.937   0.907  0.00  0.00    -0.004 C 
HETATM    4  C   UNK N   1      -0.969   5.636   0.212  0.00  0.00    -0.024 C 
HETATM    5  C   UNK N   1      -0.040   3.445   1.025  0.00  0.00    -0.002 C 
HETATM    6  C   UNK N   1      -0.949   7.135   0.196  0.00  0.00     0.059 C 
HETATM    7  C   UNK N   1      -0.859   2.662   0.305  0.00  0.00     0.005 C 
HETATM    8  C   UNK N   1      -3.582   1.974   1.179  0.00  0.00     0.014 C 
HETATM    9  C   UNK N   1      -4.293   6.023   0.525  0.00  0.00     0.145 C 
HETATM   10  C   UNK N   1      -2.451   0.907   1.188  0.00  0.00     0.015 C 
HETATM   11  C   UNK N   1      -2.136   7.759  -0.556  0.00  0.00     0.131 C 
HETATM   12  C   UNK N   1      -4.026   2.776  -0.064  0.00  0.00     0.024 C 
HETATM   13  C   UNK N   1      -5.733   5.759   0.068  0.00  0.00     0.159 C 
HETATM   14  C   UNK N   1      -1.033   1.181   0.531  0.00  0.00     0.151 C 
HETATM   15  C   UNK N   1      -4.055   7.457   0.930  0.00  0.00     0.261 C 
HETATM   16  C   UNK N   1      -5.567   3.073  -0.146  0.00  0.00     0.160 C 
HETATM   17  C   UNK N   1      -5.906   4.461  -0.799  0.00  0.00     0.179 C 
HETATM   18  O   UNK N   1      -4.773   7.970   1.777  0.00  0.00    -0.265 OA
HETATM   19  O   UNK N   1      -3.105   8.218   0.324  0.00  0.00    -0.316 OA
ENDROOT
BRANCH  16  20
HETATM   20  O   UNK N   1      -6.278   2.887   1.087  0.00  0.00    -0.350 OA
BRANCH  20  21
HETATM   21  C   UNK N   1      -6.891   1.589   1.168  0.00  0.00     0.291 C 
HETATM   22  C   UNK N   1      -8.155   1.508   0.257  0.00  0.00     0.209 C 
HETATM   23  C   UNK N   1      -8.699   0.065   0.055  0.00  0.00     0.286 C 
HETATM   24  C   UNK N   1      -7.478  -0.841  -0.320  0.00  0.00     0.189 C 
HETATM   25  C   UNK N   1      -6.436  -0.710   0.834  0.00  0.00     0.152 C 
HETATM   26  C   UNK N   1      -6.943  -1.192   2.191  0.00  0.00     0.042 C 
HETATM   27  O   UNK N   1      -5.921   0.600   0.877  0.00  0.00    -0.351 OA
BRANCH  22  28
HETATM   28  O   UNK N   1      -9.136   2.334   0.813  0.00  0.00    -0.388 OA
HETATM   29  H   UNK N   1      -8.980   3.210   1.199  0.00  0.00     0.210 HD
ENDBRANCH  22  28
BRANCH  23  30
HETATM   30  N   UNK N   1      -9.744   0.041  -1.009  0.00  0.00     0.089 N 
HETATM   31  C   UNK N   1     -10.365  -1.272  -1.128  0.00  0.00     0.310 C 
HETATM   32  C   UNK N   1     -10.858   0.931  -0.705  0.00  0.00     0.310 C 
ENDBRANCH  23  30
BRANCH  24  33
HETATM   33  O   UNK N   1      -7.928  -2.174  -0.550  0.00  0.00    -0.351 OA
BRANCH  33  34
HETATM   34  C   UNK N   1      -6.949  -3.183  -0.781  0.00  0.00     0.264 C 
HETATM   35  C   UNK N   1      -5.567  -2.660  -1.264  0.00  0.00     0.101 C 
HETATM   36  C   UNK N   1      -4.430  -3.674  -1.166  0.00  0.00     0.087 C 
HETATM   37  C   UNK N   1      -4.416  -4.535  -2.416  0.00  0.00     0.049 C 
HETATM   38  C   UNK N   1      -4.548  -4.528   0.115  0.00  0.00     0.180 C 
HETATM   39  C   UNK N   1      -5.980  -5.044   0.303  0.00  0.00     0.152 C 
HETATM   40  C   UNK N   1      -6.426  -6.063  -0.746  0.00  0.00     0.042 C 
HETATM   41  O   UNK N   1      -6.871  -3.950   0.411  0.00  0.00    -0.354 OA
BRANCH  36  42
HETATM   42  O   UNK N   1      -3.236  -2.964  -1.126  0.00  0.00    -0.387 OA
HETATM   43  H   UNK N   1      -2.390  -3.438  -1.098  0.00  0.00     0.210 HD
ENDBRANCH  36  42
BRANCH  38  44
HETATM   44  O   UNK N   1      -4.224  -3.750   1.232  0.00  0.00    -0.390 OA
HETATM   45  H   UNK N   1      -3.644  -3.674   2.006  0.00  0.00     0.210 HD
ENDBRANCH  38  44
ENDBRANCH  33  34
ENDBRANCH  24  33
ENDBRANCH  20  21
ENDBRANCH  16  20
BRANCH  12  46
HETATM   46  C   UNK N   1      -3.524   2.187  -1.402  0.00  0.00     0.076 C 
BRANCH  46  47
HETATM   47  C   UNK N   1      -4.027   0.800  -1.660  0.00  0.00     0.231 C 
HETATM   48  O   UNK N   1      -3.690   0.206  -2.669  0.00  0.00    -0.307 OA
ENDBRANCH  46  47
ENDBRANCH  12  46
BRANCH  17  49
HETATM   49  O   UNK N   1      -7.182   4.409  -1.425  0.00  0.00    -0.386 OA
HETATM   50  C   UNK N   1      -8.219   4.649  -0.510  0.00  0.00     0.202 C 
ENDBRANCH  17  49
BRANCH  13  51
HETATM   51  O   UNK N   1      -6.168   6.845  -0.701  0.00  0.00    -0.392 OA
HETATM   52  H   UNK N   1      -5.667   7.483  -1.233  0.00  0.00     0.210 HD
ENDBRANCH  13  51
BRANCH  14  53
HETATM   53  O   UNK N   1      -0.854   0.483  -0.704  0.00  0.00    -0.352 OA
BRANCH  53  54
HETATM   54  C   UNK N   1      -0.627  -0.911  -0.484  0.00  0.00     0.261 C 
HETATM   55  C   UNK N   1      -0.668  -1.674  -1.820  0.00  0.00     0.063 C 
HETATM   56  C   UNK N   1      -0.384  -3.183  -1.632  0.00  0.00     0.043 C 
HETATM   57  C   UNK N   1      -0.135  -3.530  -0.150  0.00  0.00     0.250 C 
HETATM   58  C   UNK N   1       0.907  -2.515   0.425  0.00  0.00     0.153 C 
HETATM   59  C   UNK N   1       2.304  -2.787  -0.111  0.00  0.00     0.042 C 
HETATM   60  O   UNK N   1       0.623  -1.134   0.155  0.00  0.00    -0.354 OA
BRANCH  57  61
HETATM   61  N   UNK N   1       0.222  -4.948   0.093  0.00  0.00     0.087 N 
HETATM   62  C   UNK N   1       1.254  -5.442  -0.811  0.00  0.00     0.310 C 
HETATM   63  C   UNK N   1      -0.945  -5.800  -0.099  0.00  0.00     0.310 C 
ENDBRANCH  57  61
ENDBRANCH  53  54
ENDBRANCH  14  53
TORSDOF 15
