MODEL 1
REMARK VINA RESULT:      -7.7      0.000      0.000
REMARK  6 active torsions:
REMARK  status: ('A' for Active; 'I' for Inactive)
REMARK    1  A    between atoms: C_19  and  C_13 
REMARK    2  A    between atoms: C_20  and  C_14 
REMARK    3  A    between atoms: C_18  and  O_33 
REMARK    4  A    between atoms: C_21  and  O_34 
REMARK    5  A    between atoms: O_35  and  C_22 
REMARK    6  A    between atoms: C_23  and  O_36 
ROOT
HETATM    1  C   UNK N   1      25.615  24.572 -10.106  0.00  0.00     0.038 C 
HETATM    2  C   UNK N   1      25.829  24.939  -8.671  0.00  0.00     0.003 C 
HETATM    3  C   UNK N   1      30.229  26.438  -4.077  0.00  0.00    -0.027 C 
HETATM    4  C   UNK N   1      31.153  27.251  -4.926  0.00  0.00     0.038 C 
HETATM    5  C   UNK N   1      30.239  25.124  -4.261  0.00  0.00     0.002 C 
HETATM    6  C   UNK N   1      30.631  27.222  -6.389  0.00  0.00     0.090 C 
HETATM    7  C   UNK N   1      29.718  22.958  -3.022  0.00  0.00     0.120 C 
HETATM    8  C   UNK N   1      29.381  23.254  -8.098  0.00  0.00     0.119 C 
HETATM    9  C   UNK N   1      29.179  24.157  -3.814  0.00  0.00     0.162 C 
HETATM   10  C   UNK N   1      26.111  24.005  -7.738  0.00  0.00     0.081 C 
HETATM   11  C   UNK N   1      28.503  22.256  -7.270  0.00  0.00     0.168 C 
HETATM   12  C   UNK N   1      31.041  22.229  -3.246  0.00  0.00     0.114 C 
HETATM   13  C   UNK N   1      31.095  22.098  -5.747  0.00  0.00     0.161 C 
HETATM   14  C   UNK N   1      27.017  26.318  -4.842  0.00  0.00     0.187 C 
HETATM   15  C   UNK N   1      26.334  24.400  -6.308  0.00  0.00     0.163 C 
HETATM   16  C   UNK N   1      27.191  21.846  -7.949  0.00  0.00     0.140 C 
HETATM   17  C   UNK N   1      30.369  20.916  -6.362  0.00  0.00     0.135 C 
HETATM   18  C   UNK N   1      27.085  25.535  -3.502  0.00  0.00     0.282 C 
HETATM   19  N   UNK N   1      26.194  22.645  -8.151  0.00  0.00    -0.336 N 
ATOM     20  HN  UNK N   1      25.393  22.265  -8.654  1.00  0.00     0.168 HD
HETATM   21  N   UNK N   1      29.255  21.034  -7.016  0.00  0.00    -0.360 N 
ATOM     22  HN  UNK N   1      28.860  20.174  -7.394  1.00  0.00     0.162 HD
HETATM   23  N   UNK N   1      31.525  21.826  -4.384  0.00  0.00    -0.362 N 
ATOM     24  HN  UNK N   1      32.339  21.216  -4.309  1.00  0.00     0.162 HD
HETATM   25  N   UNK N   1      26.685  25.618  -6.070  0.00  0.00    -0.355 N 
ATOM     26  HN  UNK N   1      26.740  26.202  -6.904  1.00  0.00     0.162 HD
HETATM   27  O   UNK N   1      26.233  25.773  -2.662  0.00  0.00    -0.263 OA
HETATM   28  O   UNK N   1      28.097  24.685  -3.124  0.00  0.00    -0.310 OA
HETATM   29  S   UNK N   1      31.078  25.713  -7.368  0.00  0.00    -0.097 SA
HETATM   30  S   UNK N   1      29.081  25.070  -7.870  0.00  0.00    -0.095 SA
ENDROOT
BRANCH  13  31
HETATM   31  C   UNK N   1      32.342  22.437  -6.600  0.00  0.00     0.008 C 
HETATM   32  C   UNK N   1      33.390  23.204  -5.812  0.00  0.00     0.012 C 
HETATM   33  C   UNK N   1      33.018  21.221  -7.214  0.00  0.00     0.012 C 
ENDBRANCH  13  31
BRANCH  17  34
HETATM   34  O   UNK N   1      30.927  19.694  -6.265  0.00  0.00    -0.348 OA
HETATM   35  H   UNK N   1      31.585  19.475  -5.634  0.00  0.00     0.219 HD
ENDBRANCH  17  34
BRANCH  12  36
HETATM   36  O   UNK N   1      31.722  21.895  -2.134  0.00  0.00    -0.349 OA
HETATM   37  H   UNK N   1      31.327  21.528  -1.367  0.00  0.00     0.219 HD
ENDBRANCH  12  36
BRANCH  16  38
HETATM   38  O   UNK N   1      27.060  20.566  -8.358  0.00  0.00    -0.348 OA
HETATM   39  H   UNK N   1      26.833  20.289  -9.224  0.00  0.00     0.219 HD
ENDBRANCH  16  38
BRANCH  15  40
HETATM   40  O   UNK N   1      26.196  23.504  -5.313  0.00  0.00    -0.345 OA
HETATM   41  H   UNK N   1      26.545  22.877  -4.712  0.00  0.00     0.219 HD
ENDBRANCH  15  40
BRANCH  14  42
HETATM   42  C   UNK N   1      26.063  27.526  -4.784  0.00  0.00     0.010 C 
HETATM   43  C   UNK N   1      26.726  28.838  -5.175  0.00  0.00     0.012 C 
HETATM   44  C   UNK N   1      24.783  27.308  -5.576  0.00  0.00     0.012 C 
ENDBRANCH  14  42
TORSDOF 6
ENDMDL
MODEL 2
REMARK VINA RESULT:      -7.2     15.147     17.421
REMARK  6 active torsions:
REMARK  status: ('A' for Active; 'I' for Inactive)
REMARK    1  A    between atoms: C_19  and  C_13 
REMARK    2  A    between atoms: C_20  and  C_14 
REMARK    3  A    between atoms: C_18  and  O_33 
REMARK    4  A    between atoms: C_21  and  O_34 
REMARK    5  A    between atoms: O_35  and  C_22 
REMARK    6  A    between atoms: C_23  and  O_36 
ROOT
HETATM    1  C   UNK N   1      27.190  15.945   6.364  0.00  0.00     0.038 C 
HETATM    2  C   UNK N   1      25.941  15.320   6.902  0.00  0.00     0.003 C 
HETATM    3  C   UNK N   1      21.476  10.615   6.100  0.00  0.00    -0.027 C 
HETATM    4  C   UNK N   1      22.393   9.532   5.628  0.00  0.00     0.038 C 
HETATM    5  C   UNK N   1      21.214  11.598   5.248  0.00  0.00     0.002 C 
HETATM    6  C   UNK N   1      23.827  10.118   5.508  0.00  0.00     0.090 C 
HETATM    7  C   UNK N   1      19.428  13.346   4.747  0.00  0.00     0.120 C 
HETATM    8  C   UNK N   1      24.307  14.108   3.490  0.00  0.00     0.119 C 
HETATM    9  C   UNK N   1      20.643  12.944   5.594  0.00  0.00     0.162 C 
HETATM   10  C   UNK N   1      24.721  15.679   6.447  0.00  0.00     0.081 C 
HETATM   11  C   UNK N   1      23.343  15.299   3.810  0.00  0.00     0.168 C 
HETATM   12  C   UNK N   1      19.193  13.033   3.271  0.00  0.00     0.114 C 
HETATM   13  C   UNK N   1      21.473  13.466   2.325  0.00  0.00     0.161 C 
HETATM   14  C   UNK N   1      22.644  12.951   8.124  0.00  0.00     0.187 C 
HETATM   15  C   UNK N   1      23.485  15.028   6.993  0.00  0.00     0.163 C 
HETATM   16  C   UNK N   1      24.041  16.572   4.300  0.00  0.00     0.140 C 
HETATM   17  C   UNK N   1      21.769  14.905   1.947  0.00  0.00     0.135 C 
HETATM   18  C   UNK N   1      21.127  13.281   8.051  0.00  0.00     0.282 C 
HETATM   19  N   UNK N   1      24.646  16.680   5.438  0.00  0.00    -0.336 N 
ATOM     20  HN  UNK N   1      25.113  17.566   5.631  1.00  0.00     0.168 HD
HETATM   21  N   UNK N   1      22.588  15.656   2.616  0.00  0.00    -0.360 N 
ATOM     22  HN  UNK N   1      22.718  16.605   2.266  1.00  0.00     0.162 HD
HETATM   23  N   UNK N   1      20.047  13.177   2.299  0.00  0.00    -0.362 N 
ATOM     24  HN  UNK N   1      19.651  13.071   1.366  1.00  0.00     0.162 HD
HETATM   25  N   UNK N   1      23.608  13.867   7.542  0.00  0.00    -0.355 N 
ATOM     26  HN  UNK N   1      24.569  13.527   7.574  1.00  0.00     0.162 HD
HETATM   27  O   UNK N   1      20.554  13.548   9.094  0.00  0.00    -0.263 OA
HETATM   28  O   UNK N   1      20.340  13.174   6.928  0.00  0.00    -0.310 OA
HETATM   29  S   UNK N   1      24.174  11.071   3.956  0.00  0.00    -0.097 SA
HETATM   30  S   UNK N   1      24.737  12.944   4.868  0.00  0.00    -0.095 SA
ENDROOT
BRANCH  13  31
HETATM   31  C   UNK N   1      22.188  12.515   1.333  0.00  0.00     0.008 C 
HETATM   32  C   UNK N   1      21.215  11.604   0.604  0.00  0.00     0.012 C 
HETATM   33  C   UNK N   1      23.026  13.234   0.287  0.00  0.00     0.012 C 
ENDBRANCH  13  31
BRANCH  17  34
HETATM   34  O   UNK N   1      21.191  15.414   0.842  0.00  0.00    -0.348 OA
HETATM   35  H   UNK N   1      20.455  15.994   0.865  0.00  0.00     0.219 HD
ENDBRANCH  17  34
BRANCH  12  36
HETATM   36  O   UNK N   1      17.942  12.660   2.941  0.00  0.00    -0.349 OA
HETATM   37  H   UNK N   1      17.212  12.700   3.528  0.00  0.00     0.219 HD
ENDBRANCH  12  36
BRANCH  16  38
HETATM   38  O   UNK N   1      24.022  17.658   3.497  0.00  0.00    -0.348 OA
HETATM   39  H   UNK N   1      23.594  18.469   3.686  0.00  0.00     0.219 HD
ENDBRANCH  16  38
BRANCH  15  40
HETATM   40  O   UNK N   1      22.283  15.628   6.889  0.00  0.00    -0.345 OA
HETATM   41  H   UNK N   1      21.349  15.623   6.951  0.00  0.00     0.219 HD
ENDBRANCH  15  40
BRANCH  14  42
HETATM   42  C   UNK N   1      23.133  12.693   9.561  0.00  0.00     0.010 C 
HETATM   43  C   UNK N   1      22.835  11.285  10.055  0.00  0.00     0.012 C 
HETATM   44  C   UNK N   1      24.602  13.036   9.757  0.00  0.00     0.012 C 
ENDBRANCH  14  42
TORSDOF 6
ENDMDL
MODEL 3
REMARK VINA RESULT:      -7.0     14.414     16.739
REMARK  6 active torsions:
REMARK  status: ('A' for Active; 'I' for Inactive)
REMARK    1  A    between atoms: C_19  and  C_13 
REMARK    2  A    between atoms: C_20  and  C_14 
REMARK    3  A    between atoms: C_18  and  O_33 
REMARK    4  A    between atoms: C_21  and  O_34 
REMARK    5  A    between atoms: O_35  and  C_22 
REMARK    6  A    between atoms: C_23  and  O_36 
ROOT
HETATM    1  C   UNK N   1      22.710  11.913   8.546  0.00  0.00     0.038 C 
HETATM    2  C   UNK N   1      22.039  11.925   7.209  0.00  0.00     0.003 C 
HETATM    3  C   UNK N   1      22.269  14.158   1.070  0.00  0.00    -0.027 C 
HETATM    4  C   UNK N   1      23.749  14.069   0.868  0.00  0.00     0.038 C 
HETATM    5  C   UNK N   1      21.825  15.129   1.859  0.00  0.00     0.002 C 
HETATM    6  C   UNK N   1      24.399  13.599   2.198  0.00  0.00     0.090 C 
HETATM    7  C   UNK N   1      19.738  16.535   2.267  0.00  0.00     0.120 C 
HETATM    8  C   UNK N   1      23.059  15.572   6.010  0.00  0.00     0.119 C 
HETATM    9  C   UNK N   1      20.467  15.203   2.496  0.00  0.00     0.162 C 
HETATM   10  C   UNK N   1      21.178  12.904   6.861  0.00  0.00     0.081 C 
HETATM   11  C   UNK N   1      21.542  15.828   6.301  0.00  0.00     0.168 C 
HETATM   12  C   UNK N   1      20.367  17.924   2.193  0.00  0.00     0.114 C 
HETATM   13  C   UNK N   1      22.015  17.802   4.077  0.00  0.00     0.161 C 
HETATM   14  C   UNK N   1      20.795  12.063   3.158  0.00  0.00     0.187 C 
HETATM   15  C   UNK N   1      20.528  12.901   5.509  0.00  0.00     0.163 C 
HETATM   16  C   UNK N   1      21.027  15.206   7.603  0.00  0.00     0.140 C 
HETATM   17  C   UNK N   1      21.474  18.147   5.451  0.00  0.00     0.135 C 
HETATM   18  C   UNK N   1      19.598  12.831   2.532  0.00  0.00     0.282 C 
HETATM   19  N   UNK N   1      20.911  13.934   7.807  0.00  0.00    -0.336 N 
ATOM     20  HN  UNK N   1      20.599  13.641   8.732  1.00  0.00     0.168 HD
HETATM   21  N   UNK N   1      21.292  17.262   6.381  0.00  0.00    -0.360 N 
ATOM     22  HN  UNK N   1      20.932  17.608   7.270  1.00  0.00     0.162 HD
HETATM   23  N   UNK N   1      21.243  18.427   3.013  0.00  0.00    -0.362 N 
ATOM     24  HN  UNK N   1      21.417  19.424   2.891  1.00  0.00     0.162 HD
HETATM   25  N   UNK N   1      21.111  12.244   4.564  0.00  0.00    -0.355 N 
ATOM     26  HN  UNK N   1      21.957  11.758   4.860  1.00  0.00     0.162 HD
HETATM   27  O   UNK N   1      18.627  12.180   2.183  0.00  0.00    -0.263 OA
HETATM   28  O   UNK N   1      19.584  14.170   2.218  0.00  0.00    -0.310 OA
HETATM   29  S   UNK N   1      24.665  14.921   3.470  0.00  0.00    -0.097 SA
HETATM   30  S   UNK N   1      23.518  14.041   5.071  0.00  0.00    -0.095 SA
ENDROOT
BRANCH  13  31
HETATM   31  C   UNK N   1      23.484  18.279   3.967  0.00  0.00     0.008 C 
HETATM   32  C   UNK N   1      23.599  19.652   3.327  0.00  0.00     0.012 C 
HETATM   33  C   UNK N   1      24.219  18.321   5.298  0.00  0.00     0.012 C 
ENDBRANCH  13  31
BRANCH  17  34
HETATM   34  O   UNK N   1      21.212  19.438   5.736  0.00  0.00    -0.348 OA
HETATM   35  H   UNK N   1      21.143  20.107   5.084  0.00  0.00     0.219 HD
ENDBRANCH  17  34
BRANCH  12  36
HETATM   36  O   UNK N   1      19.887  18.735   1.231  0.00  0.00    -0.349 OA
HETATM   37  H   UNK N   1      19.510  18.430   0.429  0.00  0.00     0.219 HD
ENDBRANCH  12  36
BRANCH  16  38
HETATM   38  O   UNK N   1      20.663  16.036   8.604  0.00  0.00    -0.348 OA
HETATM   39  H   UNK N   1      20.697  15.836   9.519  0.00  0.00     0.219 HD
ENDBRANCH  16  38
BRANCH  15  40
HETATM   40  O   UNK N   1      19.389  13.583   5.286  0.00  0.00    -0.345 OA
HETATM   41  H   UNK N   1      18.922  14.367   5.075  0.00  0.00     0.219 HD
ENDBRANCH  15  40
BRANCH  14  42
HETATM   42  C   UNK N   1      20.708  10.541   2.946  0.00  0.00     0.010 C 
HETATM   43  C   UNK N   1      21.430  10.064   1.695  0.00  0.00     0.012 C 
HETATM   44  C   UNK N   1      21.154   9.747   4.165  0.00  0.00     0.012 C 
ENDBRANCH  14  42
TORSDOF 6
ENDMDL
MODEL 4
REMARK VINA RESULT:      -6.9     14.188     16.233
REMARK  6 active torsions:
REMARK  status: ('A' for Active; 'I' for Inactive)
REMARK    1  A    between atoms: C_19  and  C_13 
REMARK    2  A    between atoms: C_20  and  C_14 
REMARK    3  A    between atoms: C_18  and  O_33 
REMARK    4  A    between atoms: C_21  and  O_34 
REMARK    5  A    between atoms: O_35  and  C_22 
REMARK    6  A    between atoms: C_23  and  O_36 
ROOT
HETATM    1  C   UNK N   1      17.717  13.469   0.066  0.00  0.00     0.038 C 
HETATM    2  C   UNK N   1      19.146  13.123   0.345  0.00  0.00     0.003 C 
HETATM    3  C   UNK N   1      23.604  11.893   4.964  0.00  0.00    -0.027 C 
HETATM    4  C   UNK N   1      22.729  11.125   5.903  0.00  0.00     0.038 C 
HETATM    5  C   UNK N   1      23.413  13.204   4.897  0.00  0.00     0.002 C 
HETATM    6  C   UNK N   1      21.284  11.116   5.333  0.00  0.00     0.090 C 
HETATM    7  C   UNK N   1      24.658  15.348   4.300  0.00  0.00     0.120 C 
HETATM    8  C   UNK N   1      19.597  15.000   3.818  0.00  0.00     0.119 C 
HETATM    9  C   UNK N   1      23.889  14.116   3.801  0.00  0.00     0.162 C 
HETATM   10  C   UNK N   1      20.065  14.077   0.606  0.00  0.00     0.081 C 
HETATM   11  C   UNK N   1      20.447  15.955   2.914  0.00  0.00     0.168 C 
HETATM   12  C   UNK N   1      24.388  16.145   5.574  0.00  0.00     0.114 C 
HETATM   13  C   UNK N   1      21.885  16.262   5.541  0.00  0.00     0.161 C 
HETATM   14  C   UNK N   1      22.942  11.835   1.727  0.00  0.00     0.187 C 
HETATM   15  C   UNK N   1      21.489  13.704   0.895  0.00  0.00     0.163 C 
HETATM   16  C   UNK N   1      19.809  16.290   1.562  0.00  0.00     0.140 C 
HETATM   17  C   UNK N   1      21.288  17.399   4.733  0.00  0.00     0.135 C 
HETATM   18  C   UNK N   1      24.275  12.630   1.795  0.00  0.00     0.282 C 
HETATM   19  N   UNK N   1      19.642  15.437   0.603  0.00  0.00    -0.336 N 
ATOM     20  HN  UNK N   1      19.164  15.770  -0.234  1.00  0.00     0.168 HD
HETATM   21  N   UNK N   1      20.671  17.217   3.607  0.00  0.00    -0.360 N 
ATOM     22  HN  UNK N   1      20.302  18.053   3.155  1.00  0.00     0.162 HD
HETATM   23  N   UNK N   1      23.233  16.566   5.999  0.00  0.00    -0.362 N 
ATOM     24  HN  UNK N   1      23.279  17.219   6.781  1.00  0.00     0.162 HD
HETATM   25  N   UNK N   1      21.722  12.508   1.319  0.00  0.00    -0.355 N 
ATOM     26  HN  UNK N   1      20.890  11.922   1.379  1.00  0.00     0.162 HD
HETATM   27  O   UNK N   1      25.143  12.352   0.984  0.00  0.00    -0.263 OA
HETATM   28  O   UNK N   1      24.616  13.536   2.772  0.00  0.00    -0.310 OA
HETATM   29  S   UNK N   1      20.284  12.641   5.667  0.00  0.00    -0.097 SA
HETATM   30  S   UNK N   1      19.843  13.172   3.623  0.00  0.00    -0.095 SA
ENDROOT
BRANCH  13  31
HETATM   31  C   UNK N   1      20.994  15.985   6.777  0.00  0.00     0.008 C 
HETATM   32  C   UNK N   1      21.696  15.123   7.813  0.00  0.00     0.012 C 
HETATM   33  C   UNK N   1      20.499  17.242   7.474  0.00  0.00     0.012 C 
ENDBRANCH  13  31
BRANCH  17  34
HETATM   34  O   UNK N   1      21.361  18.650   5.228  0.00  0.00    -0.348 OA
HETATM   35  H   UNK N   1      21.957  19.298   4.906  0.00  0.00     0.219 HD
ENDBRANCH  17  34
BRANCH  12  36
HETATM   36  O   UNK N   1      25.476  16.523   6.271  0.00  0.00    -0.349 OA
HETATM   37  H   UNK N   1      25.455  17.125   6.989  0.00  0.00     0.219 HD
ENDBRANCH  12  36
BRANCH  16  38
HETATM   38  O   UNK N   1      19.398  17.558   1.349  0.00  0.00    -0.348 OA
HETATM   39  H   UNK N   1      19.953  18.286   1.149  0.00  0.00     0.219 HD
ENDBRANCH  16  38
BRANCH  15  40
HETATM   40  O   UNK N   1      22.483  14.598   0.741  0.00  0.00    -0.345 OA
HETATM   41  H   UNK N   1      22.903  15.411   0.943  0.00  0.00     0.219 HD
ENDBRANCH  15  40
BRANCH  14  42
HETATM   42  C   UNK N   1      23.037  10.579   0.841  0.00  0.00     0.010 C 
HETATM   43  C   UNK N   1      23.572   9.361   1.579  0.00  0.00     0.012 C 
HETATM   44  C   UNK N   1      21.731  10.253   0.134  0.00  0.00     0.012 C 
ENDBRANCH  14  42
TORSDOF 6
ENDMDL
MODEL 5
REMARK VINA RESULT:      -6.8      1.936      2.672
REMARK  6 active torsions:
REMARK  status: ('A' for Active; 'I' for Inactive)
REMARK    1  A    between atoms: C_19  and  C_13 
REMARK    2  A    between atoms: C_20  and  C_14 
REMARK    3  A    between atoms: C_18  and  O_33 
REMARK    4  A    between atoms: C_21  and  O_34 
REMARK    5  A    between atoms: O_35  and  C_22 
REMARK    6  A    between atoms: C_23  and  O_36 
ROOT
HETATM    1  C   UNK N   1      28.715  21.065 -11.466  0.00  0.00     0.038 C 
HETATM    2  C   UNK N   1      28.208  21.986 -10.401  0.00  0.00     0.003 C 
HETATM    3  C   UNK N   1      29.841  26.143  -5.629  0.00  0.00    -0.027 C 
HETATM    4  C   UNK N   1      31.020  26.777  -6.295  0.00  0.00     0.038 C 
HETATM    5  C   UNK N   1      29.995  24.902  -5.182  0.00  0.00     0.002 C 
HETATM    6  C   UNK N   1      31.253  26.071  -7.659  0.00  0.00     0.090 C 
HETATM    7  C   UNK N   1      29.047  23.306  -3.436  0.00  0.00     0.120 C 
HETATM    8  C   UNK N   1      31.137  21.576  -7.749  0.00  0.00     0.119 C 
HETATM    9  C   UNK N   1      28.894  23.945  -4.823  0.00  0.00     0.162 C 
HETATM   10  C   UNK N   1      28.057  21.573  -9.125  0.00  0.00     0.081 C 
HETATM   11  C   UNK N   1      30.018  20.779  -6.998  0.00  0.00     0.168 C 
HETATM   12  C   UNK N   1      30.350  22.899  -2.751  0.00  0.00     0.114 C 
HETATM   13  C   UNK N   1      31.585  21.853  -4.663  0.00  0.00     0.161 C 
HETATM   14  C   UNK N   1      27.382  24.953  -7.487  0.00  0.00     0.187 C 
HETATM   15  C   UNK N   1      27.559  22.519  -8.073  0.00  0.00     0.163 C 
HETATM   16  C   UNK N   1      29.203  19.833  -7.887  0.00  0.00     0.140 C 
HETATM   17  C   UNK N   1      31.290  20.387  -4.917  0.00  0.00     0.135 C 
HETATM   18  C   UNK N   1      26.842  24.775  -6.041  0.00  0.00     0.282 C 
HETATM   19  N   UNK N   1      28.386  20.224  -8.811  0.00  0.00    -0.336 N 
ATOM     20  HN  UNK N   1      27.935  19.497  -9.366  1.00  0.00     0.168 HD
HETATM   21  N   UNK N   1      30.613  19.970  -5.943  0.00  0.00    -0.360 N 
ATOM     22  HN  UNK N   1      30.483  18.962  -6.018  1.00  0.00     0.162 HD
HETATM   23  N   UNK N   1      31.331  22.229  -3.280  0.00  0.00    -0.362 N 
ATOM     24  HN  UNK N   1      32.039  21.915  -2.617  1.00  0.00     0.162 HD
HETATM   25  N   UNK N   1      27.701  23.784  -8.286  0.00  0.00    -0.355 N 
ATOM     26  HN  UNK N   1      28.118  24.005  -9.190  1.00  0.00     0.162 HD
HETATM   27  O   UNK N   1      25.685  25.093  -5.824  0.00  0.00    -0.263 OA
HETATM   28  O   UNK N   1      27.593  24.408  -4.948  0.00  0.00    -0.310 OA
HETATM   29  S   UNK N   1      32.177  24.466  -7.581  0.00  0.00    -0.097 SA
HETATM   30  S   UNK N   1      30.685  23.209  -8.503  0.00  0.00    -0.095 SA
ENDROOT
BRANCH  13  31
HETATM   31  C   UNK N   1      33.071  22.143  -4.989  0.00  0.00     0.008 C 
HETATM   32  C   UNK N   1      33.426  23.609  -4.812  0.00  0.00     0.012 C 
HETATM   33  C   UNK N   1      34.054  21.323  -4.166  0.00  0.00     0.012 C 
ENDBRANCH  13  31
BRANCH  17  34
HETATM   34  O   UNK N   1      31.789  19.470  -4.066  0.00  0.00    -0.348 OA
HETATM   35  H   UNK N   1      31.282  18.768  -3.708  0.00  0.00     0.219 HD
ENDBRANCH  17  34
BRANCH  12  36
HETATM   36  O   UNK N   1      30.438  23.187  -1.439  0.00  0.00    -0.349 OA
HETATM   37  H   UNK N   1      30.571  22.545  -0.769  0.00  0.00     0.219 HD
ENDBRANCH  12  36
BRANCH  16  38
HETATM   38  O   UNK N   1      29.337  18.504  -7.692  0.00  0.00    -0.348 OA
HETATM   39  H   UNK N   1      30.042  18.087  -7.237  0.00  0.00     0.219 HD
ENDBRANCH  16  38
BRANCH  15  40
HETATM   40  O   UNK N   1      27.007  22.060  -6.934  0.00  0.00    -0.345 OA
HETATM   41  H   UNK N   1      26.753  21.365  -6.360  0.00  0.00     0.219 HD
ENDBRANCH  15  40
BRANCH  14  42
HETATM   42  C   UNK N   1      26.461  25.817  -8.369  0.00  0.00     0.010 C 
HETATM   43  C   UNK N   1      27.205  26.897  -9.140  0.00  0.00     0.012 C 
HETATM   44  C   UNK N   1      25.587  24.991  -9.300  0.00  0.00     0.012 C 
ENDBRANCH  14  42
TORSDOF 6
ENDMDL
MODEL 6
REMARK VINA RESULT:      -6.8      2.009      7.302
REMARK  6 active torsions:
REMARK  status: ('A' for Active; 'I' for Inactive)
REMARK    1  A    between atoms: C_19  and  C_13 
REMARK    2  A    between atoms: C_20  and  C_14 
REMARK    3  A    between atoms: C_18  and  O_33 
REMARK    4  A    between atoms: C_21  and  O_34 
REMARK    5  A    between atoms: O_35  and  C_22 
REMARK    6  A    between atoms: C_23  and  O_36 
ROOT
HETATM    1  C   UNK N   1      33.639  23.921  -5.210  0.00  0.00     0.038 C 
HETATM    2  C   UNK N   1      32.848  22.829  -5.859  0.00  0.00     0.003 C 
HETATM    3  C   UNK N   1      28.518  21.333 -10.520  0.00  0.00    -0.027 C 
HETATM    4  C   UNK N   1      29.019  22.262 -11.580  0.00  0.00     0.038 C 
HETATM    5  C   UNK N   1      27.869  21.877  -9.497  0.00  0.00     0.002 C 
HETATM    6  C   UNK N   1      30.186  23.099 -10.989  0.00  0.00     0.090 C 
HETATM    7  C   UNK N   1      26.133  21.287  -7.727  0.00  0.00     0.120 C 
HETATM    8  C   UNK N   1      29.627  24.904  -6.908  0.00  0.00     0.119 C 
HETATM    9  C   UNK N   1      27.602  21.228  -8.169  0.00  0.00     0.162 C 
HETATM   10  C   UNK N   1      31.582  22.554  -5.479  0.00  0.00     0.081 C 
HETATM   11  C   UNK N   1      29.009  24.075  -5.733  0.00  0.00     0.168 C 
HETATM   12  C   UNK N   1      25.146  22.426  -7.970  0.00  0.00     0.114 C 
HETATM   13  C   UNK N   1      26.591  24.417  -7.494  0.00  0.00     0.161 C 
HETATM   14  C   UNK N   1      30.637  20.143  -8.282  0.00  0.00     0.187 C 
HETATM   15  C   UNK N   1      30.805  21.463  -6.154  0.00  0.00     0.163 C 
HETATM   16  C   UNK N   1      29.892  23.979  -4.485  0.00  0.00     0.140 C 
HETATM   17  C   UNK N   1      26.679  24.836  -6.039  0.00  0.00     0.135 C 
HETATM   18  C   UNK N   1      29.320  19.389  -7.949  0.00  0.00     0.282 C 
HETATM   19  N   UNK N   1      31.010  23.330  -4.431  0.00  0.00    -0.336 N 
ATOM     20  HN  UNK N   1      31.530  23.378  -3.555  1.00  0.00     0.168 HD
HETATM   21  N   UNK N   1      27.746  24.673  -5.320  0.00  0.00    -0.360 N 
ATOM     22  HN  UNK N   1      27.695  25.001  -4.356  1.00  0.00     0.162 HD
HETATM   23  N   UNK N   1      25.360  23.695  -7.781  0.00  0.00    -0.362 N 
ATOM     24  HN  UNK N   1      24.528  24.281  -7.843  1.00  0.00     0.162 HD
HETATM   25  N   UNK N   1      31.171  21.109  -7.339  0.00  0.00    -0.355 N 
ATOM     26  HN  UNK N   1      31.995  21.605  -7.681  1.00  0.00     0.162 HD
HETATM   27  O   UNK N   1      29.391  18.190  -7.731  0.00  0.00    -0.263 OA
HETATM   28  O   UNK N   1      28.056  19.928  -8.002  0.00  0.00    -0.310 OA
HETATM   29  S   UNK N   1      29.685  24.559  -9.964  0.00  0.00    -0.097 SA
HETATM   30  S   UNK N   1      30.692  24.011  -8.136  0.00  0.00    -0.095 SA
ENDROOT
BRANCH  13  31
HETATM   31  C   UNK N   1      26.649  25.674  -8.396  0.00  0.00     0.008 C 
HETATM   32  C   UNK N   1      25.451  25.773  -9.326  0.00  0.00     0.012 C 
HETATM   33  C   UNK N   1      26.751  26.981  -7.626  0.00  0.00     0.012 C 
ENDBRANCH  13  31
BRANCH  17  34
HETATM   34  O   UNK N   1      25.617  25.447  -5.477  0.00  0.00    -0.348 OA
HETATM   35  H   UNK N   1      24.955  24.991  -4.995  0.00  0.00     0.219 HD
ENDBRANCH  17  34
BRANCH  12  36
HETATM   36  O   UNK N   1      23.901  22.058  -8.327  0.00  0.00    -0.349 OA
HETATM   37  H   UNK N   1      23.247  21.767  -7.722  0.00  0.00     0.219 HD
ENDBRANCH  12  36
BRANCH  16  38
HETATM   38  O   UNK N   1      29.479  24.606  -3.363  0.00  0.00    -0.348 OA
HETATM   39  H   UNK N   1      28.680  25.087  -3.268  0.00  0.00     0.219 HD
ENDBRANCH  16  38
BRANCH  15  40
HETATM   40  O   UNK N   1      29.746  20.892  -5.550  0.00  0.00    -0.345 OA
HETATM   41  H   UNK N   1      28.845  20.884  -5.294  0.00  0.00     0.219 HD
ENDBRANCH  15  40
BRANCH  14  42
HETATM   42  C   UNK N   1      31.805  19.194  -8.608  0.00  0.00     0.010 C 
HETATM   43  C   UNK N   1      31.941  18.894 -10.093  0.00  0.00     0.012 C 
HETATM   44  C   UNK N   1      33.130  19.664  -8.026  0.00  0.00     0.012 C 
ENDBRANCH  14  42
TORSDOF 6
ENDMDL
MODEL 7
REMARK VINA RESULT:      -6.7     15.415     17.904
REMARK  6 active torsions:
REMARK  status: ('A' for Active; 'I' for Inactive)
REMARK    1  A    between atoms: C_19  and  C_13 
REMARK    2  A    between atoms: C_20  and  C_14 
REMARK    3  A    between atoms: C_18  and  O_33 
REMARK    4  A    between atoms: C_21  and  O_34 
REMARK    5  A    between atoms: O_35  and  C_22 
REMARK    6  A    between atoms: C_23  and  O_36 
ROOT
HETATM    1  C   UNK N   1      24.430  12.669   9.059  0.00  0.00     0.038 C 
HETATM    2  C   UNK N   1      24.044  11.946   7.807  0.00  0.00     0.003 C 
HETATM    3  C   UNK N   1      23.100  12.438   1.358  0.00  0.00    -0.027 C 
HETATM    4  C   UNK N   1      24.229  13.369   1.049  0.00  0.00     0.038 C 
HETATM    5  C   UNK N   1      22.047  12.952   1.981  0.00  0.00     0.002 C 
HETATM    6  C   UNK N   1      24.922  13.761   2.383  0.00  0.00     0.090 C 
HETATM    7  C   UNK N   1      19.550  12.544   2.292  0.00  0.00     0.120 C 
HETATM    8  C   UNK N   1      22.307  14.935   5.848  0.00  0.00     0.119 C 
HETATM    9  C   UNK N   1      20.982  12.180   2.707  0.00  0.00     0.162 C 
HETATM   10  C   UNK N   1      22.772  11.951   7.354  0.00  0.00     0.081 C 
HETATM   11  C   UNK N   1      21.028  14.109   6.214  0.00  0.00     0.168 C 
HETATM   12  C   UNK N   1      19.031  13.925   1.899  0.00  0.00     0.114 C 
HETATM   13  C   UNK N   1      20.149  15.361   3.621  0.00  0.00     0.161 C 
HETATM   14  C   UNK N   1      23.362  10.377   3.927  0.00  0.00     0.187 C 
HETATM   15  C   UNK N   1      22.412  11.229   6.088  0.00  0.00     0.163 C 
HETATM   16  C   UNK N   1      21.000  13.578   7.651  0.00  0.00     0.140 C 
HETATM   17  C   UNK N   1      19.421  15.491   4.945  0.00  0.00     0.135 C 
HETATM   18  C   UNK N   1      22.020   9.947   3.272  0.00  0.00     0.282 C 
HETATM   19  N   UNK N   1      21.792  12.660   8.104  0.00  0.00    -0.336 N 
ATOM     20  HN  UNK N   1      21.706  12.423   9.092  1.00  0.00     0.168 HD
HETATM   21  N   UNK N   1      19.842  14.937   6.040  0.00  0.00    -0.360 N 
ATOM     22  HN  UNK N   1      19.277  15.100   6.874  1.00  0.00     0.162 HD
HETATM   23  N   UNK N   1      19.242  15.044   2.528  0.00  0.00    -0.362 N 
ATOM     24  HN  UNK N   1      18.677  15.828   2.203  1.00  0.00     0.162 HD
HETATM   25  N   UNK N   1      23.356  10.998   5.240  0.00  0.00    -0.355 N 
ATOM     26  HN  UNK N   1      24.275  11.312   5.550  1.00  0.00     0.162 HD
HETATM   27  O   UNK N   1      21.811   8.753   3.139  0.00  0.00    -0.263 OA
HETATM   28  O   UNK N   1      21.098  10.798   2.709  0.00  0.00    -0.310 OA
HETATM   29  S   UNK N   1      24.093  15.107   3.350  0.00  0.00    -0.097 SA
HETATM   30  S   UNK N   1      23.774  14.015   5.184  0.00  0.00    -0.095 SA
ENDROOT
BRANCH  13  31
HETATM   31  C   UNK N   1      20.868  16.693   3.295  0.00  0.00     0.008 C 
HETATM   32  C   UNK N   1      20.241  17.415   2.115  0.00  0.00     0.012 C 
HETATM   33  C   UNK N   1      20.920  17.667   4.463  0.00  0.00     0.012 C 
ENDBRANCH  13  31
BRANCH  17  34
HETATM   34  O   UNK N   1      18.311  16.254   5.000  0.00  0.00    -0.348 OA
HETATM   35  H   UNK N   1      18.236  17.018   5.537  0.00  0.00     0.219 HD
ENDBRANCH  17  34
BRANCH  12  36
HETATM   36  O   UNK N   1      18.194  13.959   0.844  0.00  0.00    -0.349 OA
HETATM   37  H   UNK N   1      17.714  13.217   0.532  0.00  0.00     0.219 HD
ENDBRANCH  12  36
BRANCH  16  38
HETATM   38  O   UNK N   1      20.087  14.092   8.502  0.00  0.00    -0.348 OA
HETATM   39  H   UNK N   1      20.177  14.892   8.982  0.00  0.00     0.219 HD
ENDBRANCH  16  38
BRANCH  15  40
HETATM   40  O   UNK N   1      21.142  10.860   5.839  0.00  0.00    -0.345 OA
HETATM   41  H   UNK N   1      20.216  10.961   5.942  0.00  0.00     0.219 HD
ENDBRANCH  15  40
BRANCH  14  42
HETATM   42  C   UNK N   1      24.381   9.226   4.019  0.00  0.00     0.010 C 
HETATM   43  C   UNK N   1      25.306   9.142   2.815  0.00  0.00     0.012 C 
HETATM   44  C   UNK N   1      25.178   9.242   5.315  0.00  0.00     0.012 C 
ENDBRANCH  14  42
TORSDOF 6
ENDMDL
MODEL 8
REMARK VINA RESULT:      -6.7      1.985      4.499
REMARK  6 active torsions:
REMARK  status: ('A' for Active; 'I' for Inactive)
REMARK    1  A    between atoms: C_19  and  C_13 
REMARK    2  A    between atoms: C_20  and  C_14 
REMARK    3  A    between atoms: C_18  and  O_33 
REMARK    4  A    between atoms: C_21  and  O_34 
REMARK    5  A    between atoms: O_35  and  C_22 
REMARK    6  A    between atoms: C_23  and  O_36 
ROOT
HETATM    1  C   UNK N   1      30.801  20.630 -11.163  0.00  0.00     0.038 C 
HETATM    2  C   UNK N   1      29.536  21.294 -10.718  0.00  0.00     0.003 C 
HETATM    3  C   UNK N   1      26.932  26.340  -7.482  0.00  0.00    -0.027 C 
HETATM    4  C   UNK N   1      27.904  27.392  -7.914  0.00  0.00     0.038 C 
HETATM    5  C   UNK N   1      27.362  25.447  -6.600  0.00  0.00     0.002 C 
HETATM    6  C   UNK N   1      29.001  26.721  -8.785  0.00  0.00     0.090 C 
HETATM    7  C   UNK N   1      26.477  23.868  -4.804  0.00  0.00     0.120 C 
HETATM    8  C   UNK N   1      30.806  22.878  -7.303  0.00  0.00     0.119 C 
HETATM    9  C   UNK N   1      26.725  24.120  -6.298  0.00  0.00     0.162 C 
HETATM   10  C   UNK N   1      29.005  21.056  -9.500  0.00  0.00     0.081 C 
HETATM   11  C   UNK N   1      29.909  21.733  -6.721  0.00  0.00     0.168 C 
HETATM   12  C   UNK N   1      27.360  24.311  -3.640  0.00  0.00     0.114 C 
HETATM   13  C   UNK N   1      29.638  23.800  -4.549  0.00  0.00     0.161 C 
HETATM   14  C   UNK N   1      26.331  23.778  -9.481  0.00  0.00     0.187 C 
HETATM   15  C   UNK N   1      27.743  21.744  -9.073  0.00  0.00     0.163 C 
HETATM   16  C   UNK N   1      30.062  20.381  -7.426  0.00  0.00     0.140 C 
HETATM   17  C   UNK N   1      30.126  22.378  -4.346  0.00  0.00     0.135 C 
HETATM   18  C   UNK N   1      25.320  23.560  -8.322  0.00  0.00     0.282 C 
HETATM   19  N   UNK N   1      29.678  20.144  -8.639  0.00  0.00    -0.336 N 
ATOM     20  HN  UNK N   1      29.876  19.216  -9.012  1.00  0.00     0.168 HD
HETATM   21  N   UNK N   1      30.232  21.523  -5.316  0.00  0.00    -0.360 N 
ATOM     22  HN  UNK N   1      30.580  20.598  -5.065  1.00  0.00     0.162 HD
HETATM   23  N   UNK N   1      28.651  24.186  -3.551  0.00  0.00    -0.362 N 
ATOM     24  HN  UNK N   1      29.037  24.392  -2.630  1.00  0.00     0.162 HD
HETATM   25  N   UNK N   1      27.430  22.847  -9.664  0.00  0.00    -0.355 N 
ATOM     26  HN  UNK N   1      28.080  23.118 -10.402  1.00  0.00     0.162 HD
HETATM   27  O   UNK N   1      24.177  23.252  -8.617  0.00  0.00    -0.263 OA
HETATM   28  O   UNK N   1      25.565  23.807  -6.992  0.00  0.00    -0.310 OA
HETATM   29  S   UNK N   1      30.356  25.871  -7.849  0.00  0.00    -0.097 SA
HETATM   30  S   UNK N   1      30.119  23.898  -8.690  0.00  0.00    -0.095 SA
ENDROOT
BRANCH  13  31
HETATM   31  C   UNK N   1      30.838  24.774  -4.460  0.00  0.00     0.008 C 
HETATM   32  C   UNK N   1      30.731  25.717  -3.274  0.00  0.00     0.012 C 
HETATM   33  C   UNK N   1      32.190  24.081  -4.384  0.00  0.00     0.012 C 
ENDBRANCH  13  31
BRANCH  17  34
HETATM   34  O   UNK N   1      30.510  21.997  -3.112  0.00  0.00    -0.348 OA
HETATM   35  H   UNK N   1      29.908  21.754  -2.436  0.00  0.00     0.219 HD
ENDBRANCH  17  34
BRANCH  12  36
HETATM   36  O   UNK N   1      26.712  24.793  -2.562  0.00  0.00    -0.349 OA
HETATM   37  H   UNK N   1      26.723  25.694  -2.304  0.00  0.00     0.219 HD
ENDBRANCH  12  36
BRANCH  16  38
HETATM   38  O   UNK N   1      30.628  19.366  -6.739  0.00  0.00    -0.348 OA
HETATM   39  H   UNK N   1      31.024  19.432  -5.893  0.00  0.00     0.219 HD
ENDBRANCH  16  38
BRANCH  15  40
HETATM   40  O   UNK N   1      26.978  21.238  -8.087  0.00  0.00    -0.345 OA
HETATM   41  H   UNK N   1      26.803  20.607  -7.418  0.00  0.00     0.219 HD
ENDBRANCH  15  40
BRANCH  14  42
HETATM   42  C   UNK N   1      25.651  23.890 -10.858  0.00  0.00     0.010 C 
HETATM   43  C   UNK N   1      25.259  25.314 -11.223  0.00  0.00     0.012 C 
HETATM   44  C   UNK N   1      26.462  23.248 -11.973  0.00  0.00     0.012 C 
ENDBRANCH  14  42
TORSDOF 6
ENDMDL
MODEL 9
REMARK VINA RESULT:      -6.6     15.235     17.920
REMARK  6 active torsions:
REMARK  status: ('A' for Active; 'I' for Inactive)
REMARK    1  A    between atoms: C_19  and  C_13 
REMARK    2  A    between atoms: C_20  and  C_14 
REMARK    3  A    between atoms: C_18  and  O_33 
REMARK    4  A    between atoms: C_21  and  O_34 
REMARK    5  A    between atoms: O_35  and  C_22 
REMARK    6  A    between atoms: C_23  and  O_36 
ROOT
HETATM    1  C   UNK N   1      27.483  13.534   2.946  0.00  0.00     0.038 C 
HETATM    2  C   UNK N   1      26.648  12.828   3.968  0.00  0.00     0.003 C 
HETATM    3  C   UNK N   1      20.581  11.413   5.943  0.00  0.00    -0.027 C 
HETATM    4  C   UNK N   1      19.959  11.223   4.596  0.00  0.00     0.038 C 
HETATM    5  C   UNK N   1      20.866  12.657   6.306  0.00  0.00     0.002 C 
HETATM    6  C   UNK N   1      21.026  11.538   3.513  0.00  0.00     0.090 C 
HETATM    7  C   UNK N   1      21.193  14.071   8.402  0.00  0.00     0.120 C 
HETATM    8  C   UNK N   1      23.504  15.257   4.018  0.00  0.00     0.119 C 
HETATM    9  C   UNK N   1      21.799  13.068   7.411  0.00  0.00     0.162 C 
HETATM   10  C   UNK N   1      26.173  13.471   5.056  0.00  0.00     0.081 C 
HETATM   11  C   UNK N   1      24.125  15.635   5.406  0.00  0.00     0.168 C 
HETATM   12  C   UNK N   1      20.216  15.200   8.084  0.00  0.00     0.114 C 
HETATM   13  C   UNK N   1      21.204  16.102   5.966  0.00  0.00     0.161 C 
HETATM   14  C   UNK N   1      23.798  10.774   6.342  0.00  0.00     0.187 C 
HETATM   15  C   UNK N   1      25.327  12.744   6.060  0.00  0.00     0.163 C 
HETATM   16  C   UNK N   1      25.647  15.812   5.398  0.00  0.00     0.140 C 
HETATM   17  C   UNK N   1      22.302  17.134   6.136  0.00  0.00     0.135 C 
HETATM   18  C   UNK N   1      23.325  11.090   7.787  0.00  0.00     0.282 C 
HETATM   19  N   UNK N   1      26.492  14.849   5.217  0.00  0.00    -0.336 N 
ATOM     20  HN  UNK N   1      27.479  15.101   5.188  1.00  0.00     0.168 HD
HETATM   21  N   UNK N   1      23.549  16.888   5.876  0.00  0.00    -0.360 N 
ATOM     22  HN  UNK N   1      24.200  17.659   6.019  1.00  0.00     0.162 HD
HETATM   23  N   UNK N   1      20.310  16.061   7.114  0.00  0.00    -0.362 N 
ATOM     24  HN  UNK N   1      19.649  16.836   7.166  1.00  0.00     0.162 HD
HETATM   25  N   UNK N   1      24.711  11.680   5.669  0.00  0.00    -0.355 N 
ATOM     26  HN  UNK N   1      24.902  11.426   4.699  1.00  0.00     0.162 HD
HETATM   27  O   UNK N   1      23.711  10.358   8.683  0.00  0.00    -0.263 OA
HETATM   28  O   UNK N   1      22.403  12.050   8.134  0.00  0.00    -0.310 OA
HETATM   29  S   UNK N   1      21.273  13.335   3.132  0.00  0.00    -0.097 SA
HETATM   30  S   UNK N   1      23.379  13.458   3.584  0.00  0.00    -0.095 SA
ENDROOT
BRANCH  13  31
HETATM   31  C   UNK N   1      20.372  16.439   4.704  0.00  0.00     0.008 C 
HETATM   32  C   UNK N   1      18.898  16.117   4.881  0.00  0.00     0.012 C 
HETATM   33  C   UNK N   1      20.483  17.890   4.262  0.00  0.00     0.012 C 
ENDBRANCH  13  31
BRANCH  17  34
HETATM   34  O   UNK N   1      21.965  18.377   6.533  0.00  0.00    -0.348 OA
HETATM   35  H   UNK N   1      21.405  18.942   6.038  0.00  0.00     0.219 HD
ENDBRANCH  17  34
BRANCH  12  36
HETATM   36  O   UNK N   1      19.209  15.369   8.962  0.00  0.00    -0.349 OA
HETATM   37  H   UNK N   1      18.443  15.881   8.789  0.00  0.00     0.219 HD
ENDBRANCH  12  36
BRANCH  16  38
HETATM   38  O   UNK N   1      26.144  17.051   5.598  0.00  0.00    -0.348 OA
HETATM   39  H   UNK N   1      27.052  17.282   5.598  0.00  0.00     0.219 HD
ENDBRANCH  16  38
BRANCH  15  40
HETATM   40  O   UNK N   1      25.196  13.205   7.318  0.00  0.00    -0.345 OA
HETATM   41  H   UNK N   1      25.153  13.078   8.245  0.00  0.00     0.219 HD
ENDBRANCH  15  40
BRANCH  14  42
HETATM   42  C   UNK N   1      24.431   9.376   6.210  0.00  0.00     0.010 C 
HETATM   43  C   UNK N   1      23.405   8.257   6.112  0.00  0.00     0.012 C 
HETATM   44  C   UNK N   1      25.439   9.287   5.074  0.00  0.00     0.012 C 
ENDBRANCH  14  42
TORSDOF 6
ENDMDL
