MODEL 1
REMARK VINA RESULT:      -4.4      0.000      0.000
REMARK  8 active torsions:
REMARK  status: ('A' for Active; 'I' for Inactive)
REMARK    1  A    between atoms: C_2  and  C_1 
REMARK    2  A    between atoms: N_7  and  C_1 
REMARK    3  A    between atoms: C_3  and  C_2 
REMARK    4  A    between atoms: C_4  and  C_3 
REMARK    5  A    between atoms: C_5  and  C_4 
REMARK    6  A    between atoms: C_9  and  C_4 
REMARK    7  A    between atoms: C_4  and  N_12 
REMARK    8  A    between atoms: O_6  and  C_5 
ROOT
HETATM    1  C   UNK N   1      34.027  16.941   8.714  0.00  0.00     0.169 C 
ENDROOT
BRANCH   1   2
HETATM    2  C   UNK N   1      34.616  15.640   8.130  0.00  0.00     0.049 C 
BRANCH   2   3
HETATM    3  C   UNK N   1      34.567  14.430   9.060  0.00  0.00     0.022 C 
BRANCH   3   4
HETATM    4  C   UNK N   1      33.746  13.298   8.480  0.00  0.00     0.111 C 
BRANCH   4   5
HETATM    5  N   UNK N   1      32.459  13.256   9.153  0.00  0.00    -0.430 N 
HETATM    6  H   UNK N   1      31.643  12.846   8.699  0.00  0.00     0.149 HD
HETATM    7  H   UNK N   1      32.372  13.642  10.092  0.00  0.00     0.149 HD
ENDBRANCH   4   5
ENDBRANCH   3   4
ENDBRANCH   2   3
ENDBRANCH   1   2
BRANCH   1   8
HETATM    8  C   UNK N   1      34.504  18.096   7.861  0.00  0.00     0.174 C 
HETATM    9  O   UNK N   1      35.030  19.070   8.393  0.00  0.00    -0.648 OA
BRANCH   8  10
HETATM   10  O   UNK N   1      34.359  18.082   6.523  0.00  0.00    -0.774 OA
HETATM   11  H   UNK N   1      34.976  17.623   5.989  0.00  0.00     0.167 HD
ENDBRANCH   8  10
ENDBRANCH   1   8
BRANCH   1  12
HETATM   12  C   UNK N   1      32.485  16.910   8.740  0.00  0.00     0.391 C 
HETATM   13  F   UNK N   1      31.965  16.182   7.683  0.00  0.00    -0.211 F 
HETATM   14  F   UNK N   1      31.959  18.191   8.724  0.00  0.00    -0.211 F 
ENDBRANCH   1  12
BRANCH   1  15
HETATM   15  N   UNK N   1      34.512  17.137  10.071  0.00  0.00    -0.409 N 
HETATM   16  H   UNK N   1      34.751  17.814  10.795  0.00  0.00     0.151 HD
HETATM   17  H   UNK N   1      34.682  16.210  10.464  0.00  0.00     0.151 HD
ENDBRANCH   1  15
TORSDOF 8
ENDMDL
MODEL 2
REMARK VINA RESULT:      -4.3      1.486      1.793
REMARK  8 active torsions:
REMARK  status: ('A' for Active; 'I' for Inactive)
REMARK    1  A    between atoms: C_2  and  C_1 
REMARK    2  A    between atoms: N_7  and  C_1 
REMARK    3  A    between atoms: C_3  and  C_2 
REMARK    4  A    between atoms: C_4  and  C_3 
REMARK    5  A    between atoms: C_5  and  C_4 
REMARK    6  A    between atoms: C_9  and  C_4 
REMARK    7  A    between atoms: C_4  and  N_12 
REMARK    8  A    between atoms: O_6  and  C_5 
ROOT
HETATM    1  C   UNK N   1      34.157  16.950   8.793  0.00  0.00     0.169 C 
ENDROOT
BRANCH   1   2
HETATM    2  C   UNK N   1      34.827  15.676   8.238  0.00  0.00     0.049 C 
BRANCH   2   3
HETATM    3  C   UNK N   1      35.189  14.624   9.282  0.00  0.00     0.022 C 
BRANCH   3   4
HETATM    4  C   UNK N   1      36.664  14.280   9.259  0.00  0.00     0.111 C 
BRANCH   4   5
HETATM    5  N   UNK N   1      37.308  14.885  10.412  0.00  0.00    -0.430 N 
HETATM    6  H   UNK N   1      36.874  15.664  10.907  0.00  0.00     0.149 HD
HETATM    7  H   UNK N   1      38.207  14.525  10.730  0.00  0.00     0.149 HD
ENDBRANCH   4   5
ENDBRANCH   3   4
ENDBRANCH   2   3
ENDBRANCH   1   2
BRANCH   1   8
HETATM    8  C   UNK N   1      34.561  18.115   7.914  0.00  0.00     0.174 C 
HETATM    9  O   UNK N   1      35.051  19.119   8.422  0.00  0.00    -0.648 OA
BRANCH   8  10
HETATM   10  O   UNK N   1      34.389  18.075   6.580  0.00  0.00    -0.774 OA
HETATM   11  H   UNK N   1      33.538  18.205   6.212  0.00  0.00     0.167 HD
ENDBRANCH   8  10
ENDBRANCH   1   8
BRANCH   1  12
HETATM   12  C   UNK N   1      32.619  16.822   8.818  0.00  0.00     0.391 C 
HETATM   13  F   UNK N   1      32.154  15.982   7.820  0.00  0.00    -0.211 F 
HETATM   14  F   UNK N   1      32.012  18.061   8.702  0.00  0.00    -0.211 F 
ENDBRANCH   1  12
BRANCH   1  15
HETATM   15  N   UNK N   1      34.625  17.206  10.145  0.00  0.00    -0.409 N 
HETATM   16  H   UNK N   1      35.401  17.523  10.726  0.00  0.00     0.151 HD
HETATM   17  H   UNK N   1      33.857  16.973  10.775  0.00  0.00     0.151 HD
ENDBRANCH   1  15
TORSDOF 8
ENDMDL
MODEL 3
REMARK VINA RESULT:      -4.3      1.802      2.284
REMARK  8 active torsions:
REMARK  status: ('A' for Active; 'I' for Inactive)
REMARK    1  A    between atoms: C_2  and  C_1 
REMARK    2  A    between atoms: N_7  and  C_1 
REMARK    3  A    between atoms: C_3  and  C_2 
REMARK    4  A    between atoms: C_4  and  C_3 
REMARK    5  A    between atoms: C_5  and  C_4 
REMARK    6  A    between atoms: C_9  and  C_4 
REMARK    7  A    between atoms: C_4  and  N_12 
REMARK    8  A    between atoms: O_6  and  C_5 
ROOT
HETATM    1  C   UNK N   1      34.144  16.880   8.696  0.00  0.00     0.169 C 
ENDROOT
BRANCH   1   2
HETATM    2  C   UNK N   1      34.922  15.671   8.138  0.00  0.00     0.049 C 
BRANCH   2   3
HETATM    3  C   UNK N   1      34.157  14.813   7.134  0.00  0.00     0.022 C 
BRANCH   3   4
HETATM    4  C   UNK N   1      34.785  14.850   5.756  0.00  0.00     0.111 C 
BRANCH   4   5
HETATM    5  N   UNK N   1      34.086  15.830   4.945  0.00  0.00    -0.430 N 
HETATM    6  H   UNK N   1      34.474  16.761   4.795  0.00  0.00     0.149 HD
HETATM    7  H   UNK N   1      33.193  15.583   4.518  0.00  0.00     0.149 HD
ENDBRANCH   4   5
ENDBRANCH   3   4
ENDBRANCH   2   3
ENDBRANCH   1   2
BRANCH   1   8
HETATM    8  C   UNK N   1      34.579  18.112   7.932  0.00  0.00     0.174 C 
HETATM    9  O   UNK N   1      34.341  18.199   6.730  0.00  0.00    -0.648 OA
BRANCH   8  10
HETATM   10  O   UNK N   1      35.229  19.119   8.544  0.00  0.00    -0.774 OA
HETATM   11  H   UNK N   1      36.006  18.945   9.037  0.00  0.00     0.167 HD
ENDBRANCH   8  10
ENDBRANCH   1   8
BRANCH   1  12
HETATM   12  C   UNK N   1      32.618  16.691   8.561  0.00  0.00     0.391 C 
HETATM   13  F   UNK N   1      31.933  17.881   8.743  0.00  0.00    -0.211 F 
HETATM   14  F   UNK N   1      32.150  15.745   9.456  0.00  0.00    -0.211 F 
ENDBRANCH   1  12
BRANCH   1  15
HETATM   15  N   UNK N   1      34.467  17.069  10.101  0.00  0.00    -0.409 N 
HETATM   16  H   UNK N   1      35.201  17.259  10.783  0.00  0.00     0.151 HD
HETATM   17  H   UNK N   1      33.595  16.975  10.622  0.00  0.00     0.151 HD
ENDBRANCH   1  15
TORSDOF 8
ENDMDL
MODEL 4
REMARK VINA RESULT:      -4.1      7.508      8.324
REMARK  8 active torsions:
REMARK  status: ('A' for Active; 'I' for Inactive)
REMARK    1  A    between atoms: C_2  and  C_1 
REMARK    2  A    between atoms: N_7  and  C_1 
REMARK    3  A    between atoms: C_3  and  C_2 
REMARK    4  A    between atoms: C_4  and  C_3 
REMARK    5  A    between atoms: C_5  and  C_4 
REMARK    6  A    between atoms: C_9  and  C_4 
REMARK    7  A    between atoms: C_4  and  N_12 
REMARK    8  A    between atoms: O_6  and  C_5 
ROOT
HETATM    1  C   UNK N   1      26.648  19.856   5.434  0.00  0.00     0.169 C 
ENDROOT
BRANCH   1   2
HETATM    2  C   UNK N   1      27.961  19.071   5.627  0.00  0.00     0.049 C 
BRANCH   2   3
HETATM    3  C   UNK N   1      27.902  17.951   6.662  0.00  0.00     0.022 C 
BRANCH   3   4
HETATM    4  C   UNK N   1      28.621  18.318   7.943  0.00  0.00     0.111 C 
BRANCH   4   5
HETATM    5  N   UNK N   1      27.640  18.533   8.991  0.00  0.00    -0.430 N 
HETATM    6  H   UNK N   1      27.665  19.373   9.569  0.00  0.00     0.149 HD
HETATM    7  H   UNK N   1      26.915  17.834   9.151  0.00  0.00     0.149 HD
ENDBRANCH   4   5
ENDBRANCH   3   4
ENDBRANCH   2   3
ENDBRANCH   1   2
BRANCH   1   8
HETATM    8  C   UNK N   1      26.606  20.964   6.465  0.00  0.00     0.174 C 
HETATM    9  O   UNK N   1      27.153  22.038   6.227  0.00  0.00    -0.648 OA
BRANCH   8  10
HETATM   10  O   UNK N   1      25.983  20.796   7.645  0.00  0.00    -0.774 OA
HETATM   11  H   UNK N   1      25.200  20.284   7.694  0.00  0.00     0.167 HD
ENDBRANCH   8  10
ENDBRANCH   1   8
BRANCH   1  12
HETATM   12  C   UNK N   1      26.543  20.456   4.016  0.00  0.00     0.391 C 
HETATM   13  F   UNK N   1      25.392  20.045   3.365  0.00  0.00    -0.211 F 
HETATM   14  F   UNK N   1      27.650  20.129   3.252  0.00  0.00    -0.211 F 
ENDBRANCH   1  12
BRANCH   1  15
HETATM   15  N   UNK N   1      25.509  18.978   5.653  0.00  0.00    -0.409 N 
HETATM   16  H   UNK N   1      25.182  18.014   5.704  0.00  0.00     0.151 HD
HETATM   17  H   UNK N   1      24.702  19.576   5.832  0.00  0.00     0.151 HD
ENDBRANCH   1  15
TORSDOF 8
ENDMDL
MODEL 5
REMARK VINA RESULT:      -4.1      1.829      2.427
REMARK  8 active torsions:
REMARK  status: ('A' for Active; 'I' for Inactive)
REMARK    1  A    between atoms: C_2  and  C_1 
REMARK    2  A    between atoms: N_7  and  C_1 
REMARK    3  A    between atoms: C_3  and  C_2 
REMARK    4  A    between atoms: C_4  and  C_3 
REMARK    5  A    between atoms: C_5  and  C_4 
REMARK    6  A    between atoms: C_9  and  C_4 
REMARK    7  A    between atoms: C_4  and  N_12 
REMARK    8  A    between atoms: O_6  and  C_5 
ROOT
HETATM    1  C   UNK N   1      32.897  16.810   7.792  0.00  0.00     0.169 C 
ENDROOT
BRANCH   1   2
HETATM    2  C   UNK N   1      33.673  15.571   8.282  0.00  0.00     0.049 C 
BRANCH   2   3
HETATM    3  C   UNK N   1      33.717  15.387   9.797  0.00  0.00     0.022 C 
BRANCH   3   4
HETATM    4  C   UNK N   1      35.078  15.713  10.372  0.00  0.00     0.111 C 
BRANCH   4   5
HETATM    5  N   UNK N   1      35.124  17.126  10.706  0.00  0.00    -0.430 N 
HETATM    6  H   UNK N   1      35.787  17.752  10.249  0.00  0.00     0.149 HD
HETATM    7  H   UNK N   1      34.484  17.497  11.407  0.00  0.00     0.149 HD
ENDBRANCH   4   5
ENDBRANCH   3   4
ENDBRANCH   2   3
ENDBRANCH   1   2
BRANCH   1   8
HETATM    8  C   UNK N   1      33.897  17.800   7.232  0.00  0.00     0.174 C 
HETATM    9  O   UNK N   1      34.506  18.547   7.992  0.00  0.00    -0.648 OA
BRANCH   8  10
HETATM   10  O   UNK N   1      34.131  17.881   5.909  0.00  0.00    -0.774 OA
HETATM   11  H   UNK N   1      33.600  17.398   5.308  0.00  0.00     0.167 HD
ENDBRANCH   8  10
ENDBRANCH   1   8
BRANCH   1  12
HETATM   12  C   UNK N   1      31.859  16.445   6.710  0.00  0.00     0.391 C 
HETATM   13  F   UNK N   1      30.874  17.411   6.594  0.00  0.00    -0.211 F 
HETATM   14  F   UNK N   1      31.277  15.217   6.971  0.00  0.00    -0.211 F 
ENDBRANCH   1  12
BRANCH   1  15
HETATM   15  N   UNK N   1      32.206  17.434   8.909  0.00  0.00    -0.409 N 
HETATM   16  H   UNK N   1      32.303  17.890   9.816  0.00  0.00     0.151 HD
HETATM   17  H   UNK N   1      31.209  17.404   8.696  0.00  0.00     0.151 HD
ENDBRANCH   1  15
TORSDOF 8
ENDMDL
MODEL 6
REMARK VINA RESULT:      -4.1     12.098     13.174
REMARK  8 active torsions:
REMARK  status: ('A' for Active; 'I' for Inactive)
REMARK    1  A    between atoms: C_2  and  C_1 
REMARK    2  A    between atoms: N_7  and  C_1 
REMARK    3  A    between atoms: C_3  and  C_2 
REMARK    4  A    between atoms: C_4  and  C_3 
REMARK    5  A    between atoms: C_5  and  C_4 
REMARK    6  A    between atoms: C_9  and  C_4 
REMARK    7  A    between atoms: C_4  and  N_12 
REMARK    8  A    between atoms: O_6  and  C_5 
ROOT
HETATM    1  C   UNK N   1      43.724  22.813   3.166  0.00  0.00     0.169 C 
ENDROOT
BRANCH   1   2
HETATM    2  C   UNK N   1      42.448  21.994   2.888  0.00  0.00     0.049 C 
BRANCH   2   3
HETATM    3  C   UNK N   1      41.473  22.625   1.897  0.00  0.00     0.022 C 
BRANCH   3   4
HETATM    4  C   UNK N   1      40.397  21.654   1.458  0.00  0.00     0.111 C 
BRANCH   4   5
HETATM    5  N   UNK N   1      39.803  21.045   2.634  0.00  0.00    -0.430 N 
HETATM    6  H   UNK N   1      38.795  21.073   2.788  0.00  0.00     0.149 HD
HETATM    7  H   UNK N   1      40.402  20.582   3.317  0.00  0.00     0.149 HD
ENDBRANCH   4   5
ENDBRANCH   3   4
ENDBRANCH   2   3
ENDBRANCH   1   2
BRANCH   1   8
HETATM    8  C   UNK N   1      44.781  21.870   3.702  0.00  0.00     0.174 C 
HETATM    9  O   UNK N   1      44.607  20.657   3.629  0.00  0.00    -0.648 OA
BRANCH   8  10
HETATM   10  O   UNK N   1      45.911  22.336   4.264  0.00  0.00    -0.774 OA
HETATM   11  H   UNK N   1      46.654  22.536   3.729  0.00  0.00     0.167 HD
ENDBRANCH   8  10
ENDBRANCH   1   8
BRANCH   1  12
HETATM   12  C   UNK N   1      44.244  23.513   1.893  0.00  0.00     0.391 C 
HETATM   13  F   UNK N   1      44.932  22.640   1.068  0.00  0.00    -0.211 F 
HETATM   14  F   UNK N   1      45.057  24.588   2.210  0.00  0.00    -0.211 F 
ENDBRANCH   1  12
BRANCH   1  15
HETATM   15  N   UNK N   1      43.452  23.824   4.176  0.00  0.00    -0.409 N 
HETATM   16  H   UNK N   1      43.141  24.779   4.356  0.00  0.00     0.151 HD
HETATM   17  H   UNK N   1      43.655  23.402   5.082  0.00  0.00     0.151 HD
ENDBRANCH   1  15
TORSDOF 8
ENDMDL
MODEL 7
REMARK VINA RESULT:      -4.0     14.474     15.174
REMARK  8 active torsions:
REMARK  status: ('A' for Active; 'I' for Inactive)
REMARK    1  A    between atoms: C_2  and  C_1 
REMARK    2  A    between atoms: N_7  and  C_1 
REMARK    3  A    between atoms: C_3  and  C_2 
REMARK    4  A    between atoms: C_4  and  C_3 
REMARK    5  A    between atoms: C_5  and  C_4 
REMARK    6  A    between atoms: C_9  and  C_4 
REMARK    7  A    between atoms: C_4  and  N_12 
REMARK    8  A    between atoms: O_6  and  C_5 
ROOT
HETATM    1  C   UNK N   1      20.121  18.167   1.771  0.00  0.00     0.169 C 
ENDROOT
BRANCH   1   2
HETATM    2  C   UNK N   1      20.929  17.604   2.958  0.00  0.00     0.049 C 
BRANCH   2   3
HETATM    3  C   UNK N   1      20.094  16.990   4.079  0.00  0.00     0.022 C 
BRANCH   3   4
HETATM    4  C   UNK N   1      20.225  15.482   4.128  0.00  0.00     0.111 C 
BRANCH   4   5
HETATM    5  N   UNK N   1      19.241  14.894   3.237  0.00  0.00    -0.430 N 
HETATM    6  H   UNK N   1      18.528  14.255   3.589  0.00  0.00     0.149 HD
HETATM    7  H   UNK N   1      19.263  15.124   2.243  0.00  0.00     0.149 HD
ENDBRANCH   4   5
ENDBRANCH   3   4
ENDBRANCH   2   3
ENDBRANCH   1   2
BRANCH   1   8
HETATM    8  C   UNK N   1      20.718  19.505   1.389  0.00  0.00     0.174 C 
HETATM    9  O   UNK N   1      21.254  20.200   2.247  0.00  0.00    -0.648 OA
BRANCH   8  10
HETATM   10  O   UNK N   1      20.669  19.954   0.121  0.00  0.00    -0.774 OA
HETATM   11  H   UNK N   1      20.817  20.861  -0.061  0.00  0.00     0.167 HD
ENDBRANCH   8  10
ENDBRANCH   1   8
BRANCH   1  12
HETATM   12  C   UNK N   1      20.151  17.215   0.556  0.00  0.00     0.391 C 
HETATM   13  F   UNK N   1      18.881  16.787   0.204  0.00  0.00    -0.211 F 
HETATM   14  F   UNK N   1      20.958  16.117   0.800  0.00  0.00    -0.211 F 
ENDBRANCH   1  12
BRANCH   1  15
HETATM   15  N   UNK N   1      18.738  18.373   2.167  0.00  0.00    -0.409 N 
HETATM   16  H   UNK N   1      18.100  18.595   2.932  0.00  0.00     0.151 HD
HETATM   17  H   UNK N   1      18.166  18.245   1.332  0.00  0.00     0.151 HD
ENDBRANCH   1  15
TORSDOF 8
ENDMDL
MODEL 8
REMARK VINA RESULT:      -3.9     14.332     15.286
REMARK  8 active torsions:
REMARK  status: ('A' for Active; 'I' for Inactive)
REMARK    1  A    between atoms: C_2  and  C_1 
REMARK    2  A    between atoms: N_7  and  C_1 
REMARK    3  A    between atoms: C_3  and  C_2 
REMARK    4  A    between atoms: C_4  and  C_3 
REMARK    5  A    between atoms: C_5  and  C_4 
REMARK    6  A    between atoms: C_9  and  C_4 
REMARK    7  A    between atoms: C_4  and  N_12 
REMARK    8  A    between atoms: O_6  and  C_5 
ROOT
HETATM    1  C   UNK N   1      20.381  17.262   2.318  0.00  0.00     0.169 C 
ENDROOT
BRANCH   1   2
HETATM    2  C   UNK N   1      21.125  18.612   2.354  0.00  0.00     0.049 C 
BRANCH   2   3
HETATM    3  C   UNK N   1      20.244  19.833   2.606  0.00  0.00     0.022 C 
BRANCH   3   4
HETATM    4  C   UNK N   1      20.694  21.037   1.805  0.00  0.00     0.111 C 
BRANCH   4   5
HETATM    5  N   UNK N   1      20.502  20.762   0.393  0.00  0.00    -0.430 N 
HETATM    6  H   UNK N   1      20.762  21.449  -0.316  0.00  0.00     0.149 HD
HETATM    7  H   UNK N   1      20.101  19.870   0.104  0.00  0.00     0.149 HD
ENDBRANCH   4   5
ENDBRANCH   3   4
ENDBRANCH   2   3
ENDBRANCH   1   2
BRANCH   1   8
HETATM    8  C   UNK N   1      20.010  16.968   0.879  0.00  0.00     0.174 C 
HETATM    9  O   UNK N   1      19.387  15.945   0.608  0.00  0.00    -0.648 OA
BRANCH   8  10
HETATM   10  O   UNK N   1      20.355  17.806  -0.115  0.00  0.00    -0.774 OA
HETATM   11  H   UNK N   1      20.990  17.543  -0.752  0.00  0.00     0.167 HD
ENDBRANCH   8  10
ENDBRANCH   1   8
BRANCH   1  12
HETATM   12  C   UNK N   1      21.248  16.115   2.880  0.00  0.00     0.391 C 
HETATM   13  F   UNK N   1      22.048  16.539   3.927  0.00  0.00    -0.211 F 
HETATM   14  F   UNK N   1      22.037  15.554   1.891  0.00  0.00    -0.211 F 
ENDBRANCH   1  12
BRANCH   1  15
HETATM   15  N   UNK N   1      19.159  17.349   3.101  0.00  0.00    -0.409 N 
HETATM   16  H   UNK N   1      18.379  16.837   3.512  0.00  0.00     0.151 HD
HETATM   17  H   UNK N   1      19.029  18.331   3.342  0.00  0.00     0.151 HD
ENDBRANCH   1  15
TORSDOF 8
ENDMDL
MODEL 9
REMARK VINA RESULT:      -3.9     17.987     19.128
REMARK  8 active torsions:
REMARK  status: ('A' for Active; 'I' for Inactive)
REMARK    1  A    between atoms: C_2  and  C_1 
REMARK    2  A    between atoms: N_7  and  C_1 
REMARK    3  A    between atoms: C_3  and  C_2 
REMARK    4  A    between atoms: C_4  and  C_3 
REMARK    5  A    between atoms: C_5  and  C_4 
REMARK    6  A    between atoms: C_9  and  C_4 
REMARK    7  A    between atoms: C_4  and  N_12 
REMARK    8  A    between atoms: O_6  and  C_5 
ROOT
HETATM    1  C   UNK N   1      26.905  26.878  -5.016  0.00  0.00     0.169 C 
ENDROOT
BRANCH   1   2
HETATM    2  C   UNK N   1      27.869  28.062  -4.803  0.00  0.00     0.049 C 
BRANCH   2   3
HETATM    3  C   UNK N   1      27.450  29.370  -5.469  0.00  0.00     0.022 C 
BRANCH   3   4
HETATM    4  C   UNK N   1      27.274  30.490  -4.466  0.00  0.00     0.111 C 
BRANCH   4   5
HETATM    5  N   UNK N   1      26.094  30.224  -3.663  0.00  0.00    -0.430 N 
HETATM    6  H   UNK N   1      25.392  29.550  -3.968  0.00  0.00     0.149 HD
HETATM    7  H   UNK N   1      25.966  30.718  -2.780  0.00  0.00     0.149 HD
ENDBRANCH   4   5
ENDBRANCH   3   4
ENDBRANCH   2   3
ENDBRANCH   1   2
BRANCH   1   8
HETATM    8  C   UNK N   1      26.365  26.462  -3.664  0.00  0.00     0.174 C 
HETATM    9  O   UNK N   1      26.244  25.270  -3.397  0.00  0.00    -0.648 OA
BRANCH   8  10
HETATM   10  O   UNK N   1      26.008  27.377  -2.744  0.00  0.00    -0.774 OA
HETATM   11  H   UNK N   1      26.629  28.012  -2.448  0.00  0.00     0.167 HD
ENDBRANCH   8  10
ENDBRANCH   1   8
BRANCH   1  12
HETATM   12  C   UNK N   1      25.738  27.251  -5.954  0.00  0.00     0.391 C 
HETATM   13  F   UNK N   1      24.517  27.207  -5.302  0.00  0.00    -0.211 F 
HETATM   14  F   UNK N   1      25.702  26.422  -7.062  0.00  0.00    -0.211 F 
ENDBRANCH   1  12
BRANCH   1  15
HETATM   15  N   UNK N   1      27.624  25.753  -5.592  0.00  0.00    -0.409 N 
HETATM   16  H   UNK N   1      27.699  24.737  -5.653  0.00  0.00     0.151 HD
HETATM   17  H   UNK N   1      28.359  26.141  -6.184  0.00  0.00     0.151 HD
ENDBRANCH   1  15
TORSDOF 8
ENDMDL
