MODEL 1
REMARK VINA RESULT:      -7.4      0.000      0.000
REMARK  10 active torsions:
REMARK  status: ('A' for Active; 'I' for Inactive)
REMARK    1  A    between atoms: C_1  and  C_8 
REMARK    2  A    between atoms: C_2  and  O_10 
REMARK    3  A    between atoms: C_3  and  O_11 
REMARK    4  A    between atoms: C_4  and  O_9 
REMARK    5  A    between atoms: C_5  and  C_7 
REMARK    6  A    between atoms: C_8  and  O_12 
REMARK    7  A    between atoms: C_14  and  C_19 
REMARK    8  A    between atoms: C_19  and  C_20 
REMARK    9  A    between atoms: C_23  and  O_26 
REMARK   10  A    between atoms: O_26  and  C_27 
ROOT
HETATM    1  C   UNK N   1      29.427  17.419   6.520  0.00  0.00    -0.026 A 
HETATM    2  C   UNK N   1      28.884  17.975   5.355  0.00  0.00     0.019 A 
HETATM    3  C   UNK N   1      28.049  19.092   5.417  0.00  0.00    -0.032 A 
HETATM    4  C   UNK N   1      27.741  19.661   6.671  0.00  0.00     0.040 A 
HETATM    5  C   UNK N   1      28.260  19.091   7.837  0.00  0.00     0.025 A 
HETATM    6  C   UNK N   1      29.104  17.982   7.762  0.00  0.00     0.011 A 
HETATM    7 Cl   UNK N   1      26.745  21.103   6.817  0.00  0.00    -0.084 Cl
ENDROOT
BRANCH   1   8
HETATM    8  C   UNK N   1      30.404  16.271   6.413  0.00  0.00     0.186 C 
HETATM    9  C   UNK N   1      30.812  16.031   4.935  0.00  0.00     0.182 C 
HETATM   10  C   UNK N   1      32.245  15.522   4.865  0.00  0.00     0.181 C 
HETATM   11  C   UNK N   1      33.195  16.519   5.535  0.00  0.00     0.180 C 
HETATM   12  C   UNK N   1      32.473  17.243   6.689  0.00  0.00     0.177 C 
HETATM   13  O   UNK N   1      31.517  16.402   7.298  0.00  0.00    -0.368 OA
BRANCH   9  14
HETATM   14  O   UNK N   1      29.933  15.122   4.345  0.00  0.00    -0.390 OA
HETATM   15  H   UNK N   1      30.111  14.174   4.248  0.00  0.00     0.210 HD
ENDBRANCH   9  14
BRANCH  10  16
HETATM   16  O   UNK N   1      32.633  15.310   3.541  0.00  0.00    -0.390 OA
HETATM   17  H   UNK N   1      32.667  15.924   2.790  0.00  0.00     0.210 HD
ENDBRANCH  10  16
BRANCH  11  18
HETATM   18  O   UNK N   1      34.324  15.829   5.980  0.00  0.00    -0.390 OA
HETATM   19  H   UNK N   1      34.426  14.864   5.983  0.00  0.00     0.210 HD
ENDBRANCH  11  18
BRANCH  12  20
HETATM   20  C   UNK N   1      33.423  17.862   7.704  0.00  0.00     0.198 C 
BRANCH  20  21
HETATM   21  O   UNK N   1      34.587  18.296   7.070  0.00  0.00    -0.398 OA
HETATM   22  H   UNK N   1      34.542  18.856   6.279  0.00  0.00     0.209 HD
ENDBRANCH  20  21
ENDBRANCH  12  20
ENDBRANCH   1   8
BRANCH   3  23
HETATM   23  C   UNK N   1      27.578  19.698   4.126  0.00  0.00     0.078 C 
BRANCH  23  24
HETATM   24  C   UNK N   1      26.106  19.625   3.850  0.00  0.00    -0.054 A 
HETATM   25  C   UNK N   1      25.535  20.632   3.068  0.00  0.00     0.010 A 
HETATM   26  C   UNK N   1      24.161  20.646   2.830  0.00  0.00     0.037 A 
HETATM   27  C   UNK N   1      23.338  19.645   3.374  0.00  0.00     0.068 A 
HETATM   28  C   UNK N   1      23.913  18.624   4.138  0.00  0.00     0.037 A 
HETATM   29  C   UNK N   1      25.291  18.613   4.377  0.00  0.00     0.010 A 
BRANCH  27  30
HETATM   30  O   UNK N   1      21.997  19.660   3.195  0.00  0.00    -0.352 OA
BRANCH  30  31
HETATM   31  C   UNK N   1      21.330  20.713   2.610  0.00  0.00     0.171 C 
HETATM   32  C   UNK N   1      20.916  20.329   1.204  0.00  0.00     0.034 C 
ENDBRANCH  30  31
ENDBRANCH  27  30
ENDBRANCH  23  24
ENDBRANCH   3  23
TORSDOF 10
ENDMDL
MODEL 2
REMARK VINA RESULT:      -7.1     10.167     12.228
REMARK  10 active torsions:
REMARK  status: ('A' for Active; 'I' for Inactive)
REMARK    1  A    between atoms: C_1  and  C_8 
REMARK    2  A    between atoms: C_2  and  O_10 
REMARK    3  A    between atoms: C_3  and  O_11 
REMARK    4  A    between atoms: C_4  and  O_9 
REMARK    5  A    between atoms: C_5  and  C_7 
REMARK    6  A    between atoms: C_8  and  O_12 
REMARK    7  A    between atoms: C_14  and  C_19 
REMARK    8  A    between atoms: C_19  and  C_20 
REMARK    9  A    between atoms: C_23  and  O_26 
REMARK   10  A    between atoms: O_26  and  C_27 
ROOT
HETATM    1  C   UNK N   1      29.222  22.792  -6.012  0.00  0.00    -0.026 A 
HETATM    2  C   UNK N   1      28.023  23.510  -5.926  0.00  0.00     0.019 A 
HETATM    3  C   UNK N   1      26.921  23.162  -6.709  0.00  0.00    -0.032 A 
HETATM    4  C   UNK N   1      27.022  22.077  -7.606  0.00  0.00     0.040 A 
HETATM    5  C   UNK N   1      28.226  21.376  -7.713  0.00  0.00     0.025 A 
HETATM    6  C   UNK N   1      29.318  21.726  -6.917  0.00  0.00     0.011 A 
HETATM    7 Cl   UNK N   1      25.656  21.547  -8.579  0.00  0.00    -0.084 Cl
ENDROOT
BRANCH   1   8
HETATM    8  C   UNK N   1      30.364  23.132  -5.082  0.00  0.00     0.186 C 
HETATM    9  C   UNK N   1      29.847  23.368  -3.639  0.00  0.00     0.182 C 
HETATM   10  C   UNK N   1      30.899  22.932  -2.629  0.00  0.00     0.181 C 
HETATM   11  C   UNK N   1      31.260  21.458  -2.843  0.00  0.00     0.180 C 
HETATM   12  C   UNK N   1      31.130  21.094  -4.335  0.00  0.00     0.177 C 
HETATM   13  O   UNK N   1      31.441  22.198  -5.157  0.00  0.00    -0.368 OA
BRANCH   9  14
HETATM   14  O   UNK N   1      29.523  24.715  -3.468  0.00  0.00    -0.390 OA
HETATM   15  H   UNK N   1      30.063  25.452  -3.791  0.00  0.00     0.210 HD
ENDBRANCH   9  14
BRANCH  10  16
HETATM   16  O   UNK N   1      30.446  23.127  -1.323  0.00  0.00    -0.390 OA
HETATM   17  H   UNK N   1      30.913  23.453  -0.538  0.00  0.00     0.210 HD
ENDBRANCH  10  16
BRANCH  11  18
HETATM   18  O   UNK N   1      32.554  21.243  -2.365  0.00  0.00    -0.390 OA
HETATM   19  H   UNK N   1      33.369  21.526  -2.808  0.00  0.00     0.210 HD
ENDBRANCH  11  18
BRANCH  12  20
HETATM   20  C   UNK N   1      31.914  19.849  -4.724  0.00  0.00     0.198 C 
BRANCH  20  21
HETATM   21  O   UNK N   1      33.271  20.150  -4.832  0.00  0.00    -0.398 OA
HETATM   22  H   UNK N   1      33.569  20.940  -5.310  0.00  0.00     0.209 HD
ENDBRANCH  20  21
ENDBRANCH  12  20
ENDBRANCH   1   8
BRANCH   3  23
HETATM   23  C   UNK N   1      25.637  23.910  -6.499  0.00  0.00     0.078 C 
BRANCH  23  24
HETATM   24  C   UNK N   1      25.683  25.067  -5.547  0.00  0.00    -0.054 A 
HETATM   25  C   UNK N   1      25.216  26.304  -5.994  0.00  0.00     0.010 A 
HETATM   26  C   UNK N   1      25.292  27.427  -5.171  0.00  0.00     0.037 A 
HETATM   27  C   UNK N   1      25.839  27.322  -3.880  0.00  0.00     0.068 A 
HETATM   28  C   UNK N   1      26.286  26.079  -3.423  0.00  0.00     0.037 A 
HETATM   29  C   UNK N   1      26.211  24.955  -4.251  0.00  0.00     0.010 A 
BRANCH  27  30
HETATM   30  O   UNK N   1      25.965  28.405  -3.077  0.00  0.00    -0.352 OA
BRANCH  30  31
HETATM   31  C   UNK N   1      26.677  29.527  -3.438  0.00  0.00     0.171 C 
HETATM   32  C   UNK N   1      27.911  29.644  -2.566  0.00  0.00     0.034 C 
ENDBRANCH  30  31
ENDBRANCH  27  30
ENDBRANCH  23  24
ENDBRANCH   3  23
TORSDOF 10
ENDMDL
MODEL 3
REMARK VINA RESULT:      -7.1      6.708     10.427
REMARK  10 active torsions:
REMARK  status: ('A' for Active; 'I' for Inactive)
REMARK    1  A    between atoms: C_1  and  C_8 
REMARK    2  A    between atoms: C_2  and  O_10 
REMARK    3  A    between atoms: C_3  and  O_11 
REMARK    4  A    between atoms: C_4  and  O_9 
REMARK    5  A    between atoms: C_5  and  C_7 
REMARK    6  A    between atoms: C_8  and  O_12 
REMARK    7  A    between atoms: C_14  and  C_19 
REMARK    8  A    between atoms: C_19  and  C_20 
REMARK    9  A    between atoms: C_23  and  O_26 
REMARK   10  A    between atoms: O_26  and  C_27 
ROOT
HETATM    1  C   UNK N   1      22.217  16.832   4.321  0.00  0.00    -0.026 A 
HETATM    2  C   UNK N   1      21.347  16.140   5.172  0.00  0.00     0.019 A 
HETATM    3  C   UNK N   1      21.186  14.757   5.059  0.00  0.00    -0.032 A 
HETATM    4  C   UNK N   1      21.902  14.052   4.069  0.00  0.00     0.040 A 
HETATM    5  C   UNK N   1      22.750  14.746   3.202  0.00  0.00     0.025 A 
HETATM    6  C   UNK N   1      22.913  16.126   3.330  0.00  0.00     0.011 A 
HETATM    7 Cl   UNK N   1      21.792  12.304   3.911  0.00  0.00    -0.084 Cl
ENDROOT
BRANCH   1   8
HETATM    8  C   UNK N   1      22.444  18.312   4.530  0.00  0.00     0.186 C 
HETATM    9  C   UNK N   1      23.585  18.829   3.615  0.00  0.00     0.182 C 
HETATM   10  C   UNK N   1      23.320  20.273   3.213  0.00  0.00     0.181 C 
HETATM   11  C   UNK N   1      21.963  20.386   2.509  0.00  0.00     0.180 C 
HETATM   12  C   UNK N   1      20.986  19.335   3.071  0.00  0.00     0.177 C 
HETATM   13  O   UNK N   1      21.243  19.079   4.435  0.00  0.00    -0.368 OA
BRANCH   9  14
HETATM   14  O   UNK N   1      24.809  18.714   4.275  0.00  0.00    -0.390 OA
HETATM   15  H   UNK N   1      25.434  19.446   4.400  0.00  0.00     0.210 HD
ENDBRANCH   9  14
BRANCH  10  16
HETATM   16  O   UNK N   1      24.331  20.752   2.379  0.00  0.00    -0.390 OA
HETATM   17  H   UNK N   1      24.277  21.242   1.544  0.00  0.00     0.210 HD
ENDBRANCH  10  16
BRANCH  11  18
HETATM   18  O   UNK N   1      21.482  21.686   2.676  0.00  0.00    -0.390 OA
HETATM   19  H   UNK N   1      21.051  22.217   1.987  0.00  0.00     0.210 HD
ENDBRANCH  11  18
BRANCH  12  20
HETATM   20  C   UNK N   1      19.524  19.670   2.816  0.00  0.00     0.198 C 
BRANCH  20  21
HETATM   21  O   UNK N   1      18.795  18.501   2.597  0.00  0.00    -0.398 OA
HETATM   22  H   UNK N   1      17.944  18.357   3.039  0.00  0.00     0.209 HD
ENDBRANCH  20  21
ENDBRANCH  12  20
ENDBRANCH   1   8
BRANCH   3  23
HETATM   23  C   UNK N   1      20.313  14.062   6.063  0.00  0.00     0.078 C 
BRANCH  23  24
HETATM   24  C   UNK N   1      20.968  13.649   7.348  0.00  0.00    -0.054 A 
HETATM   25  C   UNK N   1      20.742  14.434   8.481  0.00  0.00     0.010 A 
HETATM   26  C   UNK N   1      21.374  14.131   9.686  0.00  0.00     0.037 A 
HETATM   27  C   UNK N   1      22.243  13.030   9.772  0.00  0.00     0.068 A 
HETATM   28  C   UNK N   1      22.452  12.230   8.645  0.00  0.00     0.037 A 
HETATM   29  C   UNK N   1      21.819  12.537   7.436  0.00  0.00     0.010 A 
BRANCH  27  30
HETATM   30  O   UNK N   1      22.903  12.740  10.918  0.00  0.00    -0.352 OA
BRANCH  30  31
HETATM   31  C   UNK N   1      22.374  11.937  11.904  0.00  0.00     0.171 C 
HETATM   32  C   UNK N   1      23.276  11.974  13.122  0.00  0.00     0.034 C 
ENDBRANCH  30  31
ENDBRANCH  27  30
ENDBRANCH  23  24
ENDBRANCH   3  23
TORSDOF 10
ENDMDL
MODEL 4
REMARK VINA RESULT:      -7.1     10.507     12.389
REMARK  10 active torsions:
REMARK  status: ('A' for Active; 'I' for Inactive)
REMARK    1  A    between atoms: C_1  and  C_8 
REMARK    2  A    between atoms: C_2  and  O_10 
REMARK    3  A    between atoms: C_3  and  O_11 
REMARK    4  A    between atoms: C_4  and  O_9 
REMARK    5  A    between atoms: C_5  and  C_7 
REMARK    6  A    between atoms: C_8  and  O_12 
REMARK    7  A    between atoms: C_14  and  C_19 
REMARK    8  A    between atoms: C_19  and  C_20 
REMARK    9  A    between atoms: C_23  and  O_26 
REMARK   10  A    between atoms: O_26  and  C_27 
ROOT
HETATM    1  C   UNK N   1      29.653  22.295  -6.532  0.00  0.00    -0.026 A 
HETATM    2  C   UNK N   1      28.390  22.663  -6.055  0.00  0.00     0.019 A 
HETATM    3  C   UNK N   1      27.543  23.469  -6.818  0.00  0.00    -0.032 A 
HETATM    4  C   UNK N   1      27.971  23.925  -8.083  0.00  0.00     0.040 A 
HETATM    5  C   UNK N   1      29.242  23.581  -8.549  0.00  0.00     0.025 A 
HETATM    6  C   UNK N   1      30.076  22.765  -7.783  0.00  0.00     0.011 A 
HETATM    7 Cl   UNK N   1      26.932  24.893  -9.121  0.00  0.00    -0.084 Cl
ENDROOT
BRANCH   1   8
HETATM    8  C   UNK N   1      30.507  21.344  -5.726  0.00  0.00     0.186 C 
HETATM    9  C   UNK N   1      32.008  21.725  -5.832  0.00  0.00     0.182 C 
HETATM   10  C   UNK N   1      32.729  21.374  -4.539  0.00  0.00     0.181 C 
HETATM   11  C   UNK N   1      32.070  22.088  -3.354  0.00  0.00     0.180 C 
HETATM   12  C   UNK N   1      30.560  22.257  -3.613  0.00  0.00     0.177 C 
HETATM   13  O   UNK N   1      30.052  21.187  -4.381  0.00  0.00    -0.368 OA
BRANCH   9  14
HETATM   14  O   UNK N   1      32.586  21.066  -6.918  0.00  0.00    -0.390 OA
HETATM   15  H   UNK N   1      32.109  20.823  -7.727  0.00  0.00     0.210 HD
ENDBRANCH   9  14
BRANCH  10  16
HETATM   16  O   UNK N   1      34.079  21.721  -4.612  0.00  0.00    -0.390 OA
HETATM   17  H   UNK N   1      34.697  21.688  -5.359  0.00  0.00     0.210 HD
ENDBRANCH  10  16
BRANCH  11  18
HETATM   18  O   UNK N   1      32.319  21.351  -2.195  0.00  0.00    -0.390 OA
HETATM   19  H   UNK N   1      32.002  20.450  -2.025  0.00  0.00     0.210 HD
ENDBRANCH  11  18
BRANCH  12  20
HETATM   20  C   UNK N   1      29.750  22.489  -2.346  0.00  0.00     0.198 C 
BRANCH  20  21
HETATM   21  O   UNK N   1      30.512  23.187  -1.410  0.00  0.00    -0.398 OA
HETATM   22  H   UNK N   1      30.825  24.086  -1.595  0.00  0.00     0.209 HD
ENDBRANCH  20  21
ENDBRANCH  12  20
ENDBRANCH   1   8
BRANCH   3  23
HETATM   23  C   UNK N   1      26.164  23.747  -6.291  0.00  0.00     0.078 C 
BRANCH  23  24
HETATM   24  C   UNK N   1      26.010  24.964  -5.429  0.00  0.00    -0.054 A 
HETATM   25  C   UNK N   1      25.362  26.075  -5.973  0.00  0.00     0.010 A 
HETATM   26  C   UNK N   1      25.245  27.254  -5.236  0.00  0.00     0.037 A 
HETATM   27  C   UNK N   1      25.776  27.333  -3.938  0.00  0.00     0.068 A 
HETATM   28  C   UNK N   1      26.405  26.212  -3.383  0.00  0.00     0.037 A 
HETATM   29  C   UNK N   1      26.524  25.033  -4.125  0.00  0.00     0.010 A 
BRANCH  27  30
HETATM   30  O   UNK N   1      25.715  28.477  -3.218  0.00  0.00    -0.352 OA
BRANCH  30  31
HETATM   31  C   UNK N   1      26.442  29.603  -3.536  0.00  0.00     0.171 C 
HETATM   32  C   UNK N   1      27.700  29.646  -2.692  0.00  0.00     0.034 C 
ENDBRANCH  30  31
ENDBRANCH  27  30
ENDBRANCH  23  24
ENDBRANCH   3  23
TORSDOF 10
ENDMDL
MODEL 5
REMARK VINA RESULT:      -6.8      3.934      9.624
REMARK  10 active torsions:
REMARK  status: ('A' for Active; 'I' for Inactive)
REMARK    1  A    between atoms: C_1  and  C_8 
REMARK    2  A    between atoms: C_2  and  O_10 
REMARK    3  A    between atoms: C_3  and  O_11 
REMARK    4  A    between atoms: C_4  and  O_9 
REMARK    5  A    between atoms: C_5  and  C_7 
REMARK    6  A    between atoms: C_8  and  O_12 
REMARK    7  A    between atoms: C_14  and  C_19 
REMARK    8  A    between atoms: C_19  and  C_20 
REMARK    9  A    between atoms: C_23  and  O_26 
REMARK   10  A    between atoms: O_26  and  C_27 
ROOT
HETATM    1  C   UNK N   1      22.872  15.830   3.830  0.00  0.00    -0.026 A 
HETATM    2  C   UNK N   1      24.037  16.601   3.733  0.00  0.00     0.019 A 
HETATM    3  C   UNK N   1      25.250  16.023   3.355  0.00  0.00    -0.032 A 
HETATM    4  C   UNK N   1      25.303  14.640   3.075  0.00  0.00     0.040 A 
HETATM    5  C   UNK N   1      24.147  13.864   3.197  0.00  0.00     0.025 A 
HETATM    6  C   UNK N   1      22.938  14.455   3.565  0.00  0.00     0.011 A 
HETATM    7 Cl   UNK N   1      26.783  13.859   2.536  0.00  0.00    -0.084 Cl
ENDROOT
BRANCH   1   8
HETATM    8  C   UNK N   1      21.556  16.502   4.146  0.00  0.00     0.186 C 
HETATM    9  C   UNK N   1      21.758  18.021   4.392  0.00  0.00     0.182 C 
HETATM   10  C   UNK N   1      20.529  18.793   3.935  0.00  0.00     0.181 C 
HETATM   11  C   UNK N   1      20.248  18.514   2.454  0.00  0.00     0.180 C 
HETATM   12  C   UNK N   1      20.691  17.082   2.093  0.00  0.00     0.177 C 
HETATM   13  O   UNK N   1      20.536  16.209   3.191  0.00  0.00    -0.368 OA
BRANCH   9  14
HETATM   14  O   UNK N   1      22.014  18.250   5.744  0.00  0.00    -0.390 OA
HETATM   15  H   UNK N   1      22.324  17.572   6.365  0.00  0.00     0.210 HD
ENDBRANCH   9  14
BRANCH  10  16
HETATM   16  O   UNK N   1      20.698  20.163   4.137  0.00  0.00    -0.390 OA
HETATM   17  H   UNK N   1      20.241  20.770   4.740  0.00  0.00     0.210 HD
ENDBRANCH  10  16
BRANCH  11  18
HETATM   18  O   UNK N   1      18.888  18.714   2.213  0.00  0.00    -0.390 OA
HETATM   19  H   UNK N   1      18.405  18.397   1.434  0.00  0.00     0.210 HD
ENDBRANCH  11  18
BRANCH  12  20
HETATM   20  C   UNK N   1      20.029  16.543   0.834  0.00  0.00     0.198 C 
BRANCH  20  21
HETATM   21  O   UNK N   1      20.222  17.429  -0.227  0.00  0.00    -0.398 OA
HETATM   22  H   UNK N   1      20.451  17.103  -1.111  0.00  0.00     0.209 HD
ENDBRANCH  20  21
ENDBRANCH  12  20
ENDBRANCH   1   8
BRANCH   3  23
HETATM   23  C   UNK N   1      26.439  16.921   3.176  0.00  0.00     0.078 C 
BRANCH  23  24
HETATM   24  C   UNK N   1      27.000  17.544   4.420  0.00  0.00    -0.054 A 
HETATM   25  C   UNK N   1      27.162  16.732   5.544  0.00  0.00     0.010 A 
HETATM   26  C   UNK N   1      27.622  17.273   6.745  0.00  0.00     0.037 A 
HETATM   27  C   UNK N   1      27.931  18.641   6.832  0.00  0.00     0.068 A 
HETATM   28  C   UNK N   1      27.791  19.451   5.699  0.00  0.00     0.037 A 
HETATM   29  C   UNK N   1      27.327  18.907   4.498  0.00  0.00     0.010 A 
BRANCH  27  30
HETATM   30  O   UNK N   1      28.338  19.200   7.995  0.00  0.00    -0.352 OA
BRANCH  30  31
HETATM   31  C   UNK N   1      28.841  18.464   9.045  0.00  0.00     0.171 C 
HETATM   32  C   UNK N   1      30.350  18.594   9.075  0.00  0.00     0.034 C 
ENDBRANCH  30  31
ENDBRANCH  27  30
ENDBRANCH  23  24
ENDBRANCH   3  23
TORSDOF 10
ENDMDL
MODEL 6
REMARK VINA RESULT:      -6.7      2.981      4.208
REMARK  10 active torsions:
REMARK  status: ('A' for Active; 'I' for Inactive)
REMARK    1  A    between atoms: C_1  and  C_8 
REMARK    2  A    between atoms: C_2  and  O_10 
REMARK    3  A    between atoms: C_3  and  O_11 
REMARK    4  A    between atoms: C_4  and  O_9 
REMARK    5  A    between atoms: C_5  and  C_7 
REMARK    6  A    between atoms: C_8  and  O_12 
REMARK    7  A    between atoms: C_14  and  C_19 
REMARK    8  A    between atoms: C_19  and  C_20 
REMARK    9  A    between atoms: C_23  and  O_26 
REMARK   10  A    between atoms: O_26  and  C_27 
ROOT
HETATM    1  C   UNK N   1      28.145  17.756   5.349  0.00  0.00    -0.026 A 
HETATM    2  C   UNK N   1      26.906  17.208   4.997  0.00  0.00     0.019 A 
HETATM    3  C   UNK N   1      25.962  17.964   4.298  0.00  0.00    -0.032 A 
HETATM    4  C   UNK N   1      26.259  19.299   3.952  0.00  0.00     0.040 A 
HETATM    5  C   UNK N   1      27.485  19.855   4.326  0.00  0.00     0.025 A 
HETATM    6  C   UNK N   1      28.426  19.087   5.014  0.00  0.00     0.011 A 
HETATM    7 Cl   UNK N   1      25.141  20.287   3.021  0.00  0.00    -0.084 Cl
ENDROOT
BRANCH   1   8
HETATM    8  C   UNK N   1      29.183  16.884   6.018  0.00  0.00     0.186 C 
HETATM    9  C   UNK N   1      30.616  17.374   5.679  0.00  0.00     0.182 C 
HETATM   10  C   UNK N   1      31.552  17.099   6.847  0.00  0.00     0.181 C 
HETATM   11  C   UNK N   1      31.030  17.782   8.117  0.00  0.00     0.180 C 
HETATM   12  C   UNK N   1      29.489  17.834   8.093  0.00  0.00     0.177 C 
HETATM   13  O   UNK N   1      28.953  16.717   7.418  0.00  0.00    -0.368 OA
BRANCH   9  14
HETATM   14  O   UNK N   1      31.069  16.741   4.521  0.00  0.00    -0.390 OA
HETATM   15  H   UNK N   1      30.674  16.860   3.643  0.00  0.00     0.210 HD
ENDBRANCH   9  14
BRANCH  10  16
HETATM   16  O   UNK N   1      32.844  17.544   6.565  0.00  0.00    -0.390 OA
HETATM   17  H   UNK N   1      33.633  17.580   7.128  0.00  0.00     0.210 HD
ENDBRANCH  10  16
BRANCH  11  18
HETATM   18  O   UNK N   1      31.510  17.085   9.227  0.00  0.00    -0.390 OA
HETATM   19  H   UNK N   1      32.354  16.610   9.268  0.00  0.00     0.210 HD
ENDBRANCH  11  18
BRANCH  12  20
HETATM   20  C   UNK N   1      28.869  18.026   9.468  0.00  0.00     0.198 C 
BRANCH  20  21
HETATM   21  O   UNK N   1      29.700  18.814  10.265  0.00  0.00    -0.398 OA
HETATM   22  H   UNK N   1      29.769  18.655  11.219  0.00  0.00     0.209 HD
ENDBRANCH  20  21
ENDBRANCH  12  20
ENDBRANCH   1   8
BRANCH   3  23
HETATM   23  C   UNK N   1      24.692  17.289   3.867  0.00  0.00     0.078 C 
BRANCH  23  24
HETATM   24  C   UNK N   1      23.619  17.153   4.906  0.00  0.00    -0.054 A 
HETATM   25  C   UNK N   1      23.522  15.942   5.594  0.00  0.00     0.010 A 
HETATM   26  C   UNK N   1      22.505  15.740   6.526  0.00  0.00     0.037 A 
HETATM   27  C   UNK N   1      21.569  16.757   6.784  0.00  0.00     0.068 A 
HETATM   28  C   UNK N   1      21.680  17.979   6.112  0.00  0.00     0.037 A 
HETATM   29  C   UNK N   1      22.699  18.178   5.175  0.00  0.00     0.010 A 
BRANCH  27  30
HETATM   30  O   UNK N   1      20.547  16.572   7.652  0.00  0.00    -0.352 OA
BRANCH  30  31
HETATM   31  C   UNK N   1      19.969  17.602   8.359  0.00  0.00     0.171 C 
HETATM   32  C   UNK N   1      18.682  17.118   8.996  0.00  0.00     0.034 C 
ENDBRANCH  30  31
ENDBRANCH  27  30
ENDBRANCH  23  24
ENDBRANCH   3  23
TORSDOF 10
ENDMDL
MODEL 7
REMARK VINA RESULT:      -6.7      7.893     12.715
REMARK  10 active torsions:
REMARK  status: ('A' for Active; 'I' for Inactive)
REMARK    1  A    between atoms: C_1  and  C_8 
REMARK    2  A    between atoms: C_2  and  O_10 
REMARK    3  A    between atoms: C_3  and  O_11 
REMARK    4  A    between atoms: C_4  and  O_9 
REMARK    5  A    between atoms: C_5  and  C_7 
REMARK    6  A    between atoms: C_8  and  O_12 
REMARK    7  A    between atoms: C_14  and  C_19 
REMARK    8  A    between atoms: C_19  and  C_20 
REMARK    9  A    between atoms: C_23  and  O_26 
REMARK   10  A    between atoms: O_26  and  C_27 
ROOT
HETATM    1  C   UNK N   1      35.053  14.342   9.625  0.00  0.00    -0.026 A 
HETATM    2  C   UNK N   1      34.557  13.276  10.386  0.00  0.00     0.019 A 
HETATM    3  C   UNK N   1      35.363  12.179  10.693  0.00  0.00    -0.032 A 
HETATM    4  C   UNK N   1      36.693  12.140  10.222  0.00  0.00     0.040 A 
HETATM    5  C   UNK N   1      37.181  13.191   9.440  0.00  0.00     0.025 A 
HETATM    6  C   UNK N   1      36.370  14.288   9.149  0.00  0.00     0.011 A 
HETATM    7 Cl   UNK N   1      37.781  10.818  10.621  0.00  0.00    -0.084 Cl
ENDROOT
BRANCH   1   8
HETATM    8  C   UNK N   1      34.187  15.558   9.392  0.00  0.00     0.186 C 
HETATM    9  C   UNK N   1      35.038  16.855   9.428  0.00  0.00     0.182 C 
HETATM   10  C   UNK N   1      34.450  17.893   8.483  0.00  0.00     0.181 C 
HETATM   11  C   UNK N   1      34.376  17.331   7.059  0.00  0.00     0.180 C 
HETATM   12  C   UNK N   1      34.140  15.808   7.104  0.00  0.00     0.177 C 
HETATM   13  O   UNK N   1      33.368  15.445   8.228  0.00  0.00    -0.368 OA
BRANCH   9  14
HETATM   14  O   UNK N   1      35.093  17.347  10.733  0.00  0.00    -0.390 OA
HETATM   15  H   UNK N   1      35.547  16.902  11.466  0.00  0.00     0.210 HD
ENDBRANCH   9  14
BRANCH  10  16
HETATM   16  O   UNK N   1      35.211  19.063   8.493  0.00  0.00    -0.390 OA
HETATM   17  H   UNK N   1      35.639  19.528   9.229  0.00  0.00     0.210 HD
ENDBRANCH  10  16
BRANCH  11  18
HETATM   18  O   UNK N   1      33.359  17.995   6.371  0.00  0.00    -0.390 OA
HETATM   19  H   UNK N   1      33.404  18.283   5.445  0.00  0.00     0.210 HD
ENDBRANCH  11  18
BRANCH  12  20
HETATM   20  C   UNK N   1      33.571  15.245   5.810  0.00  0.00     0.198 C 
BRANCH  20  21
HETATM   21  O   UNK N   1      34.237  15.793   4.714  0.00  0.00    -0.398 OA
HETATM   22  H   UNK N   1      34.402  16.747   4.658  0.00  0.00     0.209 HD
ENDBRANCH  20  21
ENDBRANCH  12  20
ENDBRANCH   1   8
BRANCH   3  23
HETATM   23  C   UNK N   1      34.802  11.116  11.592  0.00  0.00     0.078 C 
BRANCH  23  24
HETATM   24  C   UNK N   1      34.774  11.426  13.059  0.00  0.00    -0.054 A 
HETATM   25  C   UNK N   1      35.657  12.394  13.541  0.00  0.00     0.010 A 
HETATM   26  C   UNK N   1      35.716  12.678  14.906  0.00  0.00     0.037 A 
HETATM   27  C   UNK N   1      34.884  11.993  15.808  0.00  0.00     0.068 A 
HETATM   28  C   UNK N   1      33.983  11.040  15.323  0.00  0.00     0.037 A 
HETATM   29  C   UNK N   1      33.927  10.755  13.955  0.00  0.00     0.010 A 
BRANCH  27  30
HETATM   30  O   UNK N   1      34.952  12.219  17.141  0.00  0.00    -0.352 OA
BRANCH  30  31
HETATM   31  C   UNK N   1      35.307  11.246  18.048  0.00  0.00     0.171 C 
HETATM   32  C   UNK N   1      35.371  11.849  19.437  0.00  0.00     0.034 C 
ENDBRANCH  30  31
ENDBRANCH  27  30
ENDBRANCH  23  24
ENDBRANCH   3  23
TORSDOF 10
ENDMDL
MODEL 8
REMARK VINA RESULT:      -6.7     10.988     14.362
REMARK  10 active torsions:
REMARK  status: ('A' for Active; 'I' for Inactive)
REMARK    1  A    between atoms: C_1  and  C_8 
REMARK    2  A    between atoms: C_2  and  O_10 
REMARK    3  A    between atoms: C_3  and  O_11 
REMARK    4  A    between atoms: C_4  and  O_9 
REMARK    5  A    between atoms: C_5  and  C_7 
REMARK    6  A    between atoms: C_8  and  O_12 
REMARK    7  A    between atoms: C_14  and  C_19 
REMARK    8  A    between atoms: C_19  and  C_20 
REMARK    9  A    between atoms: C_23  and  O_26 
REMARK   10  A    between atoms: O_26  and  C_27 
ROOT
HETATM    1  C   UNK N   1      26.253  23.736  -6.945  0.00  0.00    -0.026 A 
HETATM    2  C   UNK N   1      26.736  23.976  -5.653  0.00  0.00     0.019 A 
HETATM    3  C   UNK N   1      26.655  25.248  -5.084  0.00  0.00    -0.032 A 
HETATM    4  C   UNK N   1      26.086  26.306  -5.825  0.00  0.00     0.040 A 
HETATM    5  C   UNK N   1      25.629  26.074  -7.125  0.00  0.00     0.025 A 
HETATM    6  C   UNK N   1      25.705  24.795  -7.680  0.00  0.00     0.011 A 
HETATM    7 Cl   UNK N   1      25.899  27.918  -5.147  0.00  0.00    -0.084 Cl
ENDROOT
BRANCH   1   8
HETATM    8  C   UNK N   1      26.267  22.328  -7.496  0.00  0.00     0.186 C 
HETATM    9  C   UNK N   1      25.326  22.209  -8.724  0.00  0.00     0.182 C 
HETATM   10  C   UNK N   1      25.875  21.183  -9.705  0.00  0.00     0.181 C 
HETATM   11  C   UNK N   1      27.291  21.572 -10.142  0.00  0.00     0.180 C 
HETATM   12  C   UNK N   1      28.013  22.309  -8.997  0.00  0.00     0.177 C 
HETATM   13  O   UNK N   1      27.586  21.836  -7.737  0.00  0.00    -0.368 OA
BRANCH   9  14
HETATM   14  O   UNK N   1      24.043  21.856  -8.303  0.00  0.00    -0.390 OA
HETATM   15  H   UNK N   1      23.855  21.309  -7.525  0.00  0.00     0.210 HD
ENDBRANCH   9  14
BRANCH  10  16
HETATM   16  O   UNK N   1      25.046  21.070 -10.823  0.00  0.00    -0.390 OA
HETATM   17  H   UNK N   1      25.249  21.162 -11.767  0.00  0.00     0.210 HD
ENDBRANCH  10  16
BRANCH  11  18
HETATM   18  O   UNK N   1      27.972  20.415 -10.527  0.00  0.00    -0.390 OA
HETATM   19  H   UNK N   1      27.635  19.510 -10.435  0.00  0.00     0.210 HD
ENDBRANCH  11  18
BRANCH  12  20
HETATM   20  C   UNK N   1      29.529  22.298  -9.130  0.00  0.00     0.198 C 
BRANCH  20  21
HETATM   21  O   UNK N   1      29.897  22.573 -10.447  0.00  0.00    -0.398 OA
HETATM   22  H   UNK N   1      29.286  23.024 -11.050  0.00  0.00     0.209 HD
ENDBRANCH  20  21
ENDBRANCH  12  20
ENDBRANCH   1   8
BRANCH   3  23
HETATM   23  C   UNK N   1      27.101  25.418  -3.660  0.00  0.00     0.078 C 
BRANCH  23  24
HETATM   24  C   UNK N   1      28.297  24.620  -3.234  0.00  0.00    -0.054 A 
HETATM   25  C   UNK N   1      29.549  25.005  -3.719  0.00  0.00     0.010 A 
HETATM   26  C   UNK N   1      30.687  24.262  -3.404  0.00  0.00     0.037 A 
HETATM   27  C   UNK N   1      30.583  23.120  -2.592  0.00  0.00     0.068 A 
HETATM   28  C   UNK N   1      29.333  22.748  -2.086  0.00  0.00     0.037 A 
HETATM   29  C   UNK N   1      28.194  23.492  -2.406  0.00  0.00     0.010 A 
BRANCH  27  30
HETATM   30  O   UNK N   1      31.664  22.357  -2.306  0.00  0.00    -0.352 OA
BRANCH  30  31
HETATM   31  C   UNK N   1      32.174  21.423  -3.179  0.00  0.00     0.171 C 
HETATM   32  C   UNK N   1      33.544  20.981  -2.704  0.00  0.00     0.034 C 
ENDBRANCH  30  31
ENDBRANCH  27  30
ENDBRANCH  23  24
ENDBRANCH   3  23
TORSDOF 10
ENDMDL
MODEL 9
REMARK VINA RESULT:      -6.6      4.519      7.335
REMARK  10 active torsions:
REMARK  status: ('A' for Active; 'I' for Inactive)
REMARK    1  A    between atoms: C_1  and  C_8 
REMARK    2  A    between atoms: C_2  and  O_10 
REMARK    3  A    between atoms: C_3  and  O_11 
REMARK    4  A    between atoms: C_4  and  O_9 
REMARK    5  A    between atoms: C_5  and  C_7 
REMARK    6  A    between atoms: C_8  and  O_12 
REMARK    7  A    between atoms: C_14  and  C_19 
REMARK    8  A    between atoms: C_19  and  C_20 
REMARK    9  A    between atoms: C_23  and  O_26 
REMARK   10  A    between atoms: O_26  and  C_27 
ROOT
HETATM    1  C   UNK N   1      35.002  15.394   8.439  0.00  0.00    -0.026 A 
HETATM    2  C   UNK N   1      34.391  16.456   7.762  0.00  0.00     0.019 A 
HETATM    3  C   UNK N   1      34.053  16.344   6.412  0.00  0.00    -0.032 A 
HETATM    4  C   UNK N   1      34.340  15.148   5.720  0.00  0.00     0.040 A 
HETATM    5  C   UNK N   1      34.974  14.097   6.388  0.00  0.00     0.025 A 
HETATM    6  C   UNK N   1      35.297  14.215   7.741  0.00  0.00     0.011 A 
HETATM    7 Cl   UNK N   1      33.888  14.918   4.036  0.00  0.00    -0.084 Cl
ENDROOT
BRANCH   1   8
HETATM    8  C   UNK N   1      35.267  15.510   9.923  0.00  0.00     0.186 C 
HETATM    9  C   UNK N   1      34.393  14.505  10.718  0.00  0.00     0.182 C 
HETATM   10  C   UNK N   1      35.132  14.042  11.965  0.00  0.00     0.181 C 
HETATM   11  C   UNK N   1      36.475  13.409  11.581  0.00  0.00     0.180 C 
HETATM   12  C   UNK N   1      37.031  14.082  10.311  0.00  0.00     0.177 C 
HETATM   13  O   UNK N   1      36.656  15.441  10.248  0.00  0.00    -0.368 OA
BRANCH   9  14
HETATM   14  O   UNK N   1      33.177  15.101  11.055  0.00  0.00    -0.390 OA
HETATM   15  H   UNK N   1      32.499  14.684  11.610  0.00  0.00     0.210 HD
ENDBRANCH   9  14
BRANCH  10  16
HETATM   16  O   UNK N   1      34.365  13.127  12.688  0.00  0.00    -0.390 OA
HETATM   17  H   UNK N   1      34.176  12.191  12.517  0.00  0.00     0.210 HD
ENDBRANCH  10  16
BRANCH  11  18
HETATM   18  O   UNK N   1      37.350  13.532  12.661  0.00  0.00    -0.390 OA
HETATM   19  H   UNK N   1      37.855  12.806  13.058  0.00  0.00     0.210 HD
ENDBRANCH  11  18
BRANCH  12  20
HETATM   20  C   UNK N   1      38.530  13.892  10.132  0.00  0.00     0.198 C 
BRANCH  20  21
HETATM   21  O   UNK N   1      38.894  12.591  10.481  0.00  0.00    -0.398 OA
HETATM   22  H   UNK N   1      38.784  12.273  11.391  0.00  0.00     0.209 HD
ENDBRANCH  20  21
ENDBRANCH  12  20
ENDBRANCH   1   8
BRANCH   3  23
HETATM   23  C   UNK N   1      33.313  17.482   5.769  0.00  0.00     0.078 C 
BRANCH  23  24
HETATM   24  C   UNK N   1      31.834  17.306   5.596  0.00  0.00    -0.054 A 
HETATM   25  C   UNK N   1      31.065  17.059   6.736  0.00  0.00     0.010 A 
HETATM   26  C   UNK N   1      29.694  16.827   6.625  0.00  0.00     0.037 A 
HETATM   27  C   UNK N   1      29.073  16.843   5.365  0.00  0.00     0.068 A 
HETATM   28  C   UNK N   1      29.839  17.114   4.225  0.00  0.00     0.037 A 
HETATM   29  C   UNK N   1      31.213  17.342   4.338  0.00  0.00     0.010 A 
BRANCH  27  30
HETATM   30  O   UNK N   1      27.753  16.579   5.225  0.00  0.00    -0.352 OA
BRANCH  30  31
HETATM   31  C   UNK N   1      27.105  15.599   5.943  0.00  0.00     0.171 C 
HETATM   32  C   UNK N   1      25.615  15.874   5.941  0.00  0.00     0.034 C 
ENDBRANCH  30  31
ENDBRANCH  27  30
ENDBRANCH  23  24
ENDBRANCH   3  23
TORSDOF 10
ENDMDL
