REMARK WARNING: 32 MAX_TORS EXCEEDED!!!
REMARK  35 active torsions:
REMARK  status: ('A' for Active; 'I' for Inactive)
REMARK    1  A    between atoms: C_7  and  C_10 
REMARK    2  A    between atoms: C_17  and  C_10 
REMARK    3  A    between atoms: C_12  and  C_11 
REMARK       I    between atoms: C_11  and  N_73 
REMARK    4  A    between atoms: N_14  and  C_12 
REMARK    5  A    between atoms: C_12  and  C_69 
REMARK       I    between atoms: C_16  and  N_14 
REMARK    6  A    between atoms: C_16  and  C_17 
REMARK    7  A    between atoms: C_17  and  N_18 
REMARK       I    between atoms: N_18  and  C_19 
REMARK    8  A    between atoms: C_19  and  C_20 
REMARK    9  A    between atoms: C_20  and  C_22 
REMARK   10  A    between atoms: C_20  and  N_23 
REMARK   11  A    between atoms: C_22  and  C_24 
REMARK       I    between atoms: N_23  and  C_31 
REMARK   12  A    between atoms: C_29  and  O_30 
REMARK   13  A    between atoms: C_31  and  C_32 
REMARK   14  A    between atoms: C_32  and  N_33 
REMARK   15  A    between atoms: C_32  and  C_34 
REMARK       I    between atoms: N_33  and  C_36 
REMARK   16  A    between atoms: C_34  and  O_97 
REMARK   17  A    between atoms: C_36  and  C_37 
REMARK   18  A    between atoms: C_37  and  C_38 
REMARK   19  A    between atoms: C_37  and  N_49 
REMARK   20  A    between atoms: C_38  and  C_39 
REMARK       I    between atoms: N_49  and  C_50 
REMARK   21  A    between atoms: C_50  and  C_51 
REMARK   22  A    between atoms: C_51  and  C_53 
REMARK   23  A    between atoms: N_60  and  C_51 
REMARK   24  A    between atoms: C_53  and  C_54 
REMARK       I    between atoms: N_60  and  C_61 
REMARK   25  A    between atoms: C_63  and  C_61 
REMARK   26  A    between atoms: C_69  and  C_70 
REMARK   27  A    between atoms: N_73  and  C_74 
REMARK   28  A    between atoms: C_74  and  C_75 
REMARK   29  A    between atoms: C_74  and  C_78 
REMARK       I    between atoms: C_75  and  N_76 
REMARK   30  A    between atoms: C_78  and  C_79 
REMARK   31  A    between atoms: C_79  and  C_80 
REMARK   32  A    between atoms: C_80  and  N_81 
REMARK       I    between atoms: N_81  and  C_82 
REMARK       I    between atoms: C_82  and  N_83 
REMARK   33  A    between atoms: C_88  and  C_92 
REMARK   34  A    between atoms: N_93  and  C_91 
REMARK   35  A    between atoms: C_91  and  C_94 
REMARK       I    between atoms: N_93  and  C_92 
REMARK       I    between atoms: C_94  and  N_95 
ROOT
HETATM    1  N   UNK N   1       0.664  -2.594  -0.441  0.00  0.00    -0.346 N 
HETATM    2  C   UNK N   1       0.069  -2.085   0.670  0.00  0.00     0.241 C 
HETATM    3  O   UNK N   1       0.639  -2.099   1.751  0.00  0.00    -0.271 OA
HETATM    4  H   UNK N   1       0.138  -2.628  -1.273  0.00  0.00     0.163 HD
ENDROOT
BRANCH   2   5
HETATM    5  C   UNK N   1      -1.287  -1.492   0.589  0.00  0.00     0.180 C 
BRANCH   5   6
HETATM    6  C   UNK N   1      -1.269  -0.001   0.921  0.00  0.00     0.073 C 
BRANCH   6   7
HETATM    7  C   UNK N   1      -0.559   0.827  -0.104  0.00  0.00    -0.056 A 
HETATM    8  C   UNK N   1       0.484   1.643   0.304  0.00  0.00     0.010 A 
HETATM    9  C   UNK N   1       1.140   2.453  -0.622  0.00  0.00     0.037 A 
HETATM   10  C   UNK N   1       0.765   2.446  -1.960  0.00  0.00     0.065 A 
HETATM   11  C   UNK N   1      -0.287   1.633  -2.380  0.00  0.00     0.037 A 
HETATM   12  C   UNK N   1      -0.955   0.832  -1.452  0.00  0.00     0.010 A 
BRANCH  10  13
HETATM   13  O   UNK N   1       1.418   3.221  -2.840  0.00  0.00    -0.361 OA
HETATM   14  H   UNK N   1       2.114   3.096  -3.454  0.00  0.00     0.217 HD
ENDBRANCH  10  13
ENDBRANCH   6   7
ENDBRANCH   5   6
BRANCH   5  15
HETATM   15  N   UNK N   1      -1.933  -1.696  -0.681  0.00  0.00    -0.346 N 
HETATM   16  C   UNK N   1      -3.279  -1.643  -0.831  0.00  0.00     0.243 C 
HETATM   17  O   UNK N   1      -3.740  -1.715  -1.957  0.00  0.00    -0.271 OA
HETATM   18  H   UNK N   1      -1.375  -1.879  -1.472  0.00  0.00     0.163 HD
BRANCH  16  19
HETATM   19  C   UNK N   1      -4.226  -1.592   0.363  0.00  0.00     0.200 C 
BRANCH  19  20
HETATM   20  N   UNK N   1      -5.502  -0.972   0.203  0.00  0.00    -0.344 N 
HETATM   21  C   UNK N   1      -6.487  -1.417  -0.606  0.00  0.00     0.241 C 
HETATM   22  O   UNK N   1      -6.273  -2.229  -1.493  0.00  0.00    -0.271 OA
HETATM   23  H   UNK N   1      -5.678  -0.155   0.723  0.00  0.00     0.163 HD
BRANCH  21  24
HETATM   24  C   UNK N   1      -7.882  -1.074  -0.228  0.00  0.00     0.181 C 
BRANCH  24  25
HETATM   25  C   UNK N   1      -8.234  -1.955   0.994  0.00  0.00     0.075 C 
BRANCH  25  26
HETATM   26  C   UNK N   1      -8.146  -3.415   0.579  0.00  0.00    -0.028 A 
HETATM   27  C   UNK N   1      -9.153  -4.125  -0.063  0.00  0.00     0.096 A 
HETATM   28  N   UNK N   1      -8.683  -5.340  -0.451  0.00  0.00    -0.365 N 
HETATM   29  C   UNK N   1      -7.394  -5.387  -0.073  0.00  0.00     0.042 A 
HETATM   30  H   UNK N   1      -9.187  -6.046  -0.918  0.00  0.00     0.165 HD
HETATM   31  C   UNK N   1      -6.486  -6.415  -0.327  0.00  0.00     0.030 A 
HETATM   32  C   UNK N   1      -7.031  -4.240   0.573  0.00  0.00    -0.002 A 
HETATM   33  C   UNK N   1      -5.160  -6.245   0.110  0.00  0.00     0.002 A 
HETATM   34  C   UNK N   1      -4.782  -5.069   0.791  0.00  0.00     0.001 A 
HETATM   35  C   UNK N   1      -5.728  -4.052   1.028  0.00  0.00     0.014 A 
ENDBRANCH  25  26
ENDBRANCH  24  25
BRANCH  24  36
HETATM   36  N   UNK N   1      -7.849   0.343   0.060  0.00  0.00    -0.346 N 
HETATM   37  C   UNK N   1      -8.431   1.244  -0.765  0.00  0.00     0.241 C 
HETATM   38  O   UNK N   1      -9.249   0.880  -1.596  0.00  0.00    -0.271 OA
HETATM   39  H   UNK N   1      -7.395   0.659   0.874  0.00  0.00     0.163 HD
BRANCH  37  40
HETATM   40  C   UNK N   1      -7.868   2.634  -0.860  0.00  0.00     0.182 C 
BRANCH  40  41
HETATM   41  C   UNK N   1      -6.442   2.596  -1.450  0.00  0.00     0.093 C 
BRANCH  41  42
HETATM   42  C   UNK N   1      -5.287   2.341  -0.523  0.00  0.00     0.028 A 
HETATM   43  N   UNK N   1      -4.013   2.514  -0.905  0.00  0.00    -0.354 N 
HETATM   44  C   UNK N   1      -3.283   2.325   0.210  0.00  0.00     0.180 A 
ATOM     45  HN  UNK N   1      -3.671   2.739  -1.839  1.00  0.00     0.166 HD
HETATM   46  N   UNK N   1      -4.059   2.040   1.276  0.00  0.00    -0.360 N 
HETATM   47  C   UNK N   1      -5.326   2.058   0.824  0.00  0.00     0.114 A 
HETATM   48  H   UNK N   1      -3.759   1.856   2.195  0.00  0.00     0.166 HD
ENDBRANCH  41  42
ENDBRANCH  40  41
BRANCH  40  49
HETATM   49  N   UNK N   1      -8.090   3.474   0.317  0.00  0.00    -0.346 N 
HETATM   50  C   UNK N   1      -7.439   4.643   0.609  0.00  0.00     0.241 C 
HETATM   51  O   UNK N   1      -7.798   5.298   1.574  0.00  0.00    -0.271 OA
HETATM   52  H   UNK N   1      -8.772   3.170   0.959  0.00  0.00     0.163 HD
BRANCH  50  53
HETATM   53  C   UNK N   1      -6.244   5.104  -0.185  0.00  0.00     0.177 C 
HETATM   54  C   UNK N   1      -6.322   6.478  -0.861  0.00  0.00     0.044 C 
HETATM   55  C   UNK N   1      -4.907   7.081  -0.726  0.00  0.00     0.105 C 
HETATM   56  C   UNK N   1      -4.300   6.191   0.289  0.00  0.00     0.218 C 
HETATM   57  N   UNK N   1      -5.047   5.138   0.599  0.00  0.00    -0.348 N 
HETATM   58  O   UNK N   1      -3.201   6.377   0.785  0.00  0.00    -0.274 OA
HETATM   59  H   UNK N   1      -4.809   4.468   1.281  0.00  0.00     0.163 HD
ENDBRANCH  50  53
ENDBRANCH  40  49
ENDBRANCH  37  40
ENDBRANCH  24  36
ENDBRANCH  21  24
ENDBRANCH  19  20
BRANCH  19  60
HETATM   60  C   UNK N   1      -3.781  -1.433   1.812  0.00  0.00     0.199 C 
BRANCH  60  61
HETATM   61  O   UNK N   1      -3.314  -2.646   2.313  0.00  0.00    -0.398 OA
HETATM   62  H   UNK N   1      -3.883  -3.350   2.662  0.00  0.00     0.209 HD
ENDBRANCH  60  61
ENDBRANCH  19  60
ENDBRANCH  16  19
ENDBRANCH   5  15
ENDBRANCH   2   5
BRANCH   1  63
HETATM   63  C   UNK N   1       2.025  -3.089  -0.473  0.00  0.00     0.181 C 
BRANCH  63  64
HETATM   64  C   UNK N   1       2.963  -1.939  -0.279  0.00  0.00     0.241 C 
HETATM   65  N   UNK N   1       3.940  -1.696  -1.185  0.00  0.00    -0.346 N 
HETATM   66  H   UNK N   1       4.031  -2.288  -1.967  0.00  0.00     0.163 HD
HETATM   67  O   UNK N   1       2.861  -1.231   0.714  0.00  0.00    -0.271 OA
BRANCH  65  68
HETATM   68  C   UNK N   1       4.855  -0.583  -1.028  0.00  0.00     0.177 C 
BRANCH  68  69
HETATM   69  C   UNK N   1       4.075   0.707  -1.270  0.00  0.00     0.241 C 
HETATM   70  O   UNK N   1       3.555   0.842  -2.366  0.00  0.00    -0.271 OA
HETATM   71  N   UNK N   1       3.899   1.702  -0.353  0.00  0.00    -0.346 N 
HETATM   72  H   UNK N   1       3.323   2.454  -0.622  0.00  0.00     0.163 HD
BRANCH  71  73
HETATM   73  C   UNK N   1       4.470   1.766   0.974  0.00  0.00     0.176 C 
BRANCH  73  74
HETATM   74  C   UNK N   1       5.695   2.625   1.059  0.00  0.00     0.243 C 
HETATM   75  N   UNK N   1       5.905   3.714   0.254  0.00  0.00    -0.337 N 
HETATM   76  C   UNK N   1       4.924   4.212  -0.674  0.00  0.00     0.127 A 
HETATM   77  C   UNK N   1       7.132   4.460   0.278  0.00  0.00     0.179 A 
HETATM   78  C   UNK N   1       5.537   5.452  -1.295  0.00  0.00     0.022 A 
HETATM   79  C   UNK N   1       6.901   5.648  -0.642  0.00  0.00     0.037 A 
HETATM   80  O   UNK N   1       6.557   2.301   1.870  0.00  0.00    -0.271 OA
BRANCH  77  81
HETATM   81  C   UNK N   1       8.297   3.636  -0.234  0.00  0.00     0.241 C 
HETATM   82  O   UNK N   1       9.409   4.138  -0.276  0.00  0.00    -0.271 OA
HETATM   83  N   UNK N   1       8.110   2.349  -0.630  0.00  0.00    -0.351 N 
HETATM   84  H   UNK N   1       7.206   1.962  -0.582  0.00  0.00     0.163 HD
BRANCH  83  85
HETATM   85  C   UNK N   1       9.194   1.533  -1.118  0.00  0.00     0.225 C 
BRANCH  85  86
HETATM   86  C   UNK N   1       8.736   0.124  -1.306  0.00  0.00     0.233 C 
HETATM   87  N   UNK N   1       9.335  -0.869  -0.623  0.00  0.00    -0.369 N 
HETATM   88  H   UNK N   1       8.925  -1.612  -0.123  0.00  0.00     0.159 HD
HETATM   89  H   UNK N   1      10.319  -0.851  -0.623  0.00  0.00     0.159 HD
HETATM   90  O   UNK N   1       7.838  -0.132  -2.091  0.00  0.00    -0.272 OA
ENDBRANCH  85  86
ENDBRANCH  83  85
ENDBRANCH  77  81
ENDBRANCH  73  74
BRANCH  73  91
HETATM   91  C   UNK N   1       3.485   1.932   2.140  0.00  0.00     0.036 C 
BRANCH  91  92
HETATM   92  C   UNK N   1       2.445   3.045   2.019  0.00  0.00     0.023 C 
BRANCH  92  93
HETATM   93  C   UNK N   1       2.991   4.455   1.864  0.00  0.00     0.138 C 
BRANCH  93  94
HETATM   94  N   UNK N   1       2.384   5.098   0.717  0.00  0.00    -0.227 N 
HETATM   95  C   UNK N   1       0.993   5.379   0.622  0.00  0.00     0.665 C 
HETATM   96  N   UNK N   1       0.114   5.050   1.679  0.00  0.00    -0.235 N 
HETATM   97  N   UNK N   1       0.521   5.879  -0.459  0.00  0.00    -0.235 N 
HETATM   98  H   UNK N   1      -0.391   5.465   2.416  0.00  0.00     0.174 HD
HETATM   99  H   UNK N   1      -0.048   4.079   1.679  0.00  0.00     0.174 HD
HETATM  100  H   UNK N   1       0.672   6.385  -1.290  0.00  0.00     0.174 HD
ATOM    101  HN  UNK N   1      -0.472   5.643  -0.459  1.00  0.00     0.174 HD
HETATM  102  H   UNK N   1       2.964   5.354  -0.035  0.00  0.00     0.177 HD
ENDBRANCH  93  94
ENDBRANCH  92  93
ENDBRANCH  91  92
ENDBRANCH  73  91
ENDBRANCH  71  73
ENDBRANCH  68  69
BRANCH  68 103
HETATM  103  C   UNK N   1       5.626  -0.693   0.302  0.00  0.00     0.038 C 
BRANCH 103 104
HETATM  104  C   UNK N   1       6.510  -1.931   0.446  0.00  0.00    -0.020 C 
HETATM  105  C   UNK N   1       5.706  -3.214   0.552  0.00  0.00     0.009 C 
HETATM  106  C   UNK N   1       7.319  -1.789   1.717  0.00  0.00     0.009 C 
ENDBRANCH 103 104
ENDBRANCH  68 103
ENDBRANCH  65  68
ENDBRANCH  63  64
BRANCH  63 107
HETATM  107  C   UNK N   1       2.312  -4.137   0.606  0.00  0.00     0.075 C 
BRANCH 107 108
HETATM  108  C   UNK N   1       1.451  -5.365   0.696  0.00  0.00    -0.028 A 
HETATM  109  C   UNK N   1       0.306  -5.738   0.016  0.00  0.00    -0.002 A 
HETATM  110  C   UNK N   1      -0.436  -5.119  -0.991  0.00  0.00     0.014 A 
HETATM  111  C   UNK N   1      -0.072  -6.949   0.529  0.00  0.00     0.042 A 
HETATM  112  C   UNK N   1      -1.590  -5.770  -1.461  0.00  0.00     0.001 A 
HETATM  113  C   UNK N   1      -1.973  -7.018  -0.925  0.00  0.00     0.002 A 
HETATM  114  C   UNK N   1      -1.205  -7.622   0.085  0.00  0.00     0.030 A 
HETATM  115  N   UNK N   1       0.776  -7.357   1.488  0.00  0.00    -0.365 N 
HETATM  116  C   UNK N   1       1.715  -6.388   1.599  0.00  0.00     0.096 A 
HETATM  117  H   UNK N   1       0.725  -8.193   2.005  0.00  0.00     0.165 HD
ENDBRANCH 107 108
ENDBRANCH  63 107
ENDBRANCH   1  63
TORSDOF 35
