MODEL 1
REMARK VINA RESULT:      -8.3      0.000      0.000
REMARK  5 active torsions:
REMARK  status: ('A' for Active; 'I' for Inactive)
REMARK    1  A    between atoms: O_4  and  C_34 
REMARK    2  A    between atoms: N_5  and  C_20 
REMARK    3  A    between atoms: N_6  and  C_21 
REMARK    4  A    between atoms: N_7  and  C_28 
REMARK       I    between atoms: N_10  and  C_29 
REMARK    5  A    between atoms: C_23  and  C_29 
ROOT
HETATM    1  O   UNK N   1      24.714  16.615   5.646  0.00  0.00    -0.265 OA
HETATM    2  N   UNK N   1      25.535  18.320   4.442  0.00  0.00    -0.312 N 
HETATM    3  N   UNK N   1      21.928  17.270   5.040  0.00  0.00    -0.250 N 
HETATM    4  N   UNK N   1      20.908  17.956   4.542  0.00  0.00    -0.287 N 
ATOM      5  HN  UNK N   1      19.921  17.728   4.663  1.00  0.00     0.188 HD
HETATM    6  C   UNK N   1      23.805  19.905   3.321  0.00  0.00     0.064 A 
HETATM    7  C   UNK N   1      25.287  19.508   3.608  0.00  0.00     0.137 A 
HETATM    8  C   UNK N   1      22.779  18.985   3.908  0.00  0.00     0.011 A 
HETATM    9  C   UNK N   1      23.088  17.900   4.657  0.00  0.00     0.133 A 
HETATM   10  C   UNK N   1      24.487  17.568   4.942  0.00  0.00     0.277 A 
HETATM   11  C   UNK N   1      21.394  19.009   3.846  0.00  0.00     0.125 A 
ENDROOT
BRANCH   2  12
HETATM   12  C   UNK N   1      26.911  17.928   4.736  0.00  0.00     0.037 A 
HETATM   13  C   UNK N   1      27.553  18.459   5.859  0.00  0.00     0.032 A 
HETATM   14  C   UNK N   1      28.836  18.152   6.207  0.00  0.00     0.032 A 
HETATM   15  C   UNK N   1      29.595  17.274   5.454  0.00  0.00     0.037 A 
HETATM   16  C   UNK N   1      28.991  16.700   4.302  0.00  0.00     0.032 A 
HETATM   17  C   UNK N   1      27.652  17.025   3.944  0.00  0.00     0.032 A 
BRANCH  15  18
HETATM   18  N   UNK N   1      30.954  16.979   5.852  0.00  0.00    -0.318 N 
HETATM   19  C   UNK N   1      31.151  16.252   7.102  0.00  0.00     0.132 C 
HETATM   20  C   UNK N   1      32.567  16.364   7.655  0.00  0.00     0.021 C 
HETATM   21  C   UNK N   1      33.547  15.992   6.571  0.00  0.00     0.011 C 
HETATM   22  C   UNK N   1      33.462  17.017   5.461  0.00  0.00     0.103 C 
HETATM   23  C   UNK N   1      32.048  17.358   5.076  0.00  0.00     0.224 C 
HETATM   24  O   UNK N   1      31.905  17.996   4.043  0.00  0.00    -0.273 OA
ENDBRANCH  15  18
ENDBRANCH   2  12
BRANCH   3  25
HETATM   25  C   UNK N   1      21.711  16.063   5.839  0.00  0.00     0.057 A 
HETATM   26  C   UNK N   1      21.473  16.116   7.214  0.00  0.00     0.034 A 
HETATM   27  C   UNK N   1      21.261  14.987   7.988  0.00  0.00     0.039 A 
HETATM   28  C   UNK N   1      21.285  13.734   7.400  0.00  0.00     0.068 A 
HETATM   29  C   UNK N   1      21.529  13.631   6.013  0.00  0.00     0.039 A 
HETATM   30  C   UNK N   1      21.741  14.790   5.240  0.00  0.00     0.034 A 
BRANCH  28  31
HETATM   31  O   UNK N   1      21.073  12.653   8.186  0.00  0.00    -0.356 OA
HETATM   32  C   UNK N   1      21.501  12.565   9.488  0.00  0.00     0.210 C 
ENDBRANCH  28  31
ENDBRANCH   3  25
BRANCH  11  33
HETATM   33  C   UNK N   1      20.536  19.991   3.157  0.00  0.00     0.268 C 
HETATM   34  O   UNK N   1      20.121  20.973   3.749  0.00  0.00    -0.266 OA
HETATM   35  N   UNK N   1      20.202  19.802   1.864  0.00  0.00    -0.365 N 
HETATM   36  H   UNK N   1      19.628  20.456   1.404  0.00  0.00     0.159 HD
HETATM   37  H   UNK N   1      20.532  19.010   1.381  0.00  0.00     0.159 HD
ENDBRANCH  11  33
TORSDOF 5
ENDMDL
MODEL 2
REMARK VINA RESULT:      -8.1      2.194      3.140
REMARK  5 active torsions:
REMARK  status: ('A' for Active; 'I' for Inactive)
REMARK    1  A    between atoms: O_4  and  C_34 
REMARK    2  A    between atoms: N_5  and  C_20 
REMARK    3  A    between atoms: N_6  and  C_21 
REMARK    4  A    between atoms: N_7  and  C_28 
REMARK       I    between atoms: N_10  and  C_29 
REMARK    5  A    between atoms: C_23  and  C_29 
ROOT
HETATM    1  O   UNK N   1      26.685  16.585   6.304  0.00  0.00    -0.265 OA
HETATM    2  N   UNK N   1      27.836  18.444   5.800  0.00  0.00    -0.312 N 
HETATM    3  N   UNK N   1      24.358  17.356   4.708  0.00  0.00    -0.250 N 
HETATM    4  N   UNK N   1      23.594  18.121   3.938  0.00  0.00    -0.287 N 
ATOM      5  HN  UNK N   1      22.657  17.888   3.610  1.00  0.00     0.188 HD
HETATM    6  C   UNK N   1      26.631  20.201   4.308  0.00  0.00     0.064 A 
HETATM    7  C   UNK N   1      27.886  19.748   5.118  0.00  0.00     0.137 A 
HETATM    8  C   UNK N   1      25.505  19.214   4.283  0.00  0.00     0.011 A 
HETATM    9  C   UNK N   1      25.539  18.024   4.929  0.00  0.00     0.133 A 
HETATM   10  C   UNK N   1      26.715  17.638   5.713  0.00  0.00     0.277 A 
HETATM   11  C   UNK N   1      24.266  19.263   3.662  0.00  0.00     0.125 A 
ENDROOT
BRANCH   2  12
HETATM   12  C   UNK N   1      28.990  17.998   6.574  0.00  0.00     0.037 A 
HETATM   13  C   UNK N   1      30.011  17.283   5.940  0.00  0.00     0.032 A 
HETATM   14  C   UNK N   1      31.122  16.825   6.586  0.00  0.00     0.032 A 
HETATM   15  C   UNK N   1      31.311  17.047   7.938  0.00  0.00     0.037 A 
HETATM   16  C   UNK N   1      30.306  17.774   8.634  0.00  0.00     0.032 A 
HETATM   17  C   UNK N   1      29.149  18.249   7.955  0.00  0.00     0.032 A 
BRANCH  15  18
HETATM   18  N   UNK N   1      32.500  16.540   8.588  0.00  0.00    -0.318 N 
HETATM   19  C   UNK N   1      32.447  15.189   9.136  0.00  0.00     0.132 C 
HETATM   20  C   UNK N   1      33.544  14.902  10.155  0.00  0.00     0.021 C 
HETATM   21  C   UNK N   1      34.878  15.267   9.554  0.00  0.00     0.011 C 
HETATM   22  C   UNK N   1      34.920  16.761   9.323  0.00  0.00     0.103 C 
HETATM   23  C   UNK N   1      33.666  17.297   8.687  0.00  0.00     0.224 C 
HETATM   24  O   UNK N   1      33.718  18.442   8.263  0.00  0.00    -0.273 OA
ENDBRANCH  15  18
ENDBRANCH   2  12
BRANCH   3  25
HETATM   25  C   UNK N   1      23.898  16.044   5.166  0.00  0.00     0.057 A 
HETATM   26  C   UNK N   1      24.282  14.860   4.534  0.00  0.00     0.034 A 
HETATM   27  C   UNK N   1      23.862  13.609   4.954  0.00  0.00     0.039 A 
HETATM   28  C   UNK N   1      23.018  13.495   6.046  0.00  0.00     0.068 A 
HETATM   29  C   UNK N   1      22.599  14.667   6.713  0.00  0.00     0.039 A 
HETATM   30  C   UNK N   1      23.037  15.932   6.274  0.00  0.00     0.034 A 
BRANCH  28  31
HETATM   31  O   UNK N   1      22.629  12.257   6.429  0.00  0.00    -0.356 OA
HETATM   32  C   UNK N   1      21.643  12.025   7.357  0.00  0.00     0.210 C 
ENDBRANCH  28  31
ENDBRANCH   3  25
BRANCH  11  33
HETATM   33  C   UNK N   1      23.713  20.347   2.830  0.00  0.00     0.268 C 
HETATM   34  O   UNK N   1      24.449  21.040   2.147  0.00  0.00    -0.266 OA
HETATM   35  N   UNK N   1      22.385  20.578   2.823  0.00  0.00    -0.365 N 
HETATM   36  H   UNK N   1      22.014  21.302   2.268  0.00  0.00     0.159 HD
HETATM   37  H   UNK N   1      21.785  20.024   3.373  0.00  0.00     0.159 HD
ENDBRANCH  11  33
TORSDOF 5
ENDMDL
MODEL 3
REMARK VINA RESULT:      -8.0      8.502     13.453
REMARK  5 active torsions:
REMARK  status: ('A' for Active; 'I' for Inactive)
REMARK    1  A    between atoms: O_4  and  C_34 
REMARK    2  A    between atoms: N_5  and  C_20 
REMARK    3  A    between atoms: N_6  and  C_21 
REMARK    4  A    between atoms: N_7  and  C_28 
REMARK       I    between atoms: N_10  and  C_29 
REMARK    5  A    between atoms: C_23  and  C_29 
ROOT
HETATM    1  O   UNK N   1      34.460  14.730  10.578  0.00  0.00    -0.265 OA
HETATM    2  N   UNK N   1      36.124  13.226  10.604  0.00  0.00    -0.312 N 
HETATM    3  N   UNK N   1      34.748  15.294   7.722  0.00  0.00    -0.250 N 
HETATM    4  N   UNK N   1      35.270  15.230   6.503  0.00  0.00    -0.287 N 
ATOM      5  HN  UNK N   1      34.947  15.754   5.690  1.00  0.00     0.188 HD
HETATM    6  C   UNK N   1      37.399  12.849   8.369  0.00  0.00     0.064 A 
HETATM    7  C   UNK N   1      37.194  12.519   9.881  0.00  0.00     0.137 A 
HETATM    8  C   UNK N   1      36.433  13.842   7.802  0.00  0.00     0.011 A 
HETATM    9  C   UNK N   1      35.462  14.443   8.532  0.00  0.00     0.133 A 
HETATM   10  C   UNK N   1      35.313  14.143   9.958  0.00  0.00     0.277 A 
HETATM   11  C   UNK N   1      36.300  14.352   6.520  0.00  0.00     0.125 A 
ENDROOT
BRANCH   2  12
HETATM   12  C   UNK N   1      35.914  12.946  12.021  0.00  0.00     0.037 A 
HETATM   13  C   UNK N   1      36.725  13.571  12.974  0.00  0.00     0.032 A 
HETATM   14  C   UNK N   1      36.601  13.366  14.317  0.00  0.00     0.032 A 
HETATM   15  C   UNK N   1      35.642  12.510  14.829  0.00  0.00     0.037 A 
HETATM   16  C   UNK N   1      34.786  11.850  13.905  0.00  0.00     0.032 A 
HETATM   17  C   UNK N   1      34.920  12.068  12.505  0.00  0.00     0.032 A 
BRANCH  15  18
HETATM   18  N   UNK N   1      35.547  12.314  16.259  0.00  0.00    -0.318 N 
HETATM   19  C   UNK N   1      34.876  13.346  17.041  0.00  0.00     0.132 C 
HETATM   20  C   UNK N   1      35.194  13.285  18.531  0.00  0.00     0.021 C 
HETATM   21  C   UNK N   1      34.946  11.884  19.028  0.00  0.00     0.011 C 
HETATM   22  C   UNK N   1      35.931  10.947  18.364  0.00  0.00     0.103 C 
HETATM   23  C   UNK N   1      36.063  11.179  16.883  0.00  0.00     0.224 C 
HETATM   24  O   UNK N   1      36.658  10.320  16.249  0.00  0.00    -0.273 OA
ENDBRANCH  15  18
ENDBRANCH   2  12
BRANCH   3  25
HETATM   25  C   UNK N   1      33.606  16.161   8.013  0.00  0.00     0.057 A 
HETATM   26  C   UNK N   1      33.754  17.528   8.253  0.00  0.00     0.034 A 
HETATM   27  C   UNK N   1      32.685  18.367   8.525  0.00  0.00     0.039 A 
HETATM   28  C   UNK N   1      31.400  17.854   8.572  0.00  0.00     0.068 A 
HETATM   29  C   UNK N   1      31.203  16.475   8.342  0.00  0.00     0.039 A 
HETATM   30  C   UNK N   1      32.301  15.636   8.064  0.00  0.00     0.034 A 
BRANCH  28  31
HETATM   31  O   UNK N   1      30.381  18.702   8.840  0.00  0.00    -0.356 OA
HETATM   32  C   UNK N   1      29.475  18.505   9.853  0.00  0.00     0.210 C 
ENDBRANCH  28  31
ENDBRANCH   3  25
BRANCH  11  33
HETATM   33  C   UNK N   1      37.113  14.036   5.330  0.00  0.00     0.268 C 
HETATM   34  O   UNK N   1      36.646  13.368   4.422  0.00  0.00    -0.266 OA
HETATM   35  N   UNK N   1      38.381  14.485   5.244  0.00  0.00    -0.365 N 
HETATM   36  H   UNK N   1      38.925  14.274   4.451  0.00  0.00     0.159 HD
HETATM   37  H   UNK N   1      38.764  15.023   5.974  0.00  0.00     0.159 HD
ENDBRANCH  11  33
TORSDOF 5
ENDMDL
MODEL 4
REMARK VINA RESULT:      -7.9      2.031      2.452
REMARK  5 active torsions:
REMARK  status: ('A' for Active; 'I' for Inactive)
REMARK    1  A    between atoms: O_4  and  C_34 
REMARK    2  A    between atoms: N_5  and  C_20 
REMARK    3  A    between atoms: N_6  and  C_21 
REMARK    4  A    between atoms: N_7  and  C_28 
REMARK       I    between atoms: N_10  and  C_29 
REMARK    5  A    between atoms: C_23  and  C_29 
ROOT
HETATM    1  O   UNK N   1      24.991  15.177   6.948  0.00  0.00    -0.265 OA
HETATM    2  N   UNK N   1      25.362  16.495   5.172  0.00  0.00    -0.312 N 
HETATM    3  N   UNK N   1      22.138  14.872   6.374  0.00  0.00    -0.250 N 
HETATM    4  N   UNK N   1      20.982  15.067   5.752  0.00  0.00    -0.287 N 
ATOM      5  HN  UNK N   1      20.086  14.661   6.022  1.00  0.00     0.188 HD
HETATM    6  C   UNK N   1      23.297  17.109   3.714  0.00  0.00     0.064 A 
HETATM    7  C   UNK N   1      24.828  17.214   4.004  0.00  0.00     0.137 A 
HETATM    8  C   UNK N   1      22.534  16.232   4.659  0.00  0.00     0.011 A 
HETATM    9  C   UNK N   1      23.103  15.591   5.709  0.00  0.00     0.133 A 
HETATM   10  C   UNK N   1      24.535  15.735   5.980  0.00  0.00     0.277 A 
HETATM   11  C   UNK N   1      21.191  15.893   4.701  0.00  0.00     0.125 A 
ENDROOT
BRANCH   2  12
HETATM   12  C   UNK N   1      26.787  16.583   5.474  0.00  0.00     0.037 A 
HETATM   13  C   UNK N   1      27.319  17.785   5.951  0.00  0.00     0.032 A 
HETATM   14  C   UNK N   1      28.637  17.956   6.256  0.00  0.00     0.032 A 
HETATM   15  C   UNK N   1      29.549  16.927   6.109  0.00  0.00     0.037 A 
HETATM   16  C   UNK N   1      29.064  15.678   5.631  0.00  0.00     0.032 A 
HETATM   17  C   UNK N   1      27.687  15.506   5.315  0.00  0.00     0.032 A 
BRANCH  15  18
HETATM   18  N   UNK N   1      30.941  17.150   6.436  0.00  0.00    -0.318 N 
HETATM   19  C   UNK N   1      31.302  17.217   7.848  0.00  0.00     0.132 C 
HETATM   20  C   UNK N   1      32.656  17.872   8.100  0.00  0.00     0.021 C 
HETATM   21  C   UNK N   1      33.693  17.201   7.234  0.00  0.00     0.011 C 
HETATM   22  C   UNK N   1      33.372  17.477   5.782  0.00  0.00     0.103 C 
HETATM   23  C   UNK N   1      31.916  17.287   5.450  0.00  0.00     0.224 C 
HETATM   24  O   UNK N   1      31.627  17.267   4.263  0.00  0.00    -0.273 OA
ENDBRANCH  15  18
ENDBRANCH   2  12
BRANCH   3  25
HETATM   25  C   UNK N   1      22.229  14.010   7.554  0.00  0.00     0.057 A 
HETATM   26  C   UNK N   1      21.749  14.409   8.803  0.00  0.00     0.034 A 
HETATM   27  C   UNK N   1      21.820  13.606   9.931  0.00  0.00     0.039 A 
HETATM   28  C   UNK N   1      22.392  12.349   9.846  0.00  0.00     0.068 A 
HETATM   29  C   UNK N   1      22.896  11.906   8.604  0.00  0.00     0.039 A 
HETATM   30  C   UNK N   1      22.814  12.734   7.467  0.00  0.00     0.034 A 
BRANCH  28  31
HETATM   31  O   UNK N   1      22.444  11.592  10.967  0.00  0.00    -0.356 OA
HETATM   32  C   UNK N   1      23.204  11.912  12.065  0.00  0.00     0.210 C 
ENDBRANCH  28  31
ENDBRANCH   3  25
BRANCH  11  33
HETATM   33  C   UNK N   1      20.118  16.326   3.787  0.00  0.00     0.268 C 
HETATM   34  O   UNK N   1      19.820  17.506   3.700  0.00  0.00    -0.266 OA
HETATM   35  N   UNK N   1      19.459  15.415   3.044  0.00  0.00    -0.365 N 
HETATM   36  H   UNK N   1      18.742  15.703   2.434  0.00  0.00     0.159 HD
HETATM   37  H   UNK N   1      19.694  14.461   3.111  0.00  0.00     0.159 HD
ENDBRANCH  11  33
TORSDOF 5
ENDMDL
MODEL 5
REMARK VINA RESULT:      -7.5      6.701     13.589
REMARK  5 active torsions:
REMARK  status: ('A' for Active; 'I' for Inactive)
REMARK    1  A    between atoms: O_4  and  C_34 
REMARK    2  A    between atoms: N_5  and  C_20 
REMARK    3  A    between atoms: N_6  and  C_21 
REMARK    4  A    between atoms: N_7  and  C_28 
REMARK       I    between atoms: N_10  and  C_29 
REMARK    5  A    between atoms: C_23  and  C_29 
ROOT
HETATM    1  O   UNK N   1      34.400  14.370  10.979  0.00  0.00    -0.265 OA
HETATM    2  N   UNK N   1      34.916  14.547   8.804  0.00  0.00    -0.312 N 
HETATM    3  N   UNK N   1      36.736  12.723  11.603  0.00  0.00    -0.250 N 
HETATM    4  N   UNK N   1      37.839  12.019  11.379  0.00  0.00    -0.287 N 
ATOM      5  HN  UNK N   1      38.373  11.511  12.083  1.00  0.00     0.188 HD
HETATM    6  C   UNK N   1      37.030  13.266   7.992  0.00  0.00     0.064 A 
HETATM    7  C   UNK N   1      35.809  14.191   7.688  0.00  0.00     0.137 A 
HETATM    8  C   UNK N   1      37.180  12.870   9.428  0.00  0.00     0.011 A 
HETATM    9  C   UNK N   1      36.320  13.249  10.403  0.00  0.00     0.133 A 
HETATM   10  C   UNK N   1      35.161  14.088  10.086  0.00  0.00     0.277 A 
HETATM   11  C   UNK N   1      38.135  12.089  10.061  0.00  0.00     0.125 A 
ENDROOT
BRANCH   2  12
HETATM   12  C   UNK N   1      33.761  15.401   8.549  0.00  0.00     0.037 A 
HETATM   13  C   UNK N   1      32.512  14.820   8.309  0.00  0.00     0.032 A 
HETATM   14  C   UNK N   1      31.381  15.541   8.059  0.00  0.00     0.032 A 
HETATM   15  C   UNK N   1      31.402  16.924   8.031  0.00  0.00     0.037 A 
HETATM   16  C   UNK N   1      32.646  17.570   8.273  0.00  0.00     0.032 A 
HETATM   17  C   UNK N   1      33.821  16.812   8.533  0.00  0.00     0.032 A 
BRANCH  15  18
HETATM   18  N   UNK N   1      30.183  17.653   7.756  0.00  0.00    -0.318 N 
HETATM   19  C   UNK N   1      29.546  18.350   8.867  0.00  0.00     0.132 C 
HETATM   20  C   UNK N   1      28.088  18.711   8.605  0.00  0.00     0.021 C 
HETATM   21  C   UNK N   1      27.994  19.443   7.289  0.00  0.00     0.011 C 
HETATM   22  C   UNK N   1      28.386  18.499   6.174  0.00  0.00     0.103 C 
HETATM   23  C   UNK N   1      29.630  17.707   6.478  0.00  0.00     0.224 C 
HETATM   24  O   UNK N   1      30.131  17.103   5.541  0.00  0.00    -0.273 OA
ENDBRANCH  15  18
ENDBRANCH   2  12
BRANCH   3  25
HETATM   25  C   UNK N   1      36.172  12.840  12.949  0.00  0.00     0.057 A 
HETATM   26  C   UNK N   1      35.089  12.065  13.369  0.00  0.00     0.034 A 
HETATM   27  C   UNK N   1      34.543  12.156  14.639  0.00  0.00     0.039 A 
HETATM   28  C   UNK N   1      35.071  13.051  15.554  0.00  0.00     0.068 A 
HETATM   29  C   UNK N   1      36.163  13.860  15.170  0.00  0.00     0.039 A 
HETATM   30  C   UNK N   1      36.708  13.753  13.875  0.00  0.00     0.034 A 
BRANCH  28  31
HETATM   31  O   UNK N   1      34.514  13.113  16.785  0.00  0.00    -0.356 OA
HETATM   32  C   UNK N   1      35.190  13.531  17.904  0.00  0.00     0.210 C 
ENDBRANCH  28  31
ENDBRANCH   3  25
BRANCH  11  33
HETATM   33  C   UNK N   1      39.301  11.417   9.457  0.00  0.00     0.268 C 
HETATM   34  O   UNK N   1      39.396  10.201   9.484  0.00  0.00    -0.266 OA
HETATM   35  N   UNK N   1      40.270  12.148   8.872  0.00  0.00    -0.365 N 
HETATM   36  H   UNK N   1      41.049  11.701   8.469  0.00  0.00     0.159 HD
HETATM   37  H   UNK N   1      40.200  13.130   8.847  0.00  0.00     0.159 HD
ENDBRANCH  11  33
TORSDOF 5
ENDMDL
MODEL 6
REMARK VINA RESULT:      -7.5      3.106     10.514
REMARK  5 active torsions:
REMARK  status: ('A' for Active; 'I' for Inactive)
REMARK    1  A    between atoms: O_4  and  C_34 
REMARK    2  A    between atoms: N_5  and  C_20 
REMARK    3  A    between atoms: N_6  and  C_21 
REMARK    4  A    between atoms: N_7  and  C_28 
REMARK       I    between atoms: N_10  and  C_29 
REMARK    5  A    between atoms: C_23  and  C_29 
ROOT
HETATM    1  O   UNK N   1      30.266  15.959   4.998  0.00  0.00    -0.265 OA
HETATM    2  N   UNK N   1      29.467  17.171   6.708  0.00  0.00    -0.312 N 
HETATM    3  N   UNK N   1      33.045  16.176   5.884  0.00  0.00    -0.250 N 
HETATM    4  N   UNK N   1      34.071  16.574   6.627  0.00  0.00    -0.287 N 
ATOM      5  HN  UNK N   1      35.050  16.341   6.462  1.00  0.00     0.188 HD
HETATM    6  C   UNK N   1      31.212  18.139   8.376  0.00  0.00     0.064 A 
HETATM    7  C   UNK N   1      29.729  17.966   7.920  0.00  0.00     0.137 A 
HETATM    8  C   UNK N   1      32.221  17.426   7.530  0.00  0.00     0.011 A 
HETATM    9  C   UNK N   1      31.899  16.701   6.432  0.00  0.00     0.133 A 
HETATM   10  C   UNK N   1      30.503  16.583   6.004  0.00  0.00     0.277 A 
HETATM   11  C   UNK N   1      33.601  17.338   7.639  0.00  0.00     0.125 A 
ENDROOT
BRANCH   2  12
HETATM   12  C   UNK N   1      28.092  16.999   6.251  0.00  0.00     0.037 A 
HETATM   13  C   UNK N   1      27.564  17.882   5.303  0.00  0.00     0.032 A 
HETATM   14  C   UNK N   1      26.290  17.797   4.823  0.00  0.00     0.032 A 
HETATM   15  C   UNK N   1      25.424  16.809   5.253  0.00  0.00     0.037 A 
HETATM   16  C   UNK N   1      25.908  15.879   6.214  0.00  0.00     0.032 A 
HETATM   17  C   UNK N   1      27.238  15.973   6.711  0.00  0.00     0.032 A 
BRANCH  15  18
HETATM   18  N   UNK N   1      24.078  16.756   4.725  0.00  0.00    -0.318 N 
HETATM   19  C   UNK N   1      23.075  17.617   5.341  0.00  0.00     0.132 C 
HETATM   20  C   UNK N   1      21.642  17.198   5.037  0.00  0.00     0.021 C 
HETATM   21  C   UNK N   1      21.482  17.044   3.546  0.00  0.00     0.011 C 
HETATM   22  C   UNK N   1      22.350  15.898   3.075  0.00  0.00     0.103 C 
HETATM   23  C   UNK N   1      23.737  15.927   3.658  0.00  0.00     0.224 C 
HETATM   24  O   UNK N   1      24.555  15.175   3.150  0.00  0.00    -0.273 OA
ENDBRANCH  15  18
ENDBRANCH   2  12
BRANCH   3  25
HETATM   25  C   UNK N   1      33.244  15.323   4.712  0.00  0.00     0.057 A 
HETATM   26  C   UNK N   1      33.533  15.849   3.451  0.00  0.00     0.034 A 
HETATM   27  C   UNK N   1      33.729  15.058   2.330  0.00  0.00     0.039 A 
HETATM   28  C   UNK N   1      33.637  13.681   2.433  0.00  0.00     0.068 A 
HETATM   29  C   UNK N   1      33.341  13.105   3.688  0.00  0.00     0.039 A 
HETATM   30  C   UNK N   1      33.146  13.923   4.819  0.00  0.00     0.034 A 
BRANCH  28  31
HETATM   31  O   UNK N   1      33.836  12.940   1.318  0.00  0.00    -0.356 OA
HETATM   32  C   UNK N   1      34.913  13.102   0.482  0.00  0.00     0.210 C 
ENDBRANCH  28  31
ENDBRANCH   3  25
BRANCH  11  33
HETATM   33  C   UNK N   1      34.469  17.953   8.660  0.00  0.00     0.268 C 
HETATM   34  O   UNK N   1      35.025  19.016   8.441  0.00  0.00    -0.266 OA
HETATM   35  N   UNK N   1      34.655  17.336   9.845  0.00  0.00    -0.365 N 
HETATM   36  H   UNK N   1      35.235  17.745  10.527  0.00  0.00     0.159 HD
HETATM   37  H   UNK N   1      34.210  16.477  10.028  0.00  0.00     0.159 HD
ENDBRANCH  11  33
TORSDOF 5
ENDMDL
MODEL 7
REMARK VINA RESULT:      -7.4      4.124      9.593
REMARK  5 active torsions:
REMARK  status: ('A' for Active; 'I' for Inactive)
REMARK    1  A    between atoms: O_4  and  C_34 
REMARK    2  A    between atoms: N_5  and  C_20 
REMARK    3  A    between atoms: N_6  and  C_21 
REMARK    4  A    between atoms: N_7  and  C_28 
REMARK       I    between atoms: N_10  and  C_29 
REMARK    5  A    between atoms: C_23  and  C_29 
ROOT
HETATM    1  O   UNK N   1      26.295  16.790   3.906  0.00  0.00    -0.265 OA
HETATM    2  N   UNK N   1      26.948  14.962   2.782  0.00  0.00    -0.312 N 
HETATM    3  N   UNK N   1      29.030  17.670   4.457  0.00  0.00    -0.250 N 
HETATM    4  N   UNK N   1      30.356  17.621   4.477  0.00  0.00    -0.287 N 
ATOM      5  HN  UNK N   1      30.971  18.313   4.906  1.00  0.00     0.188 HD
HETATM    6  C   UNK N   1      29.508  14.529   2.632  0.00  0.00     0.064 A 
HETATM    7  C   UNK N   1      28.043  14.105   2.299  0.00  0.00     0.137 A 
HETATM    8  C   UNK N   1      29.637  15.814   3.390  0.00  0.00     0.011 A 
HETATM    9  C   UNK N   1      28.576  16.556   3.791  0.00  0.00     0.133 A 
HETATM   10  C   UNK N   1      27.210  16.118   3.496  0.00  0.00     0.277 A 
HETATM   11  C   UNK N   1      30.757  16.500   3.835  0.00  0.00     0.125 A 
ENDROOT
BRANCH   2  12
HETATM   12  C   UNK N   1      25.567  14.586   2.495  0.00  0.00     0.037 A 
HETATM   13  C   UNK N   1      25.086  14.676   1.185  0.00  0.00     0.032 A 
HETATM   14  C   UNK N   1      23.811  14.349   0.828  0.00  0.00     0.032 A 
HETATM   15  C   UNK N   1      22.895  13.897   1.761  0.00  0.00     0.037 A 
HETATM   16  C   UNK N   1      23.331  13.782   3.110  0.00  0.00     0.032 A 
HETATM   17  C   UNK N   1      24.663  14.124   3.477  0.00  0.00     0.032 A 
BRANCH  15  18
HETATM   18  N   UNK N   1      21.550  13.567   1.344  0.00  0.00    -0.318 N 
HETATM   19  C   UNK N   1      21.135  12.172   1.438  0.00  0.00     0.132 C 
HETATM   20  C   UNK N   1      19.906  11.843   0.598  0.00  0.00     0.021 C 
HETATM   21  C   UNK N   1      18.813  12.830   0.924  0.00  0.00     0.011 C 
HETATM   22  C   UNK N   1      19.250  14.209   0.483  0.00  0.00     0.103 C 
HETATM   23  C   UNK N   1      20.665  14.537   0.878  0.00  0.00     0.224 C 
HETATM   24  O   UNK N   1      21.005  15.705   0.761  0.00  0.00    -0.273 OA
ENDBRANCH  15  18
ENDBRANCH   2  12
BRANCH   3  25
HETATM   25  C   UNK N   1      28.303  18.781   5.073  0.00  0.00     0.057 A 
HETATM   26  C   UNK N   1      28.151  18.893   6.456  0.00  0.00     0.034 A 
HETATM   27  C   UNK N   1      27.472  19.939   7.059  0.00  0.00     0.039 A 
HETATM   28  C   UNK N   1      26.902  20.931   6.280  0.00  0.00     0.068 A 
HETATM   29  C   UNK N   1      27.025  20.856   4.876  0.00  0.00     0.039 A 
HETATM   30  C   UNK N   1      27.722  19.786   4.278  0.00  0.00     0.034 A 
BRANCH  28  31
HETATM   31  O   UNK N   1      26.246  21.938   6.903  0.00  0.00    -0.356 OA
HETATM   32  C   UNK N   1      25.656  21.810   8.136  0.00  0.00     0.210 C 
ENDBRANCH  28  31
ENDBRANCH   3  25
BRANCH  11  33
HETATM   33  C   UNK N   1      32.173  16.124   3.670  0.00  0.00     0.268 C 
HETATM   34  O   UNK N   1      32.773  15.565   4.573  0.00  0.00    -0.266 OA
HETATM   35  N   UNK N   1      32.813  16.401   2.516  0.00  0.00    -0.365 N 
HETATM   36  H   UNK N   1      33.759  16.151   2.406  0.00  0.00     0.159 HD
HETATM   37  H   UNK N   1      32.335  16.853   1.784  0.00  0.00     0.159 HD
ENDBRANCH  11  33
TORSDOF 5
ENDMDL
MODEL 8
REMARK VINA RESULT:      -7.4     10.799     15.346
REMARK  5 active torsions:
REMARK  status: ('A' for Active; 'I' for Inactive)
REMARK    1  A    between atoms: O_4  and  C_34 
REMARK    2  A    between atoms: N_5  and  C_20 
REMARK    3  A    between atoms: N_6  and  C_21 
REMARK    4  A    between atoms: N_7  and  C_28 
REMARK       I    between atoms: N_10  and  C_29 
REMARK    5  A    between atoms: C_23  and  C_29 
ROOT
HETATM    1  O   UNK N   1      37.113  12.473  11.161  0.00  0.00    -0.265 OA
HETATM    2  N   UNK N   1      35.399  13.823  11.684  0.00  0.00    -0.312 N 
HETATM    3  N   UNK N   1      37.067  13.187   8.324  0.00  0.00    -0.250 N 
HETATM    4  N   UNK N   1      36.639  13.767   7.210  0.00  0.00    -0.287 N 
ATOM      5  HN  UNK N   1      37.042  13.641   6.281  1.00  0.00     0.188 HD
HETATM    6  C   UNK N   1      34.288  15.121   9.723  0.00  0.00     0.064 A 
HETATM    7  C   UNK N   1      34.363  14.771  11.243  0.00  0.00     0.137 A 
HETATM    8  C   UNK N   1      35.330  14.466   8.871  0.00  0.00     0.011 A 
HETATM    9  C   UNK N   1      36.263  13.610   9.356  0.00  0.00     0.133 A 
HETATM   10  C   UNK N   1      36.290  13.270  10.780  0.00  0.00     0.277 A 
HETATM   11  C   UNK N   1      35.580  14.553   7.511  0.00  0.00     0.125 A 
ENDROOT
BRANCH   2  12
HETATM   12  C   UNK N   1      35.489  13.469  13.097  0.00  0.00     0.037 A 
HETATM   13  C   UNK N   1      34.657  12.469  13.611  0.00  0.00     0.032 A 
HETATM   14  C   UNK N   1      34.672  12.077  14.918  0.00  0.00     0.032 A 
HETATM   15  C   UNK N   1      35.531  12.656  15.834  0.00  0.00     0.037 A 
HETATM   16  C   UNK N   1      36.403  13.678  15.365  0.00  0.00     0.032 A 
HETATM   17  C   UNK N   1      36.383  14.082  14.001  0.00  0.00     0.032 A 
BRANCH  15  18
HETATM   18  N   UNK N   1      35.511  12.218  17.212  0.00  0.00    -0.318 N 
HETATM   19  C   UNK N   1      35.824  10.819  17.483  0.00  0.00     0.132 C 
HETATM   20  C   UNK N   1      35.367  10.347  18.858  0.00  0.00     0.021 C 
HETATM   21  C   UNK N   1      35.886  11.303  19.902  0.00  0.00     0.011 C 
HETATM   22  C   UNK N   1      35.235  12.653  19.698  0.00  0.00     0.103 C 
HETATM   23  C   UNK N   1      35.216  13.091  18.258  0.00  0.00     0.224 C 
HETATM   24  O   UNK N   1      34.918  14.258  18.049  0.00  0.00    -0.273 OA
ENDBRANCH  15  18
ENDBRANCH   2  12
BRANCH   3  25
HETATM   25  C   UNK N   1      38.214  12.278   8.313  0.00  0.00     0.057 A 
HETATM   26  C   UNK N   1      39.518  12.726   8.533  0.00  0.00     0.034 A 
HETATM   27  C   UNK N   1      40.617  11.882   8.532  0.00  0.00     0.039 A 
HETATM   28  C   UNK N   1      40.446  10.528   8.300  0.00  0.00     0.068 A 
HETATM   29  C   UNK N   1      39.145  10.031   8.067  0.00  0.00     0.039 A 
HETATM   30  C   UNK N   1      38.038  10.903   8.074  0.00  0.00     0.034 A 
BRANCH  28  31
HETATM   31  O   UNK N   1      41.541   9.733   8.307  0.00  0.00    -0.356 OA
HETATM   32  C   UNK N   1      41.821   8.836   9.308  0.00  0.00     0.210 C 
ENDBRANCH  28  31
ENDBRANCH   3  25
BRANCH  11  33
HETATM   33  C   UNK N   1      34.851  15.348   6.506  0.00  0.00     0.268 C 
HETATM   34  O   UNK N   1      35.019  16.554   6.430  0.00  0.00    -0.266 OA
HETATM   35  N   UNK N   1      33.989  14.742   5.665  0.00  0.00    -0.365 N 
HETATM   36  H   UNK N   1      33.501  15.272   4.993  0.00  0.00     0.159 HD
HETATM   37  H   UNK N   1      33.848  13.769   5.721  0.00  0.00     0.159 HD
ENDBRANCH  11  33
TORSDOF 5
ENDMDL
MODEL 9
REMARK VINA RESULT:      -7.4     10.403     14.932
REMARK  5 active torsions:
REMARK  status: ('A' for Active; 'I' for Inactive)
REMARK    1  A    between atoms: O_4  and  C_34 
REMARK    2  A    between atoms: N_5  and  C_20 
REMARK    3  A    between atoms: N_6  and  C_21 
REMARK    4  A    between atoms: N_7  and  C_28 
REMARK       I    between atoms: N_10  and  C_29 
REMARK    5  A    between atoms: C_23  and  C_29 
ROOT
HETATM    1  O   UNK N   1      36.984  12.865  10.524  0.00  0.00    -0.265 OA
HETATM    2  N   UNK N   1      35.288  14.159  11.215  0.00  0.00    -0.312 N 
HETATM    3  N   UNK N   1      36.824  13.792   7.754  0.00  0.00    -0.250 N 
HETATM    4  N   UNK N   1      36.351  14.452   6.705  0.00  0.00    -0.287 N 
ATOM      5  HN  UNK N   1      36.718  14.400   5.754  1.00  0.00     0.188 HD
HETATM    6  C   UNK N   1      34.095  15.595   9.404  0.00  0.00     0.064 A 
HETATM    7  C   UNK N   1      34.232  15.132  10.889  0.00  0.00     0.137 A 
HETATM    8  C   UNK N   1      35.106  15.014   8.465  0.00  0.00     0.011 A 
HETATM    9  C   UNK N   1      36.060  14.130   8.846  0.00  0.00     0.133 A 
HETATM   10  C   UNK N   1      36.144  13.683  10.238  0.00  0.00     0.277 A 
HETATM   11  C   UNK N   1      35.302  15.206   7.106  0.00  0.00     0.125 A 
ENDROOT
BRANCH   2  12
HETATM   12  C   UNK N   1      35.434  13.699  12.593  0.00  0.00     0.037 A 
HETATM   13  C   UNK N   1      34.691  12.601  13.036  0.00  0.00     0.032 A 
HETATM   14  C   UNK N   1      34.762  12.106  14.305  0.00  0.00     0.032 A 
HETATM   15  C   UNK N   1      35.595  12.673  15.252  0.00  0.00     0.037 A 
HETATM   16  C   UNK N   1      36.379  13.792  14.856  0.00  0.00     0.032 A 
HETATM   17  C   UNK N   1      36.300  14.303  13.530  0.00  0.00     0.032 A 
BRANCH  15  18
HETATM   18  N   UNK N   1      35.638  12.124  16.589  0.00  0.00    -0.318 N 
HETATM   19  C   UNK N   1      34.979  12.876  17.652  0.00  0.00     0.132 C 
HETATM   20  C   UNK N   1      35.430  12.476  19.051  0.00  0.00     0.021 C 
HETATM   21  C   UNK N   1      35.309  10.980  19.196  0.00  0.00     0.011 C 
HETATM   22  C   UNK N   1      36.284  10.315  18.250  0.00  0.00     0.103 C 
HETATM   23  C   UNK N   1      36.272  10.914  16.870  0.00  0.00     0.224 C 
HETATM   24  O   UNK N   1      36.857  10.287  15.999  0.00  0.00    -0.273 OA
ENDBRANCH  15  18
ENDBRANCH   2  12
BRANCH   3  25
HETATM   25  C   UNK N   1      37.974  12.895   7.630  0.00  0.00     0.057 A 
HETATM   26  C   UNK N   1      37.827  11.537   7.340  0.00  0.00     0.034 A 
HETATM   27  C   UNK N   1      38.902  10.672   7.212  0.00  0.00     0.039 A 
HETATM   28  C   UNK N   1      40.192  11.145   7.381  0.00  0.00     0.068 A 
HETATM   29  C   UNK N   1      40.388  12.510   7.682  0.00  0.00     0.039 A 
HETATM   30  C   UNK N   1      39.284  13.378   7.806  0.00  0.00     0.034 A 
BRANCH  28  31
HETATM   31  O   UNK N   1      41.217  10.272   7.249  0.00  0.00    -0.356 OA
HETATM   32  C   UNK N   1      41.407   9.486   6.138  0.00  0.00     0.210 C 
ENDBRANCH  28  31
ENDBRANCH   3  25
BRANCH  11  33
HETATM   33  C   UNK N   1      34.531  16.071   6.194  0.00  0.00     0.268 C 
HETATM   34  O   UNK N   1      34.592  17.285   6.293  0.00  0.00    -0.266 OA
HETATM   35  N   UNK N   1      33.749  15.518   5.244  0.00  0.00    -0.365 N 
HETATM   36  H   UNK N   1      33.233  16.094   4.635  0.00  0.00     0.159 HD
HETATM   37  H   UNK N   1      33.693  14.539   5.160  0.00  0.00     0.159 HD
ENDBRANCH  11  33
TORSDOF 5
ENDMDL
