REMARK  7 active torsions:
REMARK  status: ('A' for Active; 'I' for Inactive)
REMARK    1  A    between atoms: C_6  and  C_5 
REMARK    2  A    between atoms: C_7  and  C_6 
REMARK    3  A    between atoms: C_8  and  C_7 
REMARK    4  A    between atoms: C_24  and  C_8 
REMARK    5  A    between atoms: C_27  and  C_18 
REMARK    6  A    between atoms: O_31  and  C_24 
REMARK    7  A    between atoms: C_27  and  O_31 
ROOT
HETATM    1  C   UNK N   1       3.539  -4.036   2.008  0.00  0.00     0.020 C 
HETATM    2  C   UNK N   1       7.606  -3.690   1.797  0.00  0.00     0.019 C 
HETATM    3  C   UNK N   1       4.240  -6.910   1.279  0.00  0.00     0.035 C 
HETATM    4  C   UNK N   1       5.520  -6.059   1.161  0.00  0.00     0.010 C 
HETATM    5  C   UNK N   1       0.992  -4.736  -0.667  0.00  0.00     0.084 C 
HETATM    6  C   UNK N   1       4.725  -2.904  -0.461  0.00  0.00     0.007 C 
HETATM    7  C   UNK N   1       7.092  -4.157  -1.860  0.00  0.00     0.009 C 
HETATM    8  C   UNK N   1       1.869  -3.900   0.246  0.00  0.00     0.022 C 
HETATM    9  C   UNK N   1       5.734  -2.620   0.646  0.00  0.00     0.013 C 
HETATM   10  C   UNK N   1       8.283  -3.229  -1.749  0.00  0.00     0.048 C 
HETATM   11  C   UNK N   1       1.875  -6.767   0.596  0.00  0.00     0.053 C 
HETATM   12  C   UNK N   1       3.029  -6.125   0.839  0.00  0.00    -0.068 C 
HETATM   13  C   UNK N   1       0.735  -6.038   0.020  0.00  0.00     0.149 C 
HETATM   14  C   UNK N   1       5.561  -5.348  -0.207  0.00  0.00    -0.004 C 
HETATM   15  C   UNK N   1       4.317  -4.388  -0.411  0.00  0.00     0.002 C 
HETATM   16  C   UNK N   1       6.915  -4.626  -0.430  0.00  0.00     0.002 C 
HETATM   17  C   UNK N   1       3.179  -4.620   0.640  0.00  0.00    -0.016 C 
HETATM   18  C   UNK N   1       7.089  -3.331   0.404  0.00  0.00    -0.001 C 
HETATM   19  C   UNK N   1       8.058  -2.427  -0.463  0.00  0.00     0.138 C 
HETATM   20  O   UNK N   1      -0.392  -6.501   0.073  0.00  0.00    -0.293 OA
ENDROOT
BRANCH  19  21
HETATM   21  C   UNK N   1       9.386  -2.127   0.243  0.00  0.00     0.158 C 
HETATM   22  C   UNK N   1      10.698  -2.578  -0.317  0.00  0.00     0.094 C 
HETATM   23  O   UNK N   1       9.385  -1.497   1.291  0.00  0.00    -0.295 OA
ENDBRANCH  19  21
BRANCH  19  24
HETATM   24  O   UNK N   1       7.365  -1.271  -0.837  0.00  0.00    -0.301 OA
BRANCH  24  25
HETATM   25  C   UNK N   1       7.732   0.032  -0.734  0.00  0.00     0.260 C 
HETATM   26  O   UNK N   1       8.908   0.367  -0.740  0.00  0.00    -0.265 OA
BRANCH  25  27
HETATM   27  C   UNK N   1       6.671   1.064  -0.593  0.00  0.00     0.111 C 
BRANCH  27  28
HETATM   28  C   UNK N   1       6.731   1.625   0.819  0.00  0.00     0.010 C 
BRANCH  28  29
HETATM   29  C   UNK N   1       6.603   3.138   0.822  0.00  0.00     0.000 C 
BRANCH  29  30
HETATM   30  C   UNK N   1       7.857   3.792   0.266  0.00  0.00    -0.005 C 
HETATM   31  C   UNK N   1       7.729   3.974  -1.235  0.00  0.00     0.005 C 
ENDBRANCH  29  30
ENDBRANCH  28  29
ENDBRANCH  27  28
ENDBRANCH  25  27
ENDBRANCH  24  25
ENDBRANCH  19  24
TORSDOF 7
