MODEL 1
REMARK VINA RESULT:      -7.8      0.000      0.000
REMARK  7 active torsions:
REMARK  status: ('A' for Active; 'I' for Inactive)
REMARK    1  A    between atoms: C_19  and  C_18 
REMARK    2  A    between atoms: N_29  and  C_18 
REMARK    3  A    between atoms: O_31  and  C_19 
REMARK    4  A    between atoms: C_26  and  C_21 
REMARK    5  A    between atoms: C_28  and  C_22 
REMARK    6  A    between atoms: O_30  and  C_24 
REMARK    7  A    between atoms: O_31  and  C_25 
ROOT
HETATM    1  C   UNK N   1      34.633  12.202  16.494  0.00  0.00     0.040 C 
HETATM    2  C   UNK N   1      37.224  15.644  16.594  0.00  0.00     0.037 A 
HETATM    3  C   UNK N   1      34.672  11.399  15.192  0.00  0.00     0.015 C 
HETATM    4  C   UNK N   1      37.362  14.719  15.558  0.00  0.00     0.011 A 
HETATM    5  C   UNK N   1      35.441  14.314  17.544  0.00  0.00     0.044 A 
HETATM    6  C   UNK N   1      35.565  13.382  16.508  0.00  0.00    -0.048 A 
HETATM    7  C   UNK N   1      36.271  15.437  17.591  0.00  0.00     0.066 A 
HETATM    8  C   UNK N   1      36.111  11.199  14.731  0.00  0.00     0.032 C 
HETATM    9  C   UNK N   1      36.550  13.575  15.508  0.00  0.00    -0.043 A 
HETATM   10  C   UNK N   1      36.781  12.564  14.401  0.00  0.00     0.060 C 
ENDROOT
BRANCH  10  11
HETATM   11  C   UNK N   1      36.447  13.171  13.053  0.00  0.00    -0.049 A 
HETATM   12  C   UNK N   1      35.285  13.944  12.940  0.00  0.00     0.011 A 
HETATM   13  C   UNK N   1      34.936  14.528  11.728  0.00  0.00     0.037 A 
HETATM   14  C   UNK N   1      35.754  14.368  10.599  0.00  0.00     0.068 A 
HETATM   15  C   UNK N   1      36.916  13.589  10.702  0.00  0.00     0.037 A 
HETATM   16  C   UNK N   1      37.256  12.980  11.920  0.00  0.00     0.011 A 
BRANCH  14  17
HETATM   17  O   UNK N   1      35.441  14.957   9.420  0.00  0.00    -0.349 OA
BRANCH  17  18
HETATM   18  C   UNK N   1      34.270  15.670   9.247  0.00  0.00     0.206 C 
BRANCH  18  19
HETATM   19  C   UNK N   1      34.550  17.142   8.956  0.00  0.00     0.299 C 
BRANCH  19  20
HETATM   20  N   UNK N   1      33.501  17.758   8.153  0.00  0.00     0.090 N 
HETATM   21  C   UNK N   1      33.844  17.535   6.757  0.00  0.00     0.272 C 
HETATM   22  C   UNK N   1      32.555  17.282   5.998  0.00  0.00     0.032 C 
HETATM   23  C   UNK N   1      31.484  17.164   7.055  0.00  0.00     0.032 C 
HETATM   24  C   UNK N   1      32.249  17.043   8.352  0.00  0.00     0.272 C 
ENDBRANCH  19  20
ENDBRANCH  18  19
ENDBRANCH  17  18
ENDBRANCH  14  17
ENDBRANCH  10  11
BRANCH   8  25
HETATM   25  C   UNK N   1      36.180  10.164  13.629  0.00  0.00    -0.053 A 
HETATM   26  C   UNK N   1      35.014   9.806  12.935  0.00  0.00     0.007 A 
HETATM   27  C   UNK N   1      35.070   8.881  11.888  0.00  0.00     0.001 A 
HETATM   28  C   UNK N   1      36.293   8.321  11.513  0.00  0.00     0.000 A 
HETATM   29  C   UNK N   1      37.462   8.678  12.190  0.00  0.00     0.001 A 
HETATM   30  C   UNK N   1      37.405   9.594  13.245  0.00  0.00     0.007 A 
ENDBRANCH   8  25
BRANCH   7  31
HETATM   31  O   UNK N   1      36.151  16.319  18.596  0.00  0.00    -0.361 OA
HETATM   32  H   UNK N   1      36.194  16.039  19.489  0.00  0.00     0.217 HD
ENDBRANCH   7  31
TORSDOF 7
ENDMDL
MODEL 2
REMARK VINA RESULT:      -7.6      1.011      1.193
REMARK  7 active torsions:
REMARK  status: ('A' for Active; 'I' for Inactive)
REMARK    1  A    between atoms: C_19  and  C_18 
REMARK    2  A    between atoms: N_29  and  C_18 
REMARK    3  A    between atoms: O_31  and  C_19 
REMARK    4  A    between atoms: C_26  and  C_21 
REMARK    5  A    between atoms: C_28  and  C_22 
REMARK    6  A    between atoms: O_30  and  C_24 
REMARK    7  A    between atoms: O_31  and  C_25 
ROOT
HETATM    1  C   UNK N   1      34.181  11.314  15.357  0.00  0.00     0.040 C 
HETATM    2  C   UNK N   1      36.692  14.609  16.545  0.00  0.00     0.037 A 
HETATM    3  C   UNK N   1      34.322  10.888  13.894  0.00  0.00     0.015 C 
HETATM    4  C   UNK N   1      36.917  13.994  15.313  0.00  0.00     0.011 A 
HETATM    5  C   UNK N   1      34.877  13.072  16.983  0.00  0.00     0.044 A 
HETATM    6  C   UNK N   1      35.088  12.450  15.747  0.00  0.00    -0.048 A 
HETATM    7  C   UNK N   1      35.680  14.142  17.383  0.00  0.00     0.066 A 
HETATM    8  C   UNK N   1      35.792  10.819  13.497  0.00  0.00     0.032 C 
HETATM    9  C   UNK N   1      36.132  12.903  14.905  0.00  0.00    -0.043 A 
HETATM   10  C   UNK N   1      36.455  12.224  13.588  0.00  0.00     0.060 C 
ENDROOT
BRANCH  10  11
HETATM   11  C   UNK N   1      36.199  13.167  12.430  0.00  0.00    -0.049 A 
HETATM   12  C   UNK N   1      34.952  13.801  12.349  0.00  0.00     0.011 A 
HETATM   13  C   UNK N   1      34.669  14.680  11.311  0.00  0.00     0.037 A 
HETATM   14  C   UNK N   1      35.635  14.963  10.334  0.00  0.00     0.068 A 
HETATM   15  C   UNK N   1      36.884  14.327  10.403  0.00  0.00     0.037 A 
HETATM   16  C   UNK N   1      37.162  13.421  11.438  0.00  0.00     0.011 A 
BRANCH  14  17
HETATM   17  O   UNK N   1      35.381  15.840   9.334  0.00  0.00    -0.349 OA
BRANCH  17  18
HETATM   18  C   UNK N   1      34.491  16.887   9.486  0.00  0.00     0.206 C 
BRANCH  18  19
HETATM   19  C   UNK N   1      34.662  17.931   8.386  0.00  0.00     0.299 C 
BRANCH  19  20
HETATM   20  N   UNK N   1      33.411  18.214   7.693  0.00  0.00     0.090 N 
HETATM   21  C   UNK N   1      33.475  17.541   6.405  0.00  0.00     0.272 C 
HETATM   22  C   UNK N   1      32.088  17.015   6.087  0.00  0.00     0.032 C 
HETATM   23  C   UNK N   1      31.279  17.236   7.342  0.00  0.00     0.032 C 
HETATM   24  C   UNK N   1      32.307  17.579   8.395  0.00  0.00     0.272 C 
ENDBRANCH  19  20
ENDBRANCH  18  19
ENDBRANCH  17  18
ENDBRANCH  14  17
ENDBRANCH  10  11
BRANCH   8  25
HETATM   25  C   UNK N   1      35.953  10.115  12.166  0.00  0.00    -0.053 A 
HETATM   26  C   UNK N   1      34.835   9.914  11.343  0.00  0.00     0.007 A 
HETATM   27  C   UNK N   1      34.976   9.302  10.095  0.00  0.00     0.001 A 
HETATM   28  C   UNK N   1      36.238   8.902   9.650  0.00  0.00     0.000 A 
HETATM   29  C   UNK N   1      37.361   9.107  10.456  0.00  0.00     0.001 A 
HETATM   30  C   UNK N   1      37.219   9.708  11.710  0.00  0.00     0.007 A 
ENDBRANCH   8  25
BRANCH   7  31
HETATM   31  O   UNK N   1      35.477  14.725  18.576  0.00  0.00    -0.361 OA
HETATM   32  H   UNK N   1      34.721  15.258  18.728  0.00  0.00     0.217 HD
ENDBRANCH   7  31
TORSDOF 7
ENDMDL
MODEL 3
REMARK VINA RESULT:      -7.5     18.533     22.786
REMARK  7 active torsions:
REMARK  status: ('A' for Active; 'I' for Inactive)
REMARK    1  A    between atoms: C_19  and  C_18 
REMARK    2  A    between atoms: N_29  and  C_18 
REMARK    3  A    between atoms: O_31  and  C_19 
REMARK    4  A    between atoms: C_26  and  C_21 
REMARK    5  A    between atoms: C_28  and  C_22 
REMARK    6  A    between atoms: O_30  and  C_24 
REMARK    7  A    between atoms: O_31  and  C_25 
ROOT
HETATM    1  C   UNK N   1      27.377  27.674  -6.995  0.00  0.00     0.040 C 
HETATM    2  C   UNK N   1      26.424  28.790  -2.942  0.00  0.00     0.037 A 
HETATM    3  C   UNK N   1      27.643  26.183  -7.210  0.00  0.00     0.015 C 
HETATM    4  C   UNK N   1      26.445  27.438  -3.287  0.00  0.00     0.011 A 
HETATM    5  C   UNK N   1      26.992  29.381  -5.218  0.00  0.00     0.044 A 
HETATM    6  C   UNK N   1      27.023  28.029  -5.576  0.00  0.00    -0.048 A 
HETATM    7  C   UNK N   1      26.687  29.761  -3.909  0.00  0.00     0.066 A 
HETATM    8  C   UNK N   1      26.595  25.344  -6.487  0.00  0.00     0.032 C 
HETATM    9  C   UNK N   1      26.729  27.041  -4.604  0.00  0.00    -0.043 A 
HETATM   10  C   UNK N   1      26.676  25.565  -4.948  0.00  0.00     0.060 C 
ENDROOT
BRANCH  10  11
HETATM   11  C   UNK N   1      27.768  24.812  -4.216  0.00  0.00    -0.049 A 
HETATM   12  C   UNK N   1      27.397  23.913  -3.207  0.00  0.00     0.011 A 
HETATM   13  C   UNK N   1      28.360  23.192  -2.510  0.00  0.00     0.037 A 
HETATM   14  C   UNK N   1      29.721  23.339  -2.817  0.00  0.00     0.068 A 
HETATM   15  C   UNK N   1      30.101  24.243  -3.820  0.00  0.00     0.037 A 
HETATM   16  C   UNK N   1      29.131  24.988  -4.509  0.00  0.00     0.011 A 
BRANCH  14  17
HETATM   17  O   UNK N   1      30.665  22.621  -2.164  0.00  0.00    -0.349 OA
BRANCH  17  18
HETATM   18  C   UNK N   1      31.779  22.118  -2.809  0.00  0.00     0.206 C 
BRANCH  18  19
HETATM   19  C   UNK N   1      31.428  20.905  -3.667  0.00  0.00     0.299 C 
BRANCH  19  20
HETATM   20  N   UNK N   1      31.607  21.163  -5.090  0.00  0.00     0.090 N 
HETATM   21  C   UNK N   1      32.615  20.230  -5.570  0.00  0.00     0.272 C 
HETATM   22  C   UNK N   1      32.217  19.796  -6.967  0.00  0.00     0.032 C 
HETATM   23  C   UNK N   1      30.833  20.359  -7.183  0.00  0.00     0.032 C 
HETATM   24  C   UNK N   1      30.394  20.808  -5.809  0.00  0.00     0.272 C 
ENDBRANCH  19  20
ENDBRANCH  18  19
ENDBRANCH  17  18
ENDBRANCH  14  17
ENDBRANCH  10  11
BRANCH   8  25
HETATM   25  C   UNK N   1      26.665  23.900  -6.935  0.00  0.00    -0.053 A 
HETATM   26  C   UNK N   1      25.590  23.036  -6.674  0.00  0.00     0.007 A 
HETATM   27  C   UNK N   1      25.623  21.711  -7.118  0.00  0.00     0.001 A 
HETATM   28  C   UNK N   1      26.722  21.243  -7.842  0.00  0.00     0.000 A 
HETATM   29  C   UNK N   1      27.793  22.096  -8.117  0.00  0.00     0.001 A 
HETATM   30  C   UNK N   1      27.766  23.418  -7.663  0.00  0.00     0.007 A 
ENDBRANCH   8  25
BRANCH   7  31
HETATM   31  O   UNK N   1      26.649  31.062  -3.578  0.00  0.00    -0.361 OA
HETATM   32  H   UNK N   1      26.118  31.361  -2.867  0.00  0.00     0.217 HD
ENDBRANCH   7  31
TORSDOF 7
ENDMDL
MODEL 4
REMARK VINA RESULT:      -7.4      3.326      9.662
REMARK  7 active torsions:
REMARK  status: ('A' for Active; 'I' for Inactive)
REMARK    1  A    between atoms: C_19  and  C_18 
REMARK    2  A    between atoms: N_29  and  C_18 
REMARK    3  A    between atoms: O_31  and  C_19 
REMARK    4  A    between atoms: C_26  and  C_21 
REMARK    5  A    between atoms: C_28  and  C_22 
REMARK    6  A    between atoms: O_30  and  C_24 
REMARK    7  A    between atoms: O_31  and  C_25 
ROOT
HETATM    1  C   UNK N   1      30.229  17.759   4.219  0.00  0.00     0.040 C 
HETATM    2  C   UNK N   1      28.125  18.312   7.940  0.00  0.00     0.037 A 
HETATM    3  C   UNK N   1      31.492  16.901   4.311  0.00  0.00     0.015 C 
HETATM    4  C   UNK N   1      29.142  17.359   7.869  0.00  0.00     0.011 A 
HETATM    5  C   UNK N   1      28.477  18.861   5.611  0.00  0.00     0.044 A 
HETATM    6  C   UNK N   1      29.503  17.914   5.528  0.00  0.00    -0.048 A 
HETATM    7  C   UNK N   1      27.787  19.055   6.809  0.00  0.00     0.066 A 
HETATM    8  C   UNK N   1      31.233  15.657   5.153  0.00  0.00     0.032 C 
HETATM    9  C   UNK N   1      29.832  17.137   6.666  0.00  0.00    -0.043 A 
HETATM   10  C   UNK N   1      30.884  16.045   6.619  0.00  0.00     0.060 C 
ENDROOT
BRANCH  10  11
HETATM   11  C   UNK N   1      32.051  16.397   7.520  0.00  0.00    -0.049 A 
HETATM   12  C   UNK N   1      32.374  15.522   8.565  0.00  0.00     0.011 A 
HETATM   13  C   UNK N   1      33.440  15.795   9.415  0.00  0.00     0.037 A 
HETATM   14  C   UNK N   1      34.222  16.944   9.229  0.00  0.00     0.068 A 
HETATM   15  C   UNK N   1      33.901  17.829   8.189  0.00  0.00     0.037 A 
HETATM   16  C   UNK N   1      32.811  17.566   7.345  0.00  0.00     0.011 A 
BRANCH  14  17
HETATM   17  O   UNK N   1      35.281  17.205  10.033  0.00  0.00    -0.349 OA
BRANCH  17  18
HETATM   18  C   UNK N   1      35.634  16.367  11.074  0.00  0.00     0.206 C 
BRANCH  18  19
HETATM   19  C   UNK N   1      36.651  15.320  10.628  0.00  0.00     0.299 C 
BRANCH  19  20
HETATM   20  N   UNK N   1      36.614  14.123  11.460  0.00  0.00     0.090 N 
HETATM   21  C   UNK N   1      36.268  14.549  12.807  0.00  0.00     0.272 C 
HETATM   22  C   UNK N   1      35.368  13.489  13.412  0.00  0.00     0.032 C 
HETATM   23  C   UNK N   1      35.048  12.542  12.280  0.00  0.00     0.032 C 
HETATM   24  C   UNK N   1      35.512  13.270  11.041  0.00  0.00     0.272 C 
ENDBRANCH  19  20
ENDBRANCH  18  19
ENDBRANCH  17  18
ENDBRANCH  14  17
ENDBRANCH  10  11
BRANCH   8  25
HETATM   25  C   UNK N   1      32.364  14.663   5.002  0.00  0.00    -0.053 A 
HETATM   26  C   UNK N   1      33.587  15.078   4.453  0.00  0.00     0.007 A 
HETATM   27  C   UNK N   1      34.654  14.181   4.344  0.00  0.00     0.001 A 
HETATM   28  C   UNK N   1      34.514  12.868   4.800  0.00  0.00     0.000 A 
HETATM   29  C   UNK N   1      33.304  12.447   5.358  0.00  0.00     0.001 A 
HETATM   30  C   UNK N   1      32.233  13.340   5.456  0.00  0.00     0.007 A 
ENDBRANCH   8  25
BRANCH   7  31
HETATM   31  O   UNK N   1      26.796  19.960   6.875  0.00  0.00    -0.361 OA
HETATM   32  H   UNK N   1      26.548  20.342   7.693  0.00  0.00     0.217 HD
ENDBRANCH   7  31
TORSDOF 7
ENDMDL
MODEL 5
REMARK VINA RESULT:      -7.1      1.776      2.505
REMARK  7 active torsions:
REMARK  status: ('A' for Active; 'I' for Inactive)
REMARK    1  A    between atoms: C_19  and  C_18 
REMARK    2  A    between atoms: N_29  and  C_18 
REMARK    3  A    between atoms: O_31  and  C_19 
REMARK    4  A    between atoms: C_26  and  C_21 
REMARK    5  A    between atoms: C_28  and  C_22 
REMARK    6  A    between atoms: O_30  and  C_24 
REMARK    7  A    between atoms: O_31  and  C_25 
ROOT
HETATM    1  C   UNK N   1      34.197  12.013  15.846  0.00  0.00     0.040 C 
HETATM    2  C   UNK N   1      37.116  15.134  16.412  0.00  0.00     0.037 A 
HETATM    3  C   UNK N   1      34.189  11.380  14.453  0.00  0.00     0.015 C 
HETATM    4  C   UNK N   1      37.188  14.336  15.269  0.00  0.00     0.011 A 
HETATM    5  C   UNK N   1      35.186  13.885  17.165  0.00  0.00     0.044 A 
HETATM    6  C   UNK N   1      35.243  13.082  16.020  0.00  0.00    -0.048 A 
HETATM    7  C   UNK N   1      36.122  14.903  17.363  0.00  0.00     0.066 A 
HETATM    8  C   UNK N   1      35.612  11.092  13.989  0.00  0.00     0.032 C 
HETATM    9  C   UNK N   1      36.266  13.296  15.066  0.00  0.00    -0.043 A 
HETATM   10  C   UNK N   1      36.423  12.412  13.843  0.00  0.00     0.060 C 
ENDROOT
BRANCH  10  11
HETATM   11  C   UNK N   1      36.186  13.212  12.578  0.00  0.00    -0.049 A 
HETATM   12  C   UNK N   1      37.202  13.256  11.615  0.00  0.00     0.011 A 
HETATM   13  C   UNK N   1      37.032  13.971  10.435  0.00  0.00     0.037 A 
HETATM   14  C   UNK N   1      35.829  14.646  10.179  0.00  0.00     0.068 A 
HETATM   15  C   UNK N   1      34.809  14.613  11.141  0.00  0.00     0.037 A 
HETATM   16  C   UNK N   1      34.989  13.912  12.343  0.00  0.00     0.011 A 
BRANCH  14  17
HETATM   17  O   UNK N   1      35.641  15.321   9.020  0.00  0.00    -0.349 OA
BRANCH  17  18
HETATM   18  C   UNK N   1      34.406  15.385   8.402  0.00  0.00     0.206 C 
BRANCH  18  19
HETATM   19  C   UNK N   1      34.448  14.775   7.004  0.00  0.00     0.299 C 
BRANCH  19  20
HETATM   20  N   UNK N   1      34.064  13.368   7.003  0.00  0.00     0.090 N 
HETATM   21  C   UNK N   1      35.279  12.594   7.209  0.00  0.00     0.272 C 
HETATM   22  C   UNK N   1      34.927  11.405   8.082  0.00  0.00     0.032 C 
HETATM   23  C   UNK N   1      33.508  11.646   8.536  0.00  0.00     0.032 C 
HETATM   24  C   UNK N   1      33.236  13.085   8.164  0.00  0.00     0.272 C 
ENDBRANCH  19  20
ENDBRANCH  18  19
ENDBRANCH  17  18
ENDBRANCH  14  17
ENDBRANCH  10  11
BRANCH   8  25
HETATM   25  C   UNK N   1      35.605  10.200  12.765  0.00  0.00    -0.053 A 
HETATM   26  C   UNK N   1      34.394   9.917  12.116  0.00  0.00     0.007 A 
HETATM   27  C   UNK N   1      34.378   9.129  10.962  0.00  0.00     0.001 A 
HETATM   28  C   UNK N   1      35.573   8.632  10.437  0.00  0.00     0.000 A 
HETATM   29  C   UNK N   1      36.786   8.917  11.069  0.00  0.00     0.001 A 
HETATM   30  C   UNK N   1      36.802   9.695  12.230  0.00  0.00     0.007 A 
ENDBRANCH   8  25
BRANCH   7  31
HETATM   31  O   UNK N   1      36.065  15.661  18.470  0.00  0.00    -0.361 OA
HETATM   32  H   UNK N   1      35.627  16.489  18.463  0.00  0.00     0.217 HD
ENDBRANCH   7  31
TORSDOF 7
ENDMDL
MODEL 6
REMARK VINA RESULT:      -7.0      4.502      6.831
REMARK  7 active torsions:
REMARK  status: ('A' for Active; 'I' for Inactive)
REMARK    1  A    between atoms: C_19  and  C_18 
REMARK    2  A    between atoms: N_29  and  C_18 
REMARK    3  A    between atoms: O_31  and  C_19 
REMARK    4  A    between atoms: C_26  and  C_21 
REMARK    5  A    between atoms: C_28  and  C_22 
REMARK    6  A    between atoms: O_30  and  C_24 
REMARK    7  A    between atoms: O_31  and  C_25 
ROOT
HETATM    1  C   UNK N   1      35.270  13.649  15.705  0.00  0.00     0.040 C 
HETATM    2  C   UNK N   1      35.188  11.070  19.157  0.00  0.00     0.037 A 
HETATM    3  C   UNK N   1      35.454  12.932  14.365  0.00  0.00     0.015 C 
HETATM    4  C   UNK N   1      35.110  10.504  17.884  0.00  0.00     0.011 A 
HETATM    5  C   UNK N   1      35.293  13.276  18.171  0.00  0.00     0.044 A 
HETATM    6  C   UNK N   1      35.221  12.721  16.888  0.00  0.00    -0.048 A 
HETATM    7  C   UNK N   1      35.270  12.456  19.300  0.00  0.00     0.066 A 
HETATM    8  C   UNK N   1      34.559  11.700  14.292  0.00  0.00     0.032 C 
HETATM    9  C   UNK N   1      35.110  11.317  16.739  0.00  0.00    -0.043 A 
HETATM   10  C   UNK N   1      34.956  10.662  15.380  0.00  0.00     0.060 C 
ENDROOT
BRANCH  10  11
HETATM   11  C   UNK N   1      36.158   9.791  15.073  0.00  0.00    -0.049 A 
HETATM   12  C   UNK N   1      37.412  10.404  14.951  0.00  0.00     0.011 A 
HETATM   13  C   UNK N   1      38.547   9.650  14.677  0.00  0.00     0.037 A 
HETATM   14  C   UNK N   1      38.459   8.257  14.537  0.00  0.00     0.068 A 
HETATM   15  C   UNK N   1      37.207   7.636  14.651  0.00  0.00     0.037 A 
HETATM   16  C   UNK N   1      36.057   8.400  14.904  0.00  0.00     0.011 A 
BRANCH  14  17
HETATM   17  O   UNK N   1      39.563   7.508  14.299  0.00  0.00    -0.349 OA
BRANCH  17  18
HETATM   18  C   UNK N   1      40.339   7.686  13.170  0.00  0.00     0.206 C 
BRANCH  18  19
HETATM   19  C   UNK N   1      40.084   6.591  12.138  0.00  0.00     0.299 C 
BRANCH  19  20
HETATM   20  N   UNK N   1      39.267   7.059  11.025  0.00  0.00     0.090 N 
HETATM   21  C   UNK N   1      37.905   6.617  11.279  0.00  0.00     0.272 C 
HETATM   22  C   UNK N   1      36.966   7.710  10.805  0.00  0.00     0.032 C 
HETATM   23  C   UNK N   1      37.856   8.880  10.461  0.00  0.00     0.032 C 
HETATM   24  C   UNK N   1      39.200   8.512  11.043  0.00  0.00     0.272 C 
ENDBRANCH  19  20
ENDBRANCH  18  19
ENDBRANCH  17  18
ENDBRANCH  14  17
ENDBRANCH  10  11
BRANCH   8  25
HETATM   25  C   UNK N   1      34.504  11.164  12.877  0.00  0.00    -0.053 A 
HETATM   26  C   UNK N   1      33.679  10.069  12.579  0.00  0.00     0.007 A 
HETATM   27  C   UNK N   1      33.587   9.588  11.269  0.00  0.00     0.001 A 
HETATM   28  C   UNK N   1      34.305  10.209  10.244  0.00  0.00     0.000 A 
HETATM   29  C   UNK N   1      35.122  11.307  10.528  0.00  0.00     0.001 A 
HETATM   30  C   UNK N   1      35.223  11.780  11.839  0.00  0.00     0.007 A 
ENDBRANCH   8  25
BRANCH   7  31
HETATM   31  O   UNK N   1      35.328  12.999  20.527  0.00  0.00    -0.361 OA
HETATM   32  H   UNK N   1      34.712  12.757  21.189  0.00  0.00     0.217 HD
ENDBRANCH   7  31
TORSDOF 7
ENDMDL
MODEL 7
REMARK VINA RESULT:      -6.9      1.898      2.749
REMARK  7 active torsions:
REMARK  status: ('A' for Active; 'I' for Inactive)
REMARK    1  A    between atoms: C_19  and  C_18 
REMARK    2  A    between atoms: N_29  and  C_18 
REMARK    3  A    between atoms: O_31  and  C_19 
REMARK    4  A    between atoms: C_26  and  C_21 
REMARK    5  A    between atoms: C_28  and  C_22 
REMARK    6  A    between atoms: O_30  and  C_24 
REMARK    7  A    between atoms: O_31  and  C_25 
ROOT
HETATM    1  C   UNK N   1      33.993  10.930  14.409  0.00  0.00     0.040 C 
HETATM    2  C   UNK N   1      36.321  13.964  16.397  0.00  0.00     0.037 A 
HETATM    3  C   UNK N   1      34.187  10.855  12.893  0.00  0.00     0.015 C 
HETATM    4  C   UNK N   1      36.603  13.655  15.065  0.00  0.00     0.011 A 
HETATM    5  C   UNK N   1      34.570  12.296  16.414  0.00  0.00     0.044 A 
HETATM    6  C   UNK N   1      34.837  11.981  15.077  0.00  0.00    -0.048 A 
HETATM    7  C   UNK N   1      35.313  13.278  17.073  0.00  0.00     0.066 A 
HETATM    8  C   UNK N   1      35.668  10.937  12.539  0.00  0.00     0.032 C 
HETATM    9  C   UNK N   1      35.879  12.656  14.395  0.00  0.00    -0.043 A 
HETATM   10  C   UNK N   1      36.264  12.309  12.969  0.00  0.00     0.060 C 
ENDROOT
BRANCH  10  11
HETATM   11  C   UNK N   1      35.991  13.481  12.048  0.00  0.00    -0.049 A 
HETATM   12  C   UNK N   1      36.995  13.873  11.153  0.00  0.00     0.011 A 
HETATM   13  C   UNK N   1      36.793  14.937  10.282  0.00  0.00     0.037 A 
HETATM   14  C   UNK N   1      35.571  15.627  10.272  0.00  0.00     0.068 A 
HETATM   15  C   UNK N   1      34.563  15.245  11.170  0.00  0.00     0.037 A 
HETATM   16  C   UNK N   1      34.775  14.186  12.065  0.00  0.00     0.011 A 
BRANCH  14  17
HETATM   17  O   UNK N   1      35.352  16.646   9.407  0.00  0.00    -0.349 OA
BRANCH  17  18
HETATM   18  C   UNK N   1      34.116  16.862   8.827  0.00  0.00     0.206 C 
BRANCH  18  19
HETATM   19  C   UNK N   1      34.192  16.782   7.305  0.00  0.00     0.299 C 
BRANCH  19  20
HETATM   20  N   UNK N   1      33.900  15.444   6.805  0.00  0.00     0.090 N 
HETATM   21  C   UNK N   1      35.160  14.717   6.766  0.00  0.00     0.272 C 
HETATM   22  C   UNK N   1      34.879  13.281   7.164  0.00  0.00     0.032 C 
HETATM   23  C   UNK N   1      33.444  13.268   7.631  0.00  0.00     0.032 C 
HETATM   24  C   UNK N   1      33.083  14.728   7.773  0.00  0.00     0.272 C 
ENDBRANCH  19  20
ENDBRANCH  18  19
ENDBRANCH  17  18
ENDBRANCH  14  17
ENDBRANCH  10  11
BRANCH   8  25
HETATM   25  C   UNK N   1      35.893  10.563  11.090  0.00  0.00    -0.053 A 
HETATM   26  C   UNK N   1      37.186  10.251  10.643  0.00  0.00     0.007 A 
HETATM   27  C   UNK N   1      37.402   9.864   9.317  0.00  0.00     0.001 A 
HETATM   28  C   UNK N   1      36.326   9.767   8.432  0.00  0.00     0.000 A 
HETATM   29  C   UNK N   1      35.033  10.065   8.869  0.00  0.00     0.001 A 
HETATM   30  C   UNK N   1      34.817  10.464  10.191  0.00  0.00     0.007 A 
ENDBRANCH   8  25
BRANCH   7  31
HETATM   31  O   UNK N   1      35.055  13.565  18.360  0.00  0.00    -0.361 OA
HETATM   32  H   UNK N   1      35.431  13.055  19.050  0.00  0.00     0.217 HD
ENDBRANCH   7  31
TORSDOF 7
ENDMDL
MODEL 8
REMARK VINA RESULT:      -6.8      2.993      4.260
REMARK  7 active torsions:
REMARK  status: ('A' for Active; 'I' for Inactive)
REMARK    1  A    between atoms: C_19  and  C_18 
REMARK    2  A    between atoms: N_29  and  C_18 
REMARK    3  A    between atoms: O_31  and  C_19 
REMARK    4  A    between atoms: C_26  and  C_21 
REMARK    5  A    between atoms: C_28  and  C_22 
REMARK    6  A    between atoms: O_30  and  C_24 
REMARK    7  A    between atoms: O_31  and  C_25 
ROOT
HETATM    1  C   UNK N   1      34.706   7.911  18.441  0.00  0.00     0.040 C 
HETATM    2  C   UNK N   1      34.938  11.809  20.265  0.00  0.00     0.037 A 
HETATM    3  C   UNK N   1      35.306   7.817  17.036  0.00  0.00     0.015 C 
HETATM    4  C   UNK N   1      35.663  11.560  19.099  0.00  0.00     0.011 A 
HETATM    5  C   UNK N   1      34.107   9.537  20.234  0.00  0.00     0.044 A 
HETATM    6  C   UNK N   1      34.823   9.277  19.060  0.00  0.00    -0.048 A 
HETATM    7  C   UNK N   1      34.168  10.795  20.837  0.00  0.00     0.066 A 
HETATM    8  C   UNK N   1      36.652   8.530  16.982  0.00  0.00     0.032 C 
HETATM    9  C   UNK N   1      35.628  10.294  18.492  0.00  0.00    -0.043 A 
HETATM   10  C   UNK N   1      36.484  10.051  17.263  0.00  0.00     0.060 C 
ENDROOT
BRANCH  10  11
HETATM   11  C   UNK N   1      36.001  10.901  16.105  0.00  0.00    -0.049 A 
HETATM   12  C   UNK N   1      34.659  10.796  15.715  0.00  0.00     0.011 A 
HETATM   13  C   UNK N   1      34.164  11.558  14.664  0.00  0.00     0.037 A 
HETATM   14  C   UNK N   1      34.997  12.461  13.986  0.00  0.00     0.068 A 
HETATM   15  C   UNK N   1      36.343  12.567  14.365  0.00  0.00     0.037 A 
HETATM   16  C   UNK N   1      36.849  11.780  15.411  0.00  0.00     0.011 A 
BRANCH  14  17
HETATM   17  O   UNK N   1      34.518  13.231  12.979  0.00  0.00    -0.349 OA
BRANCH  17  18
HETATM   18  C   UNK N   1      35.233  13.441  11.815  0.00  0.00     0.206 C 
BRANCH  18  19
HETATM   19  C   UNK N   1      35.637  14.905  11.664  0.00  0.00     0.299 C 
BRANCH  19  20
HETATM   20  N   UNK N   1      34.591  15.707  11.039  0.00  0.00     0.090 N 
HETATM   21  C   UNK N   1      35.250  16.796  10.336  0.00  0.00     0.272 C 
HETATM   22  C   UNK N   1      34.484  17.049   9.051  0.00  0.00     0.032 C 
HETATM   23  C   UNK N   1      33.485  15.922   8.952  0.00  0.00     0.032 C 
HETATM   24  C   UNK N   1      33.935  14.930   9.999  0.00  0.00     0.272 C 
ENDBRANCH  19  20
ENDBRANCH  18  19
ENDBRANCH  17  18
ENDBRANCH  14  17
ENDBRANCH  10  11
BRANCH   8  25
HETATM   25  C   UNK N   1      37.387   8.188  15.703  0.00  0.00    -0.053 A 
HETATM   26  C   UNK N   1      38.756   8.474  15.589  0.00  0.00     0.007 A 
HETATM   27  C   UNK N   1      39.456   8.127  14.430  0.00  0.00     0.001 A 
HETATM   28  C   UNK N   1      38.799   7.475  13.384  0.00  0.00     0.000 A 
HETATM   29  C   UNK N   1      37.438   7.175  13.491  0.00  0.00     0.001 A 
HETATM   30  C   UNK N   1      36.735   7.533  14.645  0.00  0.00     0.007 A 
ENDBRANCH   8  25
BRANCH   7  31
HETATM   31  O   UNK N   1      33.485  11.032  21.968  0.00  0.00    -0.361 OA
HETATM   32  H   UNK N   1      33.013  11.833  22.086  0.00  0.00     0.217 HD
ENDBRANCH   7  31
TORSDOF 7
ENDMDL
MODEL 9
REMARK VINA RESULT:      -6.7      3.526      7.192
REMARK  7 active torsions:
REMARK  status: ('A' for Active; 'I' for Inactive)
REMARK    1  A    between atoms: C_19  and  C_18 
REMARK    2  A    between atoms: N_29  and  C_18 
REMARK    3  A    between atoms: O_31  and  C_19 
REMARK    4  A    between atoms: C_26  and  C_21 
REMARK    5  A    between atoms: C_28  and  C_22 
REMARK    6  A    between atoms: O_30  and  C_24 
REMARK    7  A    between atoms: O_31  and  C_25 
ROOT
HETATM    1  C   UNK N   1      35.350  16.789  10.750  0.00  0.00     0.040 C 
HETATM    2  C   UNK N   1      35.590  12.701  12.097  0.00  0.00     0.037 A 
HETATM    3  C   UNK N   1      34.778  16.974   9.343  0.00  0.00     0.015 C 
HETATM    4  C   UNK N   1      34.868  12.994  10.938  0.00  0.00     0.011 A 
HETATM    5  C   UNK N   1      36.114  15.047  12.364  0.00  0.00     0.044 A 
HETATM    6  C   UNK N   1      35.398  15.354  11.201  0.00  0.00    -0.048 A 
HETATM    7  C   UNK N   1      36.204  13.728  12.813  0.00  0.00     0.066 A 
HETATM    8  C   UNK N   1      33.540  16.106   9.151  0.00  0.00     0.032 C 
HETATM    9  C   UNK N   1      34.750  14.318  10.485  0.00  0.00    -0.043 A 
HETATM   10  C   UNK N   1      33.901  14.597   9.260  0.00  0.00     0.060 C 
ENDROOT
BRANCH  10  11
HETATM   11  C   UNK N   1      34.521  13.962   8.031  0.00  0.00    -0.049 A 
HETATM   12  C   UNK N   1      33.767  13.028   7.310  0.00  0.00     0.011 A 
HETATM   13  C   UNK N   1      34.287  12.422   6.172  0.00  0.00     0.037 A 
HETATM   14  C   UNK N   1      35.572  12.750   5.715  0.00  0.00     0.068 A 
HETATM   15  C   UNK N   1      36.337  13.679   6.436  0.00  0.00     0.037 A 
HETATM   16  C   UNK N   1      35.821  14.273   7.598  0.00  0.00     0.011 A 
BRANCH  14  17
HETATM   17  O   UNK N   1      36.078  12.188   4.592  0.00  0.00    -0.349 OA
BRANCH  17  18
HETATM   18  C   UNK N   1      36.060  12.841   3.374  0.00  0.00     0.206 C 
BRANCH  18  19
HETATM   19  C   UNK N   1      35.050  12.213   2.417  0.00  0.00     0.299 C 
BRANCH  19  20
HETATM   20  N   UNK N   1      33.945  13.114   2.110  0.00  0.00     0.090 N 
HETATM   21  C   UNK N   1      32.819  12.707   2.937  0.00  0.00     0.272 C 
HETATM   22  C   UNK N   1      32.086  13.962   3.371  0.00  0.00     0.032 C 
HETATM   23  C   UNK N   1      32.961  15.110   2.928  0.00  0.00     0.032 C 
HETATM   24  C   UNK N   1      34.272  14.460   2.554  0.00  0.00     0.272 C 
ENDBRANCH  19  20
ENDBRANCH  18  19
ENDBRANCH  17  18
ENDBRANCH  14  17
ENDBRANCH  10  11
BRANCH   8  25
HETATM   25  C   UNK N   1      32.799  16.503   7.892  0.00  0.00    -0.053 A 
HETATM   26  C   UNK N   1      33.477  17.183   6.869  0.00  0.00     0.007 A 
HETATM   27  C   UNK N   1      32.816  17.520   5.685  0.00  0.00     0.001 A 
HETATM   28  C   UNK N   1      31.478  17.164   5.505  0.00  0.00     0.000 A 
HETATM   29  C   UNK N   1      30.795  16.477   6.512  0.00  0.00     0.001 A 
HETATM   30  C   UNK N   1      31.452  16.151   7.702  0.00  0.00     0.007 A 
ENDBRANCH   8  25
BRANCH   7  31
HETATM   31  O   UNK N   1      36.884  13.446  13.937  0.00  0.00    -0.361 OA
HETATM   32  H   UNK N   1      37.322  14.122  14.416  0.00  0.00     0.217 HD
ENDBRANCH   7  31
TORSDOF 7
ENDMDL
