MODEL 1
REMARK VINA RESULT:      -9.2      0.000      0.000
REMARK  16 active torsions:
REMARK  status: ('A' for Active; 'I' for Inactive)
REMARK    1  A    between atoms: C_31  and  C_16 
REMARK    2  A    between atoms: N_39  and  C_16 
REMARK    3  A    between atoms: C_26  and  C_17 
REMARK    4  A    between atoms: O_52  and  C_17 
REMARK    5  A    between atoms: C_35  and  C_19 
REMARK    6  A    between atoms: N_48  and  C_19 
REMARK    7  A    between atoms: C_33  and  C_22 
REMARK    8  A    between atoms: C_35  and  C_22 
REMARK    9  A    between atoms: N_47  and  C_23 
REMARK   10  A    between atoms: O_53  and  C_23 
REMARK   11  A    between atoms: C_30  and  C_25 
REMARK   12  A    between atoms: C_35  and  C_28 
REMARK   13  A    between atoms: O_52  and  C_31 
REMARK   14  A    between atoms: N_46  and  C_32 
REMARK       I    between atoms: N_46  and  C_34 
REMARK   15  A    between atoms: O_53  and  C_34 
REMARK   16  A    between atoms: C_35  and  O_51 
ROOT
HETATM    1  C   UNK N   1      21.548  12.488  10.807  0.00  0.00     0.023 A 
HETATM    2  C   UNK N   1      23.859  12.130  10.178  0.00  0.00     0.023 A 
HETATM    3  C   UNK N   1      21.213  12.745   9.471  0.00  0.00     0.015 A 
HETATM    4  C   UNK N   1      23.529  12.399   8.861  0.00  0.00     0.015 A 
HETATM    5  C   UNK N   1      23.280  12.124  12.528  0.00  0.00     0.099 C 
HETATM    6  C   UNK N   1      22.879  12.217  11.159  0.00  0.00     0.044 A 
HETATM    7  C   UNK N   1      22.218  12.739   8.502  0.00  0.00    -0.009 A 
HETATM    8  N   UNK N   1      23.645  12.041  13.623  0.00  0.00    -0.191 NA
ENDROOT
BRANCH   7   9
HETATM    9  C   UNK N   1      22.004  13.297   7.172  0.00  0.00     0.049 A 
HETATM   10  C   UNK N   1      21.355  12.669   6.086  0.00  0.00     0.081 A 
HETATM   11  S   UNK N   1      21.280  13.855   4.916  0.00  0.00    -0.086 SA
HETATM   12  C   UNK N   1      21.984  15.077   5.780  0.00  0.00     0.058 A 
HETATM   13  N   UNK N   1      22.329  14.608   6.979  0.00  0.00    -0.352 N 
ATOM     14  HN  UNK N   1      22.795  15.177   7.686  1.00  0.00     0.166 HD
BRANCH  12  15
HETATM   15  C   UNK N   1      22.307  16.453   5.304  0.00  0.00     0.080 C 
HETATM   16  C   UNK N   1      21.775  17.467   6.324  0.00  0.00     0.020 C 
BRANCH  15  17
HETATM   17  C   UNK N   1      23.808  16.812   4.895  0.00  0.00     0.115 C 
BRANCH  17  18
HETATM   18  C   UNK N   1      24.301  15.784   3.758  0.00  0.00     0.193 C 
BRANCH  18  19
HETATM   19  N   UNK N   1      25.100  14.600   4.219  0.00  0.00    -0.289 N 
HETATM   20  C   UNK N   1      26.251  14.845   4.827  0.00  0.00     0.179 C 
HETATM   21  N   UNK N   1      27.249  14.267   4.185  0.00  0.00    -0.211 NA
HETATM   22  C   UNK N   1      26.627  13.305   3.465  0.00  0.00     0.176 C 
HETATM   23  N   UNK N   1      25.308  13.573   3.410  0.00  0.00    -0.298 N 
ATOM     24  HN  UNK N   1      24.606  13.082   2.854  1.00  0.00     0.187 HD
BRANCH  21  25
HETATM   25  C   UNK N   1      27.863  15.330   3.350  0.00  0.00     0.214 C 
HETATM   26  C   UNK N   1      27.972  14.881   1.865  0.00  0.00     0.058 C 
BRANCH  25  27
HETATM   27  O   UNK N   1      29.047  15.706   3.849  0.00  0.00    -0.283 OA
BRANCH  27  28
HETATM   28  C   UNK N   1      29.210  16.669   4.752  0.00  0.00     0.369 C 
HETATM   29  N   UNK N   1      29.830  16.337   5.897  0.00  0.00    -0.283 N 
HETATM   30  C   UNK N   1      30.481  15.045   5.951  0.00  0.00     0.163 C 
HETATM   31  O   UNK N   1      28.749  17.793   4.566  0.00  0.00    -0.238 OA
BRANCH  29  32
HETATM   32  C   UNK N   1      29.614  17.101   7.068  0.00  0.00     0.119 A 
HETATM   33  C   UNK N   1      30.678  17.615   7.844  0.00  0.00     0.010 A 
HETATM   34  C   UNK N   1      30.371  18.201   9.072  0.00  0.00     0.014 A 
HETATM   35  C   UNK N   1      29.052  18.269   9.521  0.00  0.00     0.018 A 
HETATM   36  C   UNK N   1      28.033  17.774   8.722  0.00  0.00     0.089 A 
HETATM   37  N   UNK N   1      28.333  17.214   7.532  0.00  0.00    -0.352 N 
ATOM     38  HN  UNK N   1      27.572  16.858   6.954  1.00  0.00     0.166 HD
BRANCH  33  39
HETATM   39  C   UNK N   1      32.129  17.536   7.448  0.00  0.00     0.221 C 
BRANCH  39  40
HETATM   40  O   UNK N   1      32.946  18.286   8.275  0.00  0.00    -0.315 OA
BRANCH  40  41
HETATM   41  C   UNK N   1      34.278  18.041   8.391  0.00  0.00     0.276 C 
HETATM   42  O   UNK N   1      35.069  18.971   8.343  0.00  0.00    -0.263 OA
BRANCH  41  43
HETATM   43  C   UNK N   1      34.798  16.648   8.586  0.00  0.00     0.225 C 
BRANCH  43  44
HETATM   44  N   UNK N   1      34.400  16.151   9.893  0.00  0.00    -0.417 N 
HETATM   45  C   UNK N   1      35.322  16.726  10.854  0.00  0.00     0.140 C 
HETATM   46  H   UNK N   1      33.622  15.523  10.095  0.00  0.00     0.153 HD
ENDBRANCH  43  44
ENDBRANCH  41  43
ENDBRANCH  40  41
ENDBRANCH  39  40
ENDBRANCH  33  39
ENDBRANCH  29  32
ENDBRANCH  27  28
ENDBRANCH  25  27
ENDBRANCH  21  25
ENDBRANCH  18  19
ENDBRANCH  17  18
BRANCH  17  47
HETATM   47  C   UNK N   1      23.882  18.342   4.601  0.00  0.00     0.020 A 
HETATM   48  C   UNK N   1      25.066  18.984   4.965  0.00  0.00     0.055 A 
HETATM   49  C   UNK N   1      25.503  20.137   4.365  0.00  0.00     0.117 A 
HETATM   50  C   UNK N   1      24.760  20.715   3.345  0.00  0.00     0.045 A 
HETATM   51  F   UNK N   1      26.714  20.618   4.712  0.00  0.00    -0.206 F 
HETATM   52  C   UNK N   1      23.517  20.181   3.018  0.00  0.00     0.046 A 
HETATM   53  C   UNK N   1      23.054  19.018   3.643  0.00  0.00     0.126 A 
HETATM   54  F   UNK N   1      21.899  18.529   3.182  0.00  0.00    -0.205 F 
ENDBRANCH  17  47
BRANCH  17  55
HETATM   55  O   UNK N   1      24.559  16.724   6.071  0.00  0.00    -0.382 OA
HETATM   56  H   UNK N   1      25.371  16.806   6.595  0.00  0.00     0.211 HD
ENDBRANCH  17  55
ENDBRANCH  15  17
ENDBRANCH  12  15
ENDBRANCH   7   9
TORSDOF 16
ENDMDL
MODEL 2
REMARK VINA RESULT:      -8.9      2.998      6.427
REMARK  16 active torsions:
REMARK  status: ('A' for Active; 'I' for Inactive)
REMARK    1  A    between atoms: C_31  and  C_16 
REMARK    2  A    between atoms: N_39  and  C_16 
REMARK    3  A    between atoms: C_26  and  C_17 
REMARK    4  A    between atoms: O_52  and  C_17 
REMARK    5  A    between atoms: C_35  and  C_19 
REMARK    6  A    between atoms: N_48  and  C_19 
REMARK    7  A    between atoms: C_33  and  C_22 
REMARK    8  A    between atoms: C_35  and  C_22 
REMARK    9  A    between atoms: N_47  and  C_23 
REMARK   10  A    between atoms: O_53  and  C_23 
REMARK   11  A    between atoms: C_30  and  C_25 
REMARK   12  A    between atoms: C_35  and  C_28 
REMARK   13  A    between atoms: O_52  and  C_31 
REMARK   14  A    between atoms: N_46  and  C_32 
REMARK       I    between atoms: N_46  and  C_34 
REMARK   15  A    between atoms: O_53  and  C_34 
REMARK   16  A    between atoms: C_35  and  O_51 
ROOT
HETATM    1  C   UNK N   1      20.156  17.936   2.255  0.00  0.00     0.023 A 
HETATM    2  C   UNK N   1      20.911  19.889   3.472  0.00  0.00     0.023 A 
HETATM    3  C   UNK N   1      20.077  17.209   3.450  0.00  0.00     0.015 A 
HETATM    4  C   UNK N   1      20.847  19.165   4.649  0.00  0.00     0.015 A 
HETATM    5  C   UNK N   1      20.867  19.973   1.054  0.00  0.00     0.099 C 
HETATM    6  C   UNK N   1      20.610  19.264   2.269  0.00  0.00     0.044 A 
HETATM    7  C   UNK N   1      20.463  17.818   4.646  0.00  0.00    -0.009 A 
HETATM    8  N   UNK N   1      21.087  20.579   0.094  0.00  0.00    -0.191 NA
ENDROOT
BRANCH   7   9
HETATM    9  C   UNK N   1      20.703  17.042   5.857  0.00  0.00     0.049 A 
HETATM   10  C   UNK N   1      20.667  17.517   7.186  0.00  0.00     0.081 A 
HETATM   11  S   UNK N   1      20.858  16.144   8.115  0.00  0.00    -0.086 SA
HETATM   12  C   UNK N   1      20.926  15.042   6.884  0.00  0.00     0.058 A 
HETATM   13  N   UNK N   1      20.840  15.691   5.724  0.00  0.00    -0.352 N 
ATOM     14  HN  UNK N   1      20.873  15.220   4.819  1.00  0.00     0.166 HD
BRANCH  12  15
HETATM   15  C   UNK N   1      21.162  13.574   6.997  0.00  0.00     0.080 C 
HETATM   16  C   UNK N   1      20.678  12.894   5.710  0.00  0.00     0.020 C 
BRANCH  15  17
HETATM   17  C   UNK N   1      22.612  13.038   7.396  0.00  0.00     0.115 C 
BRANCH  17  18
HETATM   18  C   UNK N   1      23.720  13.856   6.563  0.00  0.00     0.193 C 
BRANCH  18  19
HETATM   19  N   UNK N   1      24.654  13.050   5.708  0.00  0.00    -0.289 N 
HETATM   20  C   UNK N   1      25.915  13.450   5.644  0.00  0.00     0.179 C 
HETATM   21  N   UNK N   1      26.261  13.703   4.396  0.00  0.00    -0.211 NA
HETATM   22  C   UNK N   1      25.343  13.011   3.683  0.00  0.00     0.176 C 
HETATM   23  N   UNK N   1      24.305  12.694   4.481  0.00  0.00    -0.298 N 
ATOM     24  HN  UNK N   1      23.423  12.265   4.198  1.00  0.00     0.187 HD
BRANCH  21  25
HETATM   25  C   UNK N   1      26.150  15.175   4.236  0.00  0.00     0.214 C 
HETATM   26  C   UNK N   1      25.283  15.539   2.997  0.00  0.00     0.058 C 
BRANCH  25  27
HETATM   27  O   UNK N   1      27.362  15.743   4.185  0.00  0.00    -0.283 OA
BRANCH  27  28
HETATM   28  C   UNK N   1      27.787  16.684   5.023  0.00  0.00     0.369 C 
HETATM   29  N   UNK N   1      28.786  16.355   5.857  0.00  0.00    -0.283 N 
HETATM   30  C   UNK N   1      29.477  15.107   5.611  0.00  0.00     0.163 C 
HETATM   31  O   UNK N   1      27.236  17.782   5.070  0.00  0.00    -0.238 OA
BRANCH  29  32
HETATM   32  C   UNK N   1      28.962  17.065   7.069  0.00  0.00     0.119 A 
HETATM   33  C   UNK N   1      30.223  17.544   7.492  0.00  0.00     0.010 A 
HETATM   34  C   UNK N   1      30.328  18.073   8.777  0.00  0.00     0.014 A 
HETATM   35  C   UNK N   1      29.218  18.121   9.622  0.00  0.00     0.018 A 
HETATM   36  C   UNK N   1      27.992  17.664   9.165  0.00  0.00     0.089 A 
HETATM   37  N   UNK N   1      27.894  17.158   7.918  0.00  0.00    -0.352 N 
ATOM     38  HN  UNK N   1      26.984  16.829   7.594  1.00  0.00     0.166 HD
BRANCH  33  39
HETATM   39  C   UNK N   1      31.475  17.482   6.655  0.00  0.00     0.221 C 
BRANCH  39  40
HETATM   40  O   UNK N   1      32.534  16.899   7.327  0.00  0.00    -0.315 OA
BRANCH  40  41
HETATM   41  C   UNK N   1      33.781  16.829   6.790  0.00  0.00     0.276 C 
HETATM   42  O   UNK N   1      34.317  17.846   6.379  0.00  0.00    -0.263 OA
BRANCH  41  43
HETATM   43  C   UNK N   1      34.518  15.526   6.702  0.00  0.00     0.225 C 
BRANCH  43  44
HETATM   44  N   UNK N   1      34.818  15.223   5.312  0.00  0.00    -0.417 N 
HETATM   45  C   UNK N   1      33.552  14.929   4.668  0.00  0.00     0.140 C 
HETATM   46  H   UNK N   1      35.740  15.219   4.875  0.00  0.00     0.153 HD
ENDBRANCH  43  44
ENDBRANCH  41  43
ENDBRANCH  40  41
ENDBRANCH  39  40
ENDBRANCH  33  39
ENDBRANCH  29  32
ENDBRANCH  27  28
ENDBRANCH  25  27
ENDBRANCH  21  25
ENDBRANCH  18  19
ENDBRANCH  17  18
BRANCH  17  47
HETATM   47  C   UNK N   1      22.714  13.016   8.953  0.00  0.00     0.020 A 
HETATM   48  C   UNK N   1      21.519  12.830   9.647  0.00  0.00     0.055 A 
HETATM   49  C   UNK N   1      21.467  12.301  10.911  0.00  0.00     0.117 A 
HETATM   50  C   UNK N   1      22.636  11.920  11.555  0.00  0.00     0.045 A 
HETATM   51  F   UNK N   1      20.255  12.060  11.453  0.00  0.00    -0.206 F 
HETATM   52  C   UNK N   1      23.864  12.185  10.955  0.00  0.00     0.046 A 
HETATM   53  C   UNK N   1      23.925  12.747   9.675  0.00  0.00     0.126 A 
HETATM   54  F   UNK N   1      25.148  12.863   9.147  0.00  0.00    -0.205 F 
ENDBRANCH  17  47
BRANCH  17  55
HETATM   55  O   UNK N   1      22.611  11.671   7.104  0.00  0.00    -0.382 OA
HETATM   56  H   UNK N   1      22.998  10.855   6.751  0.00  0.00     0.211 HD
ENDBRANCH  17  55
ENDBRANCH  15  17
ENDBRANCH  12  15
ENDBRANCH   7   9
TORSDOF 16
ENDMDL
MODEL 3
REMARK VINA RESULT:      -8.5      3.093      6.483
REMARK  16 active torsions:
REMARK  status: ('A' for Active; 'I' for Inactive)
REMARK    1  A    between atoms: C_31  and  C_16 
REMARK    2  A    between atoms: N_39  and  C_16 
REMARK    3  A    between atoms: C_26  and  C_17 
REMARK    4  A    between atoms: O_52  and  C_17 
REMARK    5  A    between atoms: C_35  and  C_19 
REMARK    6  A    between atoms: N_48  and  C_19 
REMARK    7  A    between atoms: C_33  and  C_22 
REMARK    8  A    between atoms: C_35  and  C_22 
REMARK    9  A    between atoms: N_47  and  C_23 
REMARK   10  A    between atoms: O_53  and  C_23 
REMARK   11  A    between atoms: C_30  and  C_25 
REMARK   12  A    between atoms: C_35  and  C_28 
REMARK   13  A    between atoms: O_52  and  C_31 
REMARK   14  A    between atoms: N_46  and  C_32 
REMARK       I    between atoms: N_46  and  C_34 
REMARK   15  A    between atoms: O_53  and  C_34 
REMARK   16  A    between atoms: C_35  and  O_51 
ROOT
HETATM    1  C   UNK N   1      20.497  18.354   2.582  0.00  0.00     0.023 A 
HETATM    2  C   UNK N   1      22.266  18.478   4.232  0.00  0.00     0.023 A 
HETATM    3  C   UNK N   1      20.310  16.995   2.871  0.00  0.00     0.015 A 
HETATM    4  C   UNK N   1      22.089  17.133   4.504  0.00  0.00     0.015 A 
HETATM    5  C   UNK N   1      21.832  20.414   2.846  0.00  0.00     0.099 C 
HETATM    6  C   UNK N   1      21.502  19.080   3.240  0.00  0.00     0.044 A 
HETATM    7  C   UNK N   1      21.138  16.376   3.808  0.00  0.00    -0.009 A 
HETATM    8  N   UNK N   1      22.130  21.494   2.556  0.00  0.00    -0.191 NA
ENDROOT
BRANCH   7   9
HETATM    9  C   UNK N   1      21.210  14.924   3.926  0.00  0.00     0.049 A 
HETATM   10  C   UNK N   1      21.297  13.994   2.868  0.00  0.00     0.081 A 
HETATM   11  S   UNK N   1      21.512  12.527   3.633  0.00  0.00    -0.086 SA
HETATM   12  C   UNK N   1      21.540  13.081   5.191  0.00  0.00     0.058 A 
HETATM   13  N   UNK N   1      21.351  14.400   5.178  0.00  0.00    -0.352 N 
ATOM     14  HN  UNK N   1      21.315  14.965   6.026  1.00  0.00     0.166 HD
BRANCH  12  15
HETATM   15  C   UNK N   1      21.638  12.270   6.438  0.00  0.00     0.080 C 
HETATM   16  C   UNK N   1      21.104  10.860   6.154  0.00  0.00     0.020 C 
BRANCH  15  17
HETATM   17  C   UNK N   1      23.028  12.190   7.218  0.00  0.00     0.115 C 
BRANCH  17  18
HETATM   18  C   UNK N   1      24.140  13.009   6.391  0.00  0.00     0.193 C 
BRANCH  18  19
HETATM   19  N   UNK N   1      25.270  12.212   5.808  0.00  0.00    -0.289 N 
HETATM   20  C   UNK N   1      26.430  12.832   5.647  0.00  0.00     0.179 C 
HETATM   21  N   UNK N   1      26.804  12.800   4.382  0.00  0.00    -0.211 NA
HETATM   22  C   UNK N   1      26.091  11.764   3.884  0.00  0.00     0.176 C 
HETATM   23  N   UNK N   1      25.083  11.470   4.728  0.00  0.00    -0.298 N 
ATOM     24  HN  UNK N   1      24.324  10.806   4.567  1.00  0.00     0.187 HD
BRANCH  21  25
HETATM   25  C   UNK N   1      26.418  14.115   3.812  0.00  0.00     0.214 C 
HETATM   26  C   UNK N   1      26.548  14.113   2.263  0.00  0.00     0.058 C 
BRANCH  25  27
HETATM   27  O   UNK N   1      27.123  15.105   4.374  0.00  0.00    -0.283 OA
BRANCH  27  28
HETATM   28  C   UNK N   1      26.766  16.387   4.356  0.00  0.00     0.369 C 
HETATM   29  N   UNK N   1      27.744  17.292   4.189  0.00  0.00    -0.283 N 
HETATM   30  C   UNK N   1      29.048  16.801   3.797  0.00  0.00     0.163 C 
HETATM   31  O   UNK N   1      25.600  16.719   4.553  0.00  0.00    -0.238 OA
BRANCH  29  32
HETATM   32  C   UNK N   1      27.565  18.621   4.641  0.00  0.00     0.119 A 
HETATM   33  C   UNK N   1      27.941  19.038   5.938  0.00  0.00     0.010 A 
HETATM   34  C   UNK N   1      27.564  20.314   6.353  0.00  0.00     0.014 A 
HETATM   35  C   UNK N   1      26.830  21.152   5.511  0.00  0.00     0.018 A 
HETATM   36  C   UNK N   1      26.500  20.717   4.237  0.00  0.00     0.089 A 
HETATM   37  N   UNK N   1      26.872  19.483   3.837  0.00  0.00    -0.352 N 
ATOM     38  HN  UNK N   1      26.624  19.180   2.896  1.00  0.00     0.166 HD
BRANCH  33  39
HETATM   39  C   UNK N   1      28.690  18.175   6.920  0.00  0.00     0.221 C 
BRANCH  39  40
HETATM   40  O   UNK N   1      28.736  18.729   8.187  0.00  0.00    -0.315 OA
BRANCH  40  41
HETATM   41  C   UNK N   1      29.740  18.454   9.060  0.00  0.00     0.276 C 
HETATM   42  O   UNK N   1      29.545  18.576  10.260  0.00  0.00    -0.263 OA
BRANCH  41  43
HETATM   43  C   UNK N   1      31.084  17.993   8.580  0.00  0.00     0.225 C 
BRANCH  43  44
HETATM   44  N   UNK N   1      31.450  16.757   9.252  0.00  0.00    -0.417 N 
HETATM   45  C   UNK N   1      31.801  15.808   8.213  0.00  0.00     0.140 C 
HETATM   46  H   UNK N   1      31.460  16.591  10.259  0.00  0.00     0.153 HD
ENDBRANCH  43  44
ENDBRANCH  41  43
ENDBRANCH  40  41
ENDBRANCH  39  40
ENDBRANCH  33  39
ENDBRANCH  29  32
ENDBRANCH  27  28
ENDBRANCH  25  27
ENDBRANCH  21  25
ENDBRANCH  18  19
ENDBRANCH  17  18
BRANCH  17  47
HETATM   47  C   UNK N   1      22.775  12.574   8.710  0.00  0.00     0.020 A 
HETATM   48  C   UNK N   1      21.489  13.015   9.024  0.00  0.00     0.055 A 
HETATM   49  C   UNK N   1      20.954  12.915  10.282  0.00  0.00     0.117 A 
HETATM   50  C   UNK N   1      21.697  12.352  11.311  0.00  0.00     0.045 A 
HETATM   51  F   UNK N   1      19.665  13.268  10.458  0.00  0.00    -0.206 F 
HETATM   52  C   UNK N   1      23.024  11.999  11.082  0.00  0.00     0.046 A 
HETATM   53  C   UNK N   1      23.583  12.120   9.805  0.00  0.00     0.126 A 
HETATM   54  F   UNK N   1      24.828  11.654   9.668  0.00  0.00    -0.205 F 
ENDBRANCH  17  47
BRANCH  17  55
HETATM   55  O   UNK N   1      23.327  10.830   7.334  0.00  0.00    -0.382 OA
HETATM   56  H   UNK N   1      23.229   9.893   7.103  0.00  0.00     0.211 HD
ENDBRANCH  17  55
ENDBRANCH  15  17
ENDBRANCH  12  15
ENDBRANCH   7   9
TORSDOF 16
ENDMDL
MODEL 4
REMARK VINA RESULT:      -8.4      3.449      8.918
REMARK  16 active torsions:
REMARK  status: ('A' for Active; 'I' for Inactive)
REMARK    1  A    between atoms: C_31  and  C_16 
REMARK    2  A    between atoms: N_39  and  C_16 
REMARK    3  A    between atoms: C_26  and  C_17 
REMARK    4  A    between atoms: O_52  and  C_17 
REMARK    5  A    between atoms: C_35  and  C_19 
REMARK    6  A    between atoms: N_48  and  C_19 
REMARK    7  A    between atoms: C_33  and  C_22 
REMARK    8  A    between atoms: C_35  and  C_22 
REMARK    9  A    between atoms: N_47  and  C_23 
REMARK   10  A    between atoms: O_53  and  C_23 
REMARK   11  A    between atoms: C_30  and  C_25 
REMARK   12  A    between atoms: C_35  and  C_28 
REMARK   13  A    between atoms: O_52  and  C_31 
REMARK   14  A    between atoms: N_46  and  C_32 
REMARK       I    between atoms: N_46  and  C_34 
REMARK   15  A    between atoms: O_53  and  C_34 
REMARK   16  A    between atoms: C_35  and  O_51 
ROOT
HETATM    1  C   UNK N   1      25.961  20.909   5.231  0.00  0.00     0.023 A 
HETATM    2  C   UNK N   1      26.297  19.083   3.676  0.00  0.00     0.023 A 
HETATM    3  C   UNK N   1      27.009  20.434   6.031  0.00  0.00     0.015 A 
HETATM    4  C   UNK N   1      27.322  18.608   4.476  0.00  0.00     0.015 A 
HETATM    5  C   UNK N   1      24.416  20.566   3.336  0.00  0.00     0.099 C 
HETATM    6  C   UNK N   1      25.586  20.208   4.074  0.00  0.00     0.044 A 
HETATM    7  C   UNK N   1      27.663  19.256   5.670  0.00  0.00    -0.009 A 
HETATM    8  N   UNK N   1      23.476  20.824   2.712  0.00  0.00    -0.191 NA
ENDROOT
BRANCH   7   9
HETATM    9  C   UNK N   1      28.532  18.545   6.602  0.00  0.00     0.049 A 
HETATM   10  C   UNK N   1      28.289  18.311   7.972  0.00  0.00     0.081 A 
HETATM   11  S   UNK N   1      29.546  17.322   8.446  0.00  0.00    -0.086 SA
HETATM   12  C   UNK N   1      30.294  17.182   6.977  0.00  0.00     0.058 A 
HETATM   13  N   UNK N   1      29.627  17.914   6.086  0.00  0.00    -0.352 N 
ATOM     14  HN  UNK N   1      29.909  17.996   5.109  1.00  0.00     0.166 HD
BRANCH  12  15
HETATM   15  C   UNK N   1      31.567  16.468   6.675  0.00  0.00     0.080 C 
HETATM   16  C   UNK N   1      32.424  16.422   7.947  0.00  0.00     0.020 C 
BRANCH  15  17
HETATM   17  C   UNK N   1      31.518  15.028   5.987  0.00  0.00     0.115 C 
BRANCH  17  18
HETATM   18  C   UNK N   1      30.055  14.798   5.358  0.00  0.00     0.193 C 
BRANCH  18  19
HETATM   19  N   UNK N   1      29.866  13.567   4.519  0.00  0.00    -0.289 N 
HETATM   20  C   UNK N   1      29.641  13.745   3.226  0.00  0.00     0.179 C 
HETATM   21  N   UNK N   1      28.494  13.196   2.874  0.00  0.00    -0.211 NA
HETATM   22  C   UNK N   1      28.270  12.302   3.864  0.00  0.00     0.176 C 
HETATM   23  N   UNK N   1      29.056  12.599   4.918  0.00  0.00    -0.298 N 
ATOM     24  HN  UNK N   1      29.032  12.164   5.841  1.00  0.00     0.187 HD
BRANCH  21  25
HETATM   25  C   UNK N   1      27.507  14.306   2.842  0.00  0.00     0.214 C 
HETATM   26  C   UNK N   1      28.204  15.665   2.551  0.00  0.00     0.058 C 
BRANCH  25  27
HETATM   27  O   UNK N   1      26.790  14.341   3.973  0.00  0.00    -0.283 OA
BRANCH  27  28
HETATM   28  C   UNK N   1      25.741  15.134   4.174  0.00  0.00     0.369 C 
HETATM   29  N   UNK N   1      25.566  15.613   5.416  0.00  0.00    -0.283 N 
HETATM   30  C   UNK N   1      26.650  15.436   6.359  0.00  0.00     0.163 C 
HETATM   31  O   UNK N   1      24.937  15.356   3.272  0.00  0.00    -0.238 OA
BRANCH  29  32
HETATM   32  C   UNK N   1      24.280  16.022   5.844  0.00  0.00     0.119 A 
HETATM   33  C   UNK N   1      23.376  15.140   6.479  0.00  0.00     0.010 A 
HETATM   34  C   UNK N   1      22.074  15.583   6.702  0.00  0.00     0.014 A 
HETATM   35  C   UNK N   1      21.675  16.860   6.302  0.00  0.00     0.018 A 
HETATM   36  C   UNK N   1      22.596  17.705   5.702  0.00  0.00     0.089 A 
HETATM   37  N   UNK N   1      23.857  17.274   5.494  0.00  0.00    -0.352 N 
ATOM     38  HN  UNK N   1      24.524  17.909   5.056  1.00  0.00     0.166 HD
BRANCH  33  39
HETATM   39  C   UNK N   1      23.719  13.733   6.896  0.00  0.00     0.221 C 
BRANCH  39  40
HETATM   40  O   UNK N   1      23.555  13.527   8.254  0.00  0.00    -0.315 OA
BRANCH  40  41
HETATM   41  C   UNK N   1      23.943  12.376   8.863  0.00  0.00     0.276 C 
HETATM   42  O   UNK N   1      24.002  11.342   8.215  0.00  0.00    -0.263 OA
BRANCH  41  43
HETATM   43  C   UNK N   1      24.312  12.351  10.316  0.00  0.00     0.225 C 
BRANCH  43  44
HETATM   44  N   UNK N   1      23.143  12.651  11.127  0.00  0.00    -0.417 N 
HETATM   45  C   UNK N   1      23.299  11.915  12.367  0.00  0.00     0.140 C 
HETATM   46  H   UNK N   1      22.366  13.261  10.873  0.00  0.00     0.153 HD
ENDBRANCH  43  44
ENDBRANCH  41  43
ENDBRANCH  40  41
ENDBRANCH  39  40
ENDBRANCH  33  39
ENDBRANCH  29  32
ENDBRANCH  27  28
ENDBRANCH  25  27
ENDBRANCH  21  25
ENDBRANCH  18  19
ENDBRANCH  17  18
BRANCH  17  47
HETATM   47  C   UNK N   1      32.762  14.888   5.055  0.00  0.00     0.020 A 
HETATM   48  C   UNK N   1      33.569  13.770   5.266  0.00  0.00     0.055 A 
HETATM   49  C   UNK N   1      34.361  13.228   4.287  0.00  0.00     0.117 A 
HETATM   50  C   UNK N   1      34.381  13.790   3.018  0.00  0.00     0.045 A 
HETATM   51  F   UNK N   1      35.019  12.083   4.559  0.00  0.00    -0.206 F 
HETATM   52  C   UNK N   1      33.683  14.971   2.782  0.00  0.00     0.046 A 
HETATM   53  C   UNK N   1      32.891  15.543   3.784  0.00  0.00     0.126 A 
HETATM   54  F   UNK N   1      32.179  16.614   3.423  0.00  0.00    -0.205 F 
ENDBRANCH  17  47
BRANCH  17  55
HETATM   55  O   UNK N   1      31.829  14.110   6.994  0.00  0.00    -0.382 OA
HETATM   56  H   UNK N   1      32.398  13.728   7.681  0.00  0.00     0.211 HD
ENDBRANCH  17  55
ENDBRANCH  15  17
ENDBRANCH  12  15
ENDBRANCH   7   9
TORSDOF 16
ENDMDL
MODEL 5
REMARK VINA RESULT:      -8.4      3.123      6.531
REMARK  16 active torsions:
REMARK  status: ('A' for Active; 'I' for Inactive)
REMARK    1  A    between atoms: C_31  and  C_16 
REMARK    2  A    between atoms: N_39  and  C_16 
REMARK    3  A    between atoms: C_26  and  C_17 
REMARK    4  A    between atoms: O_52  and  C_17 
REMARK    5  A    between atoms: C_35  and  C_19 
REMARK    6  A    between atoms: N_48  and  C_19 
REMARK    7  A    between atoms: C_33  and  C_22 
REMARK    8  A    between atoms: C_35  and  C_22 
REMARK    9  A    between atoms: N_47  and  C_23 
REMARK   10  A    between atoms: O_53  and  C_23 
REMARK   11  A    between atoms: C_30  and  C_25 
REMARK   12  A    between atoms: C_35  and  C_28 
REMARK   13  A    between atoms: O_52  and  C_31 
REMARK   14  A    between atoms: N_46  and  C_32 
REMARK       I    between atoms: N_46  and  C_34 
REMARK   15  A    between atoms: O_53  and  C_34 
REMARK   16  A    between atoms: C_35  and  O_51 
ROOT
HETATM    1  C   UNK N   1      21.888  19.515   3.372  0.00  0.00     0.023 A 
HETATM    2  C   UNK N   1      23.782  18.371   4.357  0.00  0.00     0.023 A 
HETATM    3  C   UNK N   1      21.023  18.530   3.868  0.00  0.00     0.015 A 
HETATM    4  C   UNK N   1      22.928  17.392   4.832  0.00  0.00     0.015 A 
HETATM    5  C   UNK N   1      24.191  20.299   2.952  0.00  0.00     0.099 C 
HETATM    6  C   UNK N   1      23.271  19.409   3.589  0.00  0.00     0.044 A 
HETATM    7  C   UNK N   1      21.553  17.444   4.566  0.00  0.00    -0.009 A 
HETATM    8  N   UNK N   1      24.968  20.997   2.455  0.00  0.00    -0.191 NA
ENDROOT
BRANCH   7   9
HETATM    9  C   UNK N   1      20.766  16.245   4.831  0.00  0.00     0.049 A 
HETATM   10  C   UNK N   1      19.516  15.912   4.264  0.00  0.00     0.081 A 
HETATM   11  S   UNK N   1      19.213  14.370   4.824  0.00  0.00    -0.086 SA
HETATM   12  C   UNK N   1      20.614  14.156   5.677  0.00  0.00     0.058 A 
HETATM   13  N   UNK N   1      21.342  15.268   5.590  0.00  0.00    -0.352 N 
ATOM     14  HN  UNK N   1      22.246  15.379   6.049  1.00  0.00     0.166 HD
BRANCH  12  15
HETATM   15  C   UNK N   1      20.991  12.982   6.516  0.00  0.00     0.080 C 
HETATM   16  C   UNK N   1      20.496  11.703   5.829  0.00  0.00     0.020 C 
BRANCH  15  17
HETATM   17  C   UNK N   1      22.506  12.807   6.989  0.00  0.00     0.115 C 
BRANCH  17  18
HETATM   18  C   UNK N   1      23.453  13.723   6.064  0.00  0.00     0.193 C 
BRANCH  18  19
HETATM   19  N   UNK N   1      24.134  13.041   4.913  0.00  0.00    -0.289 N 
HETATM   20  C   UNK N   1      25.442  13.215   4.795  0.00  0.00     0.179 C 
HETATM   21  N   UNK N   1      25.737  13.746   3.623  0.00  0.00    -0.211 NA
HETATM   22  C   UNK N   1      24.646  13.456   2.878  0.00  0.00     0.176 C 
HETATM   23  N   UNK N   1      23.628  13.114   3.692  0.00  0.00    -0.298 N 
ATOM     24  HN  UNK N   1      22.659  12.945   3.422  1.00  0.00     0.187 HD
BRANCH  21  25
HETATM   25  C   UNK N   1      25.918  15.199   3.871  0.00  0.00     0.214 C 
HETATM   26  C   UNK N   1      25.753  16.015   2.558  0.00  0.00     0.058 C 
BRANCH  25  27
HETATM   27  O   UNK N   1      27.092  15.439   4.469  0.00  0.00    -0.283 OA
BRANCH  27  28
HETATM   28  C   UNK N   1      27.229  16.074   5.630  0.00  0.00     0.369 C 
HETATM   29  N   UNK N   1      28.047  17.139   5.653  0.00  0.00    -0.283 N 
HETATM   30  C   UNK N   1      28.507  17.653   4.381  0.00  0.00     0.163 C 
HETATM   31  O   UNK N   1      26.681  15.653   6.646  0.00  0.00    -0.238 OA
BRANCH  29  32
HETATM   32  C   UNK N   1      28.636  17.555   6.870  0.00  0.00     0.119 A 
HETATM   33  C   UNK N   1      29.954  17.198   7.236  0.00  0.00     0.010 A 
HETATM   34  C   UNK N   1      30.382  17.503   8.527  0.00  0.00     0.014 A 
HETATM   35  C   UNK N   1      29.529  18.137   9.432  0.00  0.00     0.018 A 
HETATM   36  C   UNK N   1      28.251  18.493   9.030  0.00  0.00     0.089 A 
HETATM   37  N   UNK N   1      27.843  18.201   7.778  0.00  0.00    -0.352 N 
ATOM     38  HN  UNK N   1      26.901  18.473   7.496  1.00  0.00     0.166 HD
BRANCH  33  39
HETATM   39  C   UNK N   1      30.915  16.471   6.332  0.00  0.00     0.221 C 
BRANCH  39  40
HETATM   40  O   UNK N   1      30.572  15.142   6.152  0.00  0.00    -0.315 OA
BRANCH  40  41
HETATM   41  C   UNK N   1      30.556  14.560   4.925  0.00  0.00     0.276 C 
HETATM   42  O   UNK N   1      31.115  15.111   3.989  0.00  0.00    -0.263 OA
BRANCH  41  43
HETATM   43  C   UNK N   1      29.874  13.244   4.697  0.00  0.00     0.225 C 
BRANCH  43  44
HETATM   44  N   UNK N   1      28.992  13.338   3.545  0.00  0.00    -0.417 N 
HETATM   45  C   UNK N   1      28.808  11.987   3.051  0.00  0.00     0.140 C 
HETATM   46  H   UNK N   1      28.582  14.190   3.161  0.00  0.00     0.153 HD
ENDBRANCH  43  44
ENDBRANCH  41  43
ENDBRANCH  40  41
ENDBRANCH  39  40
ENDBRANCH  33  39
ENDBRANCH  29  32
ENDBRANCH  27  28
ENDBRANCH  25  27
ENDBRANCH  21  25
ENDBRANCH  18  19
ENDBRANCH  17  18
BRANCH  17  47
HETATM   47  C   UNK N   1      22.561  13.004   8.537  0.00  0.00     0.020 A 
HETATM   48  C   UNK N   1      21.335  13.006   9.202  0.00  0.00     0.055 A 
HETATM   49  C   UNK N   1      21.206  12.670  10.525  0.00  0.00     0.117 A 
HETATM   50  C   UNK N   1      22.323  12.303  11.263  0.00  0.00     0.045 A 
HETATM   51  F   UNK N   1      19.964  12.596  11.047  0.00  0.00    -0.206 F 
HETATM   52  C   UNK N   1      23.585  12.392  10.681  0.00  0.00     0.046 A 
HETATM   53  C   UNK N   1      23.726  12.756   9.337  0.00  0.00     0.126 A 
HETATM   54  F   UNK N   1      24.969  12.707   8.848  0.00  0.00    -0.205 F 
ENDBRANCH  17  47
BRANCH  17  55
HETATM   55  O   UNK N   1      22.789  11.443   6.878  0.00  0.00    -0.382 OA
HETATM   56  H   UNK N   1      23.215  10.616   7.152  0.00  0.00     0.211 HD
ENDBRANCH  17  55
ENDBRANCH  15  17
ENDBRANCH  12  15
ENDBRANCH   7   9
TORSDOF 16
ENDMDL
MODEL 6
REMARK VINA RESULT:      -8.4      2.544      3.850
REMARK  16 active torsions:
REMARK  status: ('A' for Active; 'I' for Inactive)
REMARK    1  A    between atoms: C_31  and  C_16 
REMARK    2  A    between atoms: N_39  and  C_16 
REMARK    3  A    between atoms: C_26  and  C_17 
REMARK    4  A    between atoms: O_52  and  C_17 
REMARK    5  A    between atoms: C_35  and  C_19 
REMARK    6  A    between atoms: N_48  and  C_19 
REMARK    7  A    between atoms: C_33  and  C_22 
REMARK    8  A    between atoms: C_35  and  C_22 
REMARK    9  A    between atoms: N_47  and  C_23 
REMARK   10  A    between atoms: O_53  and  C_23 
REMARK   11  A    between atoms: C_30  and  C_25 
REMARK   12  A    between atoms: C_35  and  C_28 
REMARK   13  A    between atoms: O_52  and  C_31 
REMARK   14  A    between atoms: N_46  and  C_32 
REMARK       I    between atoms: N_46  and  C_34 
REMARK   15  A    between atoms: O_53  and  C_34 
REMARK   16  A    between atoms: C_35  and  O_51 
ROOT
HETATM    1  C   UNK N   1      24.274  12.042  10.429  0.00  0.00     0.023 A 
HETATM    2  C   UNK N   1      21.930  12.483  10.849  0.00  0.00     0.023 A 
HETATM    3  C   UNK N   1      24.036  12.040   9.048  0.00  0.00     0.015 A 
HETATM    4  C   UNK N   1      21.695  12.466   9.486  0.00  0.00     0.015 A 
HETATM    5  C   UNK N   1      23.388  12.061  12.734  0.00  0.00     0.099 C 
HETATM    6  C   UNK N   1      23.209  12.227  11.325  0.00  0.00     0.044 A 
HETATM    7  C   UNK N   1      22.734  12.214   8.579  0.00  0.00    -0.009 A 
HETATM    8  N   UNK N   1      23.492  11.934  13.879  0.00  0.00    -0.191 NA
ENDROOT
BRANCH   7   9
HETATM    9  C   UNK N   1      22.369  11.914   7.199  0.00  0.00     0.049 A 
HETATM   10  C   UNK N   1      22.505  10.673   6.540  0.00  0.00     0.081 A 
HETATM   11  S   UNK N   1      21.775  10.917   5.060  0.00  0.00    -0.086 SA
HETATM   12  C   UNK N   1      21.289  12.480   5.297  0.00  0.00     0.058 A 
HETATM   13  N   UNK N   1      21.699  12.876   6.501  0.00  0.00    -0.352 N 
ATOM     14  HN  UNK N   1      21.527  13.813   6.867  1.00  0.00     0.166 HD
BRANCH  12  15
HETATM   15  C   UNK N   1      20.609  13.374   4.317  0.00  0.00     0.080 C 
HETATM   16  C   UNK N   1      19.116  13.441   4.660  0.00  0.00     0.020 C 
BRANCH  15  17
HETATM   17  C   UNK N   1      21.185  14.840   4.058  0.00  0.00     0.115 C 
BRANCH  17  18
HETATM   18  C   UNK N   1      22.786  14.755   3.907  0.00  0.00     0.193 C 
BRANCH  18  19
HETATM   19  N   UNK N   1      23.312  14.016   2.711  0.00  0.00    -0.289 N 
HETATM   20  C   UNK N   1      24.253  13.108   2.927  0.00  0.00     0.179 C 
HETATM   21  N   UNK N   1      25.341  13.393   2.237  0.00  0.00    -0.211 NA
HETATM   22  C   UNK N   1      24.877  14.212   1.266  0.00  0.00     0.176 C 
HETATM   23  N   UNK N   1      23.659  14.670   1.614  0.00  0.00    -0.298 N 
ATOM     24  HN  UNK N   1      23.111  15.382   1.129  1.00  0.00     0.187 HD
BRANCH  21  25
HETATM   25  C   UNK N   1      26.260  14.064   3.191  0.00  0.00     0.214 C 
HETATM   26  C   UNK N   1      26.356  13.273   4.526  0.00  0.00     0.058 C 
BRANCH  25  27
HETATM   27  O   UNK N   1      25.899  15.338   3.387  0.00  0.00    -0.283 OA
BRANCH  27  28
HETATM   28  C   UNK N   1      26.713  16.292   3.831  0.00  0.00     0.369 C 
HETATM   29  N   UNK N   1      26.324  16.971   4.922  0.00  0.00    -0.283 N 
HETATM   30  C   UNK N   1      25.192  16.453   5.661  0.00  0.00     0.163 C 
HETATM   31  O   UNK N   1      27.742  16.576   3.221  0.00  0.00    -0.238 OA
BRANCH  29  32
HETATM   32  C   UNK N   1      26.829  18.270   5.167  0.00  0.00     0.119 A 
HETATM   33  C   UNK N   1      27.619  18.576   6.298  0.00  0.00     0.010 A 
HETATM   34  C   UNK N   1      27.919  19.914   6.547  0.00  0.00     0.014 A 
HETATM   35  C   UNK N   1      27.446  20.921   5.704  0.00  0.00     0.018 A 
HETATM   36  C   UNK N   1      26.693  20.581   4.591  0.00  0.00     0.089 A 
HETATM   37  N   UNK N   1      26.409  19.284   4.351  0.00  0.00    -0.352 N 
ATOM     38  HN  UNK N   1      25.858  19.050   3.526  1.00  0.00     0.166 HD
BRANCH  33  39
HETATM   39  C   UNK N   1      28.126  17.550   7.278  0.00  0.00     0.221 C 
BRANCH  39  40
HETATM   40  O   UNK N   1      29.484  17.320   7.151  0.00  0.00    -0.315 OA
BRANCH  40  41
HETATM   41  C   UNK N   1      30.346  17.494   8.187  0.00  0.00     0.276 C 
HETATM   42  O   UNK N   1      30.140  18.381   9.001  0.00  0.00    -0.263 OA
BRANCH  41  43
HETATM   43  C   UNK N   1      31.546  16.610   8.358  0.00  0.00     0.225 C 
BRANCH  43  44
HETATM   44  N   UNK N   1      32.639  17.368   8.943  0.00  0.00    -0.417 N 
HETATM   45  C   UNK N   1      33.339  18.003   7.842  0.00  0.00     0.140 C 
HETATM   46  H   UNK N   1      32.868  17.441   9.934  0.00  0.00     0.153 HD
ENDBRANCH  43  44
ENDBRANCH  41  43
ENDBRANCH  40  41
ENDBRANCH  39  40
ENDBRANCH  33  39
ENDBRANCH  29  32
ENDBRANCH  27  28
ENDBRANCH  25  27
ENDBRANCH  21  25
ENDBRANCH  18  19
ENDBRANCH  17  18
BRANCH  17  47
HETATM   47  C   UNK N   1      20.361  15.494   2.906  0.00  0.00     0.020 A 
HETATM   48  C   UNK N   1      20.181  16.875   2.982  0.00  0.00     0.055 A 
HETATM   49  C   UNK N   1      19.947  17.658   1.881  0.00  0.00     0.117 A 
HETATM   50  C   UNK N   1      19.883  17.082   0.619  0.00  0.00     0.045 A 
HETATM   51  F   UNK N   1      19.897  18.995   2.046  0.00  0.00    -0.206 F 
HETATM   52  C   UNK N   1      19.943  15.697   0.496  0.00  0.00     0.046 A 
HETATM   53  C   UNK N   1      20.159  14.890   1.619  0.00  0.00     0.126 A 
HETATM   54  F   UNK N   1      20.307  13.584   1.379  0.00  0.00    -0.205 F 
ENDBRANCH  17  47
BRANCH  17  55
HETATM   55  O   UNK N   1      20.782  15.611   5.152  0.00  0.00    -0.382 OA
HETATM   56  H   UNK N   1      20.888  15.989   6.039  0.00  0.00     0.211 HD
ENDBRANCH  17  55
ENDBRANCH  15  17
ENDBRANCH  12  15
ENDBRANCH   7   9
TORSDOF 16
ENDMDL
MODEL 7
REMARK VINA RESULT:      -8.3      6.851     12.065
REMARK  16 active torsions:
REMARK  status: ('A' for Active; 'I' for Inactive)
REMARK    1  A    between atoms: C_31  and  C_16 
REMARK    2  A    between atoms: N_39  and  C_16 
REMARK    3  A    between atoms: C_26  and  C_17 
REMARK    4  A    between atoms: O_52  and  C_17 
REMARK    5  A    between atoms: C_35  and  C_19 
REMARK    6  A    between atoms: N_48  and  C_19 
REMARK    7  A    between atoms: C_33  and  C_22 
REMARK    8  A    between atoms: C_35  and  C_22 
REMARK    9  A    between atoms: N_47  and  C_23 
REMARK   10  A    between atoms: O_53  and  C_23 
REMARK   11  A    between atoms: C_30  and  C_25 
REMARK   12  A    between atoms: C_35  and  C_28 
REMARK   13  A    between atoms: O_52  and  C_31 
REMARK   14  A    between atoms: N_46  and  C_32 
REMARK       I    between atoms: N_46  and  C_34 
REMARK   15  A    between atoms: O_53  and  C_34 
REMARK   16  A    between atoms: C_35  and  O_51 
ROOT
HETATM    1  C   UNK N   1      30.462   7.422   9.825  0.00  0.00     0.023 A 
HETATM    2  C   UNK N   1      32.054   5.831  10.719  0.00  0.00     0.023 A 
HETATM    3  C   UNK N   1      31.486   8.363   9.650  0.00  0.00     0.015 A 
HETATM    4  C   UNK N   1      33.061   6.767  10.559  0.00  0.00     0.015 A 
HETATM    5  C   UNK N   1      29.702   5.261  10.746  0.00  0.00     0.099 C 
HETATM    6  C   UNK N   1      30.748   6.171  10.394  0.00  0.00     0.044 A 
HETATM    7  C   UNK N   1      32.783   8.045  10.056  0.00  0.00    -0.009 A 
HETATM    8  N   UNK N   1      28.886   4.498  11.045  0.00  0.00    -0.191 NA
ENDROOT
BRANCH   7   9
HETATM    9  C   UNK N   1      33.815   9.066  10.195  0.00  0.00     0.049 A 
HETATM   10  C   UNK N   1      34.137  10.074   9.260  0.00  0.00     0.081 A 
HETATM   11  S   UNK N   1      35.267  11.014  10.049  0.00  0.00    -0.086 SA
HETATM   12  C   UNK N   1      35.280  10.199  11.489  0.00  0.00     0.058 A 
HETATM   13  N   UNK N   1      34.448   9.163  11.400  0.00  0.00    -0.352 N 
ATOM     14  HN  UNK N   1      34.298   8.503  12.163  1.00  0.00     0.166 HD
BRANCH  12  15
HETATM   15  C   UNK N   1      36.146  10.468  12.672  0.00  0.00     0.080 C 
HETATM   16  C   UNK N   1      37.587  10.063  12.334  0.00  0.00     0.020 C 
BRANCH  15  17
HETATM   17  C   UNK N   1      36.121  11.910  13.355  0.00  0.00     0.115 C 
BRANCH  17  18
HETATM   18  C   UNK N   1      35.546  12.980  12.299  0.00  0.00     0.193 C 
BRANCH  18  19
HETATM   19  N   UNK N   1      36.486  14.064  11.857  0.00  0.00    -0.289 N 
HETATM   20  C   UNK N   1      35.952  15.228  11.519  0.00  0.00     0.179 C 
HETATM   21  N   UNK N   1      36.268  15.543  10.277  0.00  0.00    -0.211 NA
HETATM   22  C   UNK N   1      37.363  14.785  10.044  0.00  0.00     0.176 C 
HETATM   23  N   UNK N   1      37.437  13.810  10.972  0.00  0.00    -0.298 N 
ATOM     24  HN  UNK N   1      38.095  13.031  10.989  1.00  0.00     0.187 HD
BRANCH  21  25
HETATM   25  C   UNK N   1      35.094  15.160   9.452  0.00  0.00     0.214 C 
HETATM   26  C   UNK N   1      35.542  14.527   8.104  0.00  0.00     0.058 C 
BRANCH  25  27
HETATM   27  O   UNK N   1      34.277  16.205   9.269  0.00  0.00    -0.283 OA
BRANCH  27  28
HETATM   28  C   UNK N   1      32.979  16.105   8.993  0.00  0.00     0.369 C 
HETATM   29  N   UNK N   1      32.397  17.159   8.400  0.00  0.00    -0.283 N 
HETATM   30  C   UNK N   1      33.264  18.200   7.889  0.00  0.00     0.163 C 
HETATM   31  O   UNK N   1      32.337  15.114   9.334  0.00  0.00    -0.238 OA
BRANCH  29  32
HETATM   32  C   UNK N   1      31.001  17.359   8.518  0.00  0.00     0.119 A 
HETATM   33  C   UNK N   1      30.111  17.158   7.438  0.00  0.00     0.010 A 
HETATM   34  C   UNK N   1      28.784  17.550   7.600  0.00  0.00     0.014 A 
HETATM   35  C   UNK N   1      28.350  18.130   8.793  0.00  0.00     0.018 A 
HETATM   36  C   UNK N   1      29.245  18.290   9.838  0.00  0.00     0.089 A 
HETATM   37  N   UNK N   1      30.528  17.904   9.680  0.00  0.00    -0.352 N 
ATOM     38  HN  UNK N   1      31.174  18.025  10.460  1.00  0.00     0.166 HD
BRANCH  33  39
HETATM   39  C   UNK N   1      30.516  16.583   6.106  0.00  0.00     0.221 C 
BRANCH  39  40
HETATM   40  O   UNK N   1      30.998  17.546   5.237  0.00  0.00    -0.315 OA
BRANCH  40  41
HETATM   41  C   UNK N   1      31.887  17.251   4.253  0.00  0.00     0.276 C 
HETATM   42  O   UNK N   1      33.003  17.748   4.279  0.00  0.00    -0.263 OA
BRANCH  41  43
HETATM   43  C   UNK N   1      31.530  16.315   3.136  0.00  0.00     0.225 C 
BRANCH  43  44
HETATM   44  N   UNK N   1      30.356  16.810   2.435  0.00  0.00    -0.417 N 
HETATM   45  C   UNK N   1      29.280  15.881   2.722  0.00  0.00     0.140 C 
HETATM   46  H   UNK N   1      30.301  17.647   1.855  0.00  0.00     0.153 HD
ENDBRANCH  43  44
ENDBRANCH  41  43
ENDBRANCH  40  41
ENDBRANCH  39  40
ENDBRANCH  33  39
ENDBRANCH  29  32
ENDBRANCH  27  28
ENDBRANCH  25  27
ENDBRANCH  21  25
ENDBRANCH  18  19
ENDBRANCH  17  18
BRANCH  17  47
HETATM   47  C   UNK N   1      35.419  11.782  14.744  0.00  0.00     0.020 A 
HETATM   48  C   UNK N   1      35.105  10.489  15.159  0.00  0.00     0.055 A 
HETATM   49  C   UNK N   1      34.965  10.143  16.479  0.00  0.00     0.117 A 
HETATM   50  C   UNK N   1      35.141  11.099  17.470  0.00  0.00     0.045 A 
HETATM   51  F   UNK N   1      34.769   8.844  16.782  0.00  0.00    -0.206 F 
HETATM   52  C   UNK N   1      35.345  12.428  17.110  0.00  0.00     0.046 A 
HETATM   53  C   UNK N   1      35.466  12.791  15.764  0.00  0.00     0.126 A 
HETATM   54  F   UNK N   1      35.766  14.072  15.530  0.00  0.00    -0.205 F 
ENDBRANCH  17  47
BRANCH  17  55
HETATM   55  O   UNK N   1      37.438  12.177  13.740  0.00  0.00    -0.382 OA
HETATM   56  H   UNK N   1      38.330  11.927  14.027  0.00  0.00     0.211 HD
ENDBRANCH  17  55
ENDBRANCH  15  17
ENDBRANCH  12  15
ENDBRANCH   7   9
TORSDOF 16
ENDMDL
MODEL 8
REMARK VINA RESULT:      -8.3      4.285      8.559
REMARK  16 active torsions:
REMARK  status: ('A' for Active; 'I' for Inactive)
REMARK    1  A    between atoms: C_31  and  C_16 
REMARK    2  A    between atoms: N_39  and  C_16 
REMARK    3  A    between atoms: C_26  and  C_17 
REMARK    4  A    between atoms: O_52  and  C_17 
REMARK    5  A    between atoms: C_35  and  C_19 
REMARK    6  A    between atoms: N_48  and  C_19 
REMARK    7  A    between atoms: C_33  and  C_22 
REMARK    8  A    between atoms: C_35  and  C_22 
REMARK    9  A    between atoms: N_47  and  C_23 
REMARK   10  A    between atoms: O_53  and  C_23 
REMARK   11  A    between atoms: C_30  and  C_25 
REMARK   12  A    between atoms: C_35  and  C_28 
REMARK   13  A    between atoms: O_52  and  C_31 
REMARK   14  A    between atoms: N_46  and  C_32 
REMARK       I    between atoms: N_46  and  C_34 
REMARK   15  A    between atoms: O_53  and  C_34 
REMARK   16  A    between atoms: C_35  and  O_51 
ROOT
HETATM    1  C   UNK N   1      28.042  16.426   6.077  0.00  0.00     0.023 A 
HETATM    2  C   UNK N   1      27.752  17.045   3.754  0.00  0.00     0.023 A 
HETATM    3  C   UNK N   1      26.654  16.296   6.226  0.00  0.00     0.015 A 
HETATM    4  C   UNK N   1      26.381  16.930   3.907  0.00  0.00     0.015 A 
HETATM    5  C   UNK N   1      29.971  17.146   4.715  0.00  0.00     0.099 C 
HETATM    6  C   UNK N   1      28.581  16.837   4.848  0.00  0.00     0.044 A 
HETATM    7  C   UNK N   1      25.821  16.589   5.145  0.00  0.00    -0.009 A 
HETATM    8  N   UNK N   1      31.088  17.406   4.566  0.00  0.00    -0.191 NA
ENDROOT
BRANCH   7   9
HETATM    9  C   UNK N   1      24.385  16.779   5.314  0.00  0.00     0.049 A 
HETATM   10  C   UNK N   1      23.497  17.373   4.391  0.00  0.00     0.081 A 
HETATM   11  S   UNK N   1      21.991  17.151   5.075  0.00  0.00    -0.086 SA
HETATM   12  C   UNK N   1      22.469  16.312   6.417  0.00  0.00     0.058 A 
HETATM   13  N   UNK N   1      23.797  16.205   6.403  0.00  0.00    -0.352 N 
ATOM     14  HN  UNK N   1      24.326  15.737   7.140  1.00  0.00     0.166 HD
BRANCH  12  15
HETATM   15  C   UNK N   1      21.611  15.838   7.541  0.00  0.00     0.080 C 
HETATM   16  C   UNK N   1      20.308  16.647   7.543  0.00  0.00     0.020 C 
BRANCH  15  17
HETATM   17  C   UNK N   1      21.299  14.280   7.691  0.00  0.00     0.115 C 
BRANCH  17  18
HETATM   18  C   UNK N   1      21.687  13.535   6.318  0.00  0.00     0.193 C 
BRANCH  18  19
HETATM   19  N   UNK N   1      20.551  13.141   5.419  0.00  0.00    -0.289 N 
HETATM   20  C   UNK N   1      20.864  12.635   4.235  0.00  0.00     0.179 C 
HETATM   21  N   UNK N   1      20.335  13.358   3.266  0.00  0.00    -0.211 NA
HETATM   22  C   UNK N   1      19.335  14.019   3.893  0.00  0.00     0.176 C 
HETATM   23  N   UNK N   1      19.531  13.961   5.225  0.00  0.00    -0.298 N 
ATOM     24  HN  UNK N   1      18.998  14.453   5.944  1.00  0.00     0.187 HD
BRANCH  21  25
HETATM   25  C   UNK N   1      21.423  14.247   2.784  0.00  0.00     0.214 C 
HETATM   26  C   UNK N   1      20.846  15.476   2.027  0.00  0.00     0.058 C 
BRANCH  25  27
HETATM   27  O   UNK N   1      22.303  13.565   2.040  0.00  0.00    -0.283 OA
BRANCH  27  28
HETATM   28  C   UNK N   1      23.621  13.738   2.086  0.00  0.00     0.369 C 
HETATM   29  N   UNK N   1      24.377  12.641   2.253  0.00  0.00    -0.283 N 
HETATM   30  C   UNK N   1      23.726  11.356   2.118  0.00  0.00     0.163 C 
HETATM   31  O   UNK N   1      24.110  14.865   2.047  0.00  0.00    -0.238 OA
BRANCH  29  32
HETATM   32  C   UNK N   1      25.678  12.752   2.800  0.00  0.00     0.119 A 
HETATM   33  C   UNK N   1      25.911  12.821   4.193  0.00  0.00     0.010 A 
HETATM   34  C   UNK N   1      27.204  13.107   4.628  0.00  0.00     0.014 A 
HETATM   35  C   UNK N   1      28.234  13.326   3.713  0.00  0.00     0.018 A 
HETATM   36  C   UNK N   1      27.973  13.227   2.355  0.00  0.00     0.089 A 
HETATM   37  N   UNK N   1      26.721  12.944   1.938  0.00  0.00    -0.352 N 
ATOM     38  HN  UNK N   1      26.546  12.870   0.936  1.00  0.00     0.166 HD
BRANCH  33  39
HETATM   39  C   UNK N   1      24.842  12.644   5.239  0.00  0.00     0.221 C 
BRANCH  39  40
HETATM   40  O   UNK N   1      25.000  11.480   5.969  0.00  0.00    -0.315 OA
BRANCH  40  41
HETATM   41  C   UNK N   1      24.690  10.259   5.459  0.00  0.00     0.276 C 
HETATM   42  O   UNK N   1      25.568   9.575   4.956  0.00  0.00    -0.263 OA
BRANCH  41  43
HETATM   43  C   UNK N   1      23.288   9.729   5.510  0.00  0.00     0.225 C 
BRANCH  43  44
HETATM   44  N   UNK N   1      23.296   8.290   5.299  0.00  0.00    -0.417 N 
HETATM   45  C   UNK N   1      22.185   7.753   6.061  0.00  0.00     0.140 C 
HETATM   46  H   UNK N   1      23.955   7.763   4.726  0.00  0.00     0.153 HD
ENDBRANCH  43  44
ENDBRANCH  41  43
ENDBRANCH  40  41
ENDBRANCH  39  40
ENDBRANCH  33  39
ENDBRANCH  29  32
ENDBRANCH  27  28
ENDBRANCH  25  27
ENDBRANCH  21  25
ENDBRANCH  18  19
ENDBRANCH  17  18
BRANCH  17  47
HETATM   47  C   UNK N   1      21.942  13.777   9.021  0.00  0.00     0.020 A 
HETATM   48  C   UNK N   1      21.060  13.311   9.995  0.00  0.00     0.055 A 
HETATM   49  C   UNK N   1      21.426  12.409  10.961  0.00  0.00     0.117 A 
HETATM   50  C   UNK N   1      22.723  11.918  10.998  0.00  0.00     0.045 A 
HETATM   51  F   UNK N   1      20.471  11.937  11.788  0.00  0.00    -0.206 F 
HETATM   52  C   UNK N   1      23.674  12.432  10.121  0.00  0.00     0.046 A 
HETATM   53  C   UNK N   1      23.312  13.370   9.147  0.00  0.00     0.126 A 
HETATM   54  F   UNK N   1      24.275  13.719   8.289  0.00  0.00    -0.205 F 
ENDBRANCH  17  47
BRANCH  17  55
HETATM   55  O   UNK N   1      19.938  14.188   7.995  0.00  0.00    -0.382 OA
HETATM   56  H   UNK N   1      19.103  14.515   8.366  0.00  0.00     0.211 HD
ENDBRANCH  17  55
ENDBRANCH  15  17
ENDBRANCH  12  15
ENDBRANCH   7   9
TORSDOF 16
ENDMDL
MODEL 9
REMARK VINA RESULT:      -8.3      2.339      4.445
REMARK  16 active torsions:
REMARK  status: ('A' for Active; 'I' for Inactive)
REMARK    1  A    between atoms: C_31  and  C_16 
REMARK    2  A    between atoms: N_39  and  C_16 
REMARK    3  A    between atoms: C_26  and  C_17 
REMARK    4  A    between atoms: O_52  and  C_17 
REMARK    5  A    between atoms: C_35  and  C_19 
REMARK    6  A    between atoms: N_48  and  C_19 
REMARK    7  A    between atoms: C_33  and  C_22 
REMARK    8  A    between atoms: C_35  and  C_22 
REMARK    9  A    between atoms: N_47  and  C_23 
REMARK   10  A    between atoms: O_53  and  C_23 
REMARK   11  A    between atoms: C_30  and  C_25 
REMARK   12  A    between atoms: C_35  and  C_28 
REMARK   13  A    between atoms: O_52  and  C_31 
REMARK   14  A    between atoms: N_46  and  C_32 
REMARK       I    between atoms: N_46  and  C_34 
REMARK   15  A    between atoms: O_53  and  C_34 
REMARK   16  A    between atoms: C_35  and  O_51 
ROOT
HETATM    1  C   UNK N   1      22.035  12.104  10.547  0.00  0.00     0.023 A 
HETATM    2  C   UNK N   1      24.450  11.933  10.503  0.00  0.00     0.023 A 
HETATM    3  C   UNK N   1      22.009  12.237   9.152  0.00  0.00     0.015 A 
HETATM    4  C   UNK N   1      24.423  12.080   9.127  0.00  0.00     0.015 A 
HETATM    5  C   UNK N   1      23.331  12.027  12.647  0.00  0.00     0.099 C 
HETATM    6  C   UNK N   1      23.262  11.989  11.219  0.00  0.00     0.044 A 
HETATM    7  C   UNK N   1      23.213  12.265   8.447  0.00  0.00    -0.009 A 
HETATM    8  N   UNK N   1      23.430  12.055  13.799  0.00  0.00    -0.191 NA
ENDROOT
BRANCH   7   9
HETATM    9  C   UNK N   1      23.277  12.709   7.059  0.00  0.00     0.049 A 
HETATM   10  C   UNK N   1      22.285  12.537   6.069  0.00  0.00     0.081 A 
HETATM   11  S   UNK N   1      22.865  13.391   4.758  0.00  0.00    -0.086 SA
HETATM   12  C   UNK N   1      24.251  13.966   5.454  0.00  0.00     0.058 A 
HETATM   13  N   UNK N   1      24.332  13.496   6.698  0.00  0.00    -0.352 N 
ATOM     14  HN  UNK N   1      25.112  13.705   7.322  1.00  0.00     0.166 HD
BRANCH  12  15
HETATM   15  C   UNK N   1      25.320  14.778   4.804  0.00  0.00     0.080 C 
HETATM   16  C   UNK N   1      25.029  14.866   3.300  0.00  0.00     0.020 C 
BRANCH  15  17
HETATM   17  C   UNK N   1      25.676  16.221   5.386  0.00  0.00     0.115 C 
BRANCH  17  18
HETATM   18  C   UNK N   1      27.201  16.215   5.902  0.00  0.00     0.193 C 
BRANCH  18  19
HETATM   19  N   UNK N   1      27.615  17.348   6.797  0.00  0.00    -0.289 N 
HETATM   20  C   UNK N   1      28.805  17.887   6.579  0.00  0.00     0.179 C 
HETATM   21  N   UNK N   1      29.557  17.806   7.660  0.00  0.00    -0.211 NA
HETATM   22  C   UNK N   1      28.649  17.633   8.647  0.00  0.00     0.176 C 
HETATM   23  N   UNK N   1      27.473  17.254   8.109  0.00  0.00    -0.298 N 
ATOM     24  HN  UNK N   1      26.638  16.955   8.613  1.00  0.00     0.187 HD
BRANCH  21  25
HETATM   25  C   UNK N   1      30.439  16.629   7.453  0.00  0.00     0.214 C 
HETATM   26  C   UNK N   1      31.685  16.693   8.382  0.00  0.00     0.058 C 
BRANCH  25  27
HETATM   27  O   UNK N   1      30.780  16.508   6.163  0.00  0.00    -0.283 OA
BRANCH  27  28
HETATM   28  C   UNK N   1      30.824  15.355   5.502  0.00  0.00     0.369 C 
HETATM   29  N   UNK N   1      30.670  15.407   4.169  0.00  0.00    -0.283 N 
HETATM   30  C   UNK N   1      30.720  16.711   3.543  0.00  0.00     0.163 C 
HETATM   31  O   UNK N   1      30.932  14.288   6.103  0.00  0.00    -0.238 OA
BRANCH  29  32
HETATM   32  C   UNK N   1      30.211  14.270   3.463  0.00  0.00     0.119 A 
HETATM   33  C   UNK N   1      31.060  13.493   2.641  0.00  0.00     0.010 A 
HETATM   34  C   UNK N   1      30.482  12.503   1.849  0.00  0.00     0.014 A 
HETATM   35  C   UNK N   1      29.102  12.292   1.864  0.00  0.00     0.018 A 
HETATM   36  C   UNK N   1      28.304  13.057   2.699  0.00  0.00     0.089 A 
HETATM   37  N   UNK N   1      28.869  14.011   3.468  0.00  0.00    -0.352 N 
ATOM     38  HN  UNK N   1      28.268  14.563   4.081  1.00  0.00     0.166 HD
BRANCH  33  39
HETATM   39  C   UNK N   1      32.550  13.694   2.537  0.00  0.00     0.221 C 
BRANCH  39  40
HETATM   40  O   UNK N   1      33.219  13.307   3.684  0.00  0.00    -0.315 OA
BRANCH  40  41
HETATM   41  C   UNK N   1      34.404  13.863   4.052  0.00  0.00     0.276 C 
HETATM   42  O   UNK N   1      35.444  13.436   3.575  0.00  0.00    -0.263 OA
BRANCH  41  43
HETATM   43  C   UNK N   1      34.459  15.001   5.028  0.00  0.00     0.225 C 
BRANCH  43  44
HETATM   44  N   UNK N   1      34.051  14.541   6.345  0.00  0.00    -0.417 N 
HETATM   45  C   UNK N   1      35.261  14.140   7.037  0.00  0.00     0.140 C 
HETATM   46  H   UNK N   1      33.099  14.509   6.711  0.00  0.00     0.153 HD
ENDBRANCH  43  44
ENDBRANCH  41  43
ENDBRANCH  40  41
ENDBRANCH  39  40
ENDBRANCH  33  39
ENDBRANCH  29  32
ENDBRANCH  27  28
ENDBRANCH  25  27
ENDBRANCH  21  25
ENDBRANCH  18  19
ENDBRANCH  17  18
BRANCH  17  47
HETATM   47  C   UNK N   1      25.249  17.292   4.335  0.00  0.00     0.020 A 
HETATM   48  C   UNK N   1      23.930  17.739   4.411  0.00  0.00     0.055 A 
HETATM   49  C   UNK N   1      23.531  18.966   3.945  0.00  0.00     0.117 A 
HETATM   50  C   UNK N   1      24.456  19.826   3.370  0.00  0.00     0.045 A 
HETATM   51  F   UNK N   1      22.257  19.350   4.165  0.00  0.00    -0.206 F 
HETATM   52  C   UNK N   1      25.762  19.388   3.166  0.00  0.00     0.046 A 
HETATM   53  C   UNK N   1      26.170  18.128   3.618  0.00  0.00     0.126 A 
HETATM   54  F   UNK N   1      27.468  17.847   3.469  0.00  0.00    -0.205 F 
ENDBRANCH  17  47
BRANCH  17  55
HETATM   55  O   UNK N   1      24.755  16.461   6.409  0.00  0.00    -0.382 OA
HETATM   56  H   UNK N   1      24.144  17.015   6.920  0.00  0.00     0.211 HD
ENDBRANCH  17  55
ENDBRANCH  15  17
ENDBRANCH  12  15
ENDBRANCH   7   9
TORSDOF 16
ENDMDL
