MODEL 1
REMARK VINA RESULT:      -4.2      0.000      0.000
REMARK  4 active torsions:
REMARK  status: ('A' for Active; 'I' for Inactive)
REMARK    1  A    between atoms: O_3  and  C_27 
REMARK    2  A    between atoms: O_4  and  C_28 
REMARK    3  A    between atoms: C_25  and  C_27 
REMARK    4  A    between atoms: C_26  and  C_28 
ROOT
HETATM    1  C   UNK N   1      20.203  19.498   2.192  0.00  0.00     0.088 C 
HETATM    2  C   UNK N   1      19.900  18.187   2.114  0.00  0.00     0.088 C 
ENDROOT
BRANCH   1   3
HETATM    3  C   UNK N   1      21.013  20.340   1.283  0.00  0.00     0.165 C 
HETATM    4  O   UNK N   1      22.047  20.871   1.646  0.00  0.00    -0.647 OA
BRANCH   3   5
HETATM    5  O   UNK N   1      20.591  20.518   0.018  0.00  0.00    -0.773 OA
HETATM    6  H   UNK N   1      20.930  19.980  -0.669  0.00  0.00     0.167 HD
ENDBRANCH   3   5
ENDBRANCH   1   3
BRANCH   2   7
HETATM    7  C   UNK N   1      20.278  17.172   1.104  0.00  0.00     0.165 C 
HETATM    8  O   UNK N   1      20.634  16.050   1.418  0.00  0.00    -0.647 OA
BRANCH   7   9
HETATM    9  O   UNK N   1      20.220  17.502  -0.199  0.00  0.00    -0.773 OA
HETATM   10  H   UNK N   1      20.214  18.403  -0.455  0.00  0.00     0.167 HD
ENDBRANCH   7   9
ENDBRANCH   2   7
TORSDOF 4
ENDMDL
MODEL 2
REMARK VINA RESULT:      -4.2      0.018      3.427
REMARK  4 active torsions:
REMARK  status: ('A' for Active; 'I' for Inactive)
REMARK    1  A    between atoms: O_3  and  C_27 
REMARK    2  A    between atoms: O_4  and  C_28 
REMARK    3  A    between atoms: C_25  and  C_27 
REMARK    4  A    between atoms: C_26  and  C_28 
ROOT
HETATM    1  C   UNK N   1      19.899  18.169   2.108  0.00  0.00     0.088 C 
HETATM    2  C   UNK N   1      20.199  19.480   2.185  0.00  0.00     0.088 C 
ENDROOT
BRANCH   1   3
HETATM    3  C   UNK N   1      20.289  17.165   1.092  0.00  0.00     0.165 C 
HETATM    4  O   UNK N   1      20.662  16.047   1.401  0.00  0.00    -0.647 OA
BRANCH   3   5
HETATM    5  O   UNK N   1      20.225  17.501  -0.209  0.00  0.00    -0.773 OA
HETATM    6  H   UNK N   1      21.008  17.538  -0.721  0.00  0.00     0.167 HD
ENDBRANCH   3   5
ENDBRANCH   1   3
BRANCH   2   7
HETATM    7  C   UNK N   1      21.005  20.336   1.284  0.00  0.00     0.165 C 
HETATM    8  O   UNK N   1      22.032  20.877   1.653  0.00  0.00    -0.647 OA
BRANCH   7   9
HETATM    9  O   UNK N   1      20.589  20.515   0.016  0.00  0.00    -0.773 OA
HETATM   10  H   UNK N   1      20.815  21.299  -0.445  0.00  0.00     0.167 HD
ENDBRANCH   7   9
ENDBRANCH   2   7
TORSDOF 4
ENDMDL
MODEL 3
REMARK VINA RESULT:      -4.0     16.130     16.721
REMARK  4 active torsions:
REMARK  status: ('A' for Active; 'I' for Inactive)
REMARK    1  A    between atoms: O_3  and  C_27 
REMARK    2  A    between atoms: O_4  and  C_28 
REMARK    3  A    between atoms: C_25  and  C_27 
REMARK    4  A    between atoms: C_26  and  C_28 
ROOT
HETATM    1  C   UNK N   1      33.916  17.274   9.024  0.00  0.00     0.088 C 
HETATM    2  C   UNK N   1      34.396  16.252   9.758  0.00  0.00     0.088 C 
ENDROOT
BRANCH   1   3
HETATM    3  C   UNK N   1      34.627  18.214   8.127  0.00  0.00     0.165 C 
HETATM    4  O   UNK N   1      35.292  19.139   8.560  0.00  0.00    -0.647 OA
BRANCH   3   5
HETATM    5  O   UNK N   1      34.537  18.034   6.797  0.00  0.00    -0.773 OA
HETATM    6  H   UNK N   1      33.698  17.919   6.397  0.00  0.00     0.167 HD
ENDBRANCH   3   5
ENDBRANCH   1   3
BRANCH   2   7
HETATM    7  C   UNK N   1      35.779  15.743   9.910  0.00  0.00     0.165 C 
HETATM    8  O   UNK N   1      36.188  14.786   9.277  0.00  0.00    -0.647 OA
BRANCH   7   9
HETATM    9  O   UNK N   1      36.607  16.363  10.770  0.00  0.00    -0.773 OA
HETATM   10  H   UNK N   1      37.453  16.647  10.484  0.00  0.00     0.167 HD
ENDBRANCH   7   9
ENDBRANCH   2   7
TORSDOF 4
ENDMDL
MODEL 4
REMARK VINA RESULT:      -4.0     11.142     12.272
REMARK  4 active torsions:
REMARK  status: ('A' for Active; 'I' for Inactive)
REMARK    1  A    between atoms: O_3  and  C_27 
REMARK    2  A    between atoms: O_4  and  C_28 
REMARK    3  A    between atoms: C_25  and  C_27 
REMARK    4  A    between atoms: C_26  and  C_28 
ROOT
HETATM    1  C   UNK N   1      21.809  12.265  10.901  0.00  0.00     0.088 C 
HETATM    2  C   UNK N   1      22.376  11.728  11.998  0.00  0.00     0.088 C 
ENDROOT
BRANCH   1   3
HETATM    3  C   UNK N   1      22.280  13.368  10.033  0.00  0.00     0.165 C 
HETATM    4  O   UNK N   1      23.407  13.388   9.570  0.00  0.00    -0.647 OA
BRANCH   3   5
HETATM    5  O   UNK N   1      21.434  14.375   9.747  0.00  0.00    -0.773 OA
HETATM    6  H   UNK N   1      21.720  15.089   9.213  0.00  0.00     0.167 HD
ENDBRANCH   3   5
ENDBRANCH   1   3
BRANCH   2   7
HETATM    7  C   UNK N   1      23.643  12.065  12.688  0.00  0.00     0.165 C 
HETATM    8  O   UNK N   1      23.694  12.247  13.891  0.00  0.00    -0.647 OA
BRANCH   7   9
HETATM    9  O   UNK N   1      24.770  12.167  11.960  0.00  0.00    -0.773 OA
HETATM   10  H   UNK N   1      25.406  12.823  12.171  0.00  0.00     0.167 HD
ENDBRANCH   7   9
ENDBRANCH   2   7
TORSDOF 4
ENDMDL
MODEL 5
REMARK VINA RESULT:      -4.0     11.149     12.422
REMARK  4 active torsions:
REMARK  status: ('A' for Active; 'I' for Inactive)
REMARK    1  A    between atoms: O_3  and  C_27 
REMARK    2  A    between atoms: O_4  and  C_28 
REMARK    3  A    between atoms: C_25  and  C_27 
REMARK    4  A    between atoms: C_26  and  C_28 
ROOT
HETATM    1  C   UNK N   1      22.373  11.701  11.998  0.00  0.00     0.088 C 
HETATM    2  C   UNK N   1      21.800  12.242  10.905  0.00  0.00     0.088 C 
ENDROOT
BRANCH   1   3
HETATM    3  C   UNK N   1      23.633  12.063  12.686  0.00  0.00     0.165 C 
HETATM    4  O   UNK N   1      23.680  12.250  13.889  0.00  0.00    -0.647 OA
BRANCH   3   5
HETATM    5  O   UNK N   1      24.757  12.186  11.957  0.00  0.00    -0.773 OA
HETATM    6  H   UNK N   1      25.332  11.454  11.857  0.00  0.00     0.167 HD
ENDBRANCH   3   5
ENDBRANCH   1   3
BRANCH   2   7
HETATM    7  C   UNK N   1      22.243  13.361  10.042  0.00  0.00     0.165 C 
HETATM    8  O   UNK N   1      21.518  14.306   9.786  0.00  0.00    -0.647 OA
BRANCH   7   9
HETATM    9  O   UNK N   1      23.487  13.332   9.531  0.00  0.00    -0.773 OA
HETATM   10  H   UNK N   1      23.923  14.132   9.312  0.00  0.00     0.167 HD
ENDBRANCH   7   9
ENDBRANCH   2   7
TORSDOF 4
ENDMDL
MODEL 6
REMARK VINA RESULT:      -4.0     11.135     12.262
REMARK  4 active torsions:
REMARK  status: ('A' for Active; 'I' for Inactive)
REMARK    1  A    between atoms: O_3  and  C_27 
REMARK    2  A    between atoms: O_4  and  C_28 
REMARK    3  A    between atoms: C_25  and  C_27 
REMARK    4  A    between atoms: C_26  and  C_28 
ROOT
HETATM    1  C   UNK N   1      23.663  11.918  10.053  0.00  0.00     0.088 C 
HETATM    2  C   UNK N   1      22.338  11.967   9.816  0.00  0.00     0.088 C 
ENDROOT
BRANCH   1   3
HETATM    3  C   UNK N   1      24.419  12.246  11.283  0.00  0.00     0.165 C 
HETATM    4  O   UNK N   1      24.050  11.876  12.384  0.00  0.00    -0.647 OA
BRANCH   3   5
HETATM    5  O   UNK N   1      25.547  12.971  11.177  0.00  0.00    -0.773 OA
HETATM    6  H   UNK N   1      25.655  13.747  11.691  0.00  0.00     0.167 HD
ENDBRANCH   3   5
ENDBRANCH   1   3
BRANCH   2   7
HETATM    7  C   UNK N   1      21.217  12.365  10.698  0.00  0.00     0.165 C 
HETATM    8  O   UNK N   1      20.370  13.166  10.346  0.00  0.00    -0.647 OA
BRANCH   7   9
HETATM    9  O   UNK N   1      21.133  11.819  11.925  0.00  0.00    -0.773 OA
HETATM   10  H   UNK N   1      20.528  11.122  12.087  0.00  0.00     0.167 HD
ENDBRANCH   7   9
ENDBRANCH   2   7
TORSDOF 4
ENDMDL
MODEL 7
REMARK VINA RESULT:      -4.0     18.510     19.207
REMARK  4 active torsions:
REMARK  status: ('A' for Active; 'I' for Inactive)
REMARK    1  A    between atoms: O_3  and  C_27 
REMARK    2  A    between atoms: O_4  and  C_28 
REMARK    3  A    between atoms: C_25  and  C_27 
REMARK    4  A    between atoms: C_26  and  C_28 
ROOT
HETATM    1  C   UNK N   1      34.870  13.974  11.808  0.00  0.00     0.088 C 
HETATM    2  C   UNK N   1      34.915  14.956  10.887  0.00  0.00     0.088 C 
ENDROOT
BRANCH   1   3
HETATM    3  C   UNK N   1      35.631  13.821  13.069  0.00  0.00     0.165 C 
HETATM    4  O   UNK N   1      35.080  13.591  14.130  0.00  0.00    -0.647 OA
BRANCH   3   5
HETATM    5  O   UNK N   1      36.971  13.937  13.035  0.00  0.00    -0.773 OA
HETATM    6  H   UNK N   1      37.370  14.777  13.139  0.00  0.00     0.167 HD
ENDBRANCH   3   5
ENDBRANCH   1   3
BRANCH   2   7
HETATM    7  C   UNK N   1      35.736  16.188  10.834  0.00  0.00     0.165 C 
HETATM    8  O   UNK N   1      35.236  17.296  10.768  0.00  0.00    -0.647 OA
BRANCH   7   9
HETATM    9  O   UNK N   1      37.077  16.074  10.865  0.00  0.00    -0.773 OA
HETATM   10  H   UNK N   1      37.570  16.517  11.529  0.00  0.00     0.167 HD
ENDBRANCH   7   9
ENDBRANCH   2   7
TORSDOF 4
ENDMDL
MODEL 8
REMARK VINA RESULT:      -4.0     18.517     19.008
REMARK  4 active torsions:
REMARK  status: ('A' for Active; 'I' for Inactive)
REMARK    1  A    between atoms: O_3  and  C_27 
REMARK    2  A    between atoms: O_4  and  C_28 
REMARK    3  A    between atoms: C_25  and  C_27 
REMARK    4  A    between atoms: C_26  and  C_28 
ROOT
HETATM    1  C   UNK N   1      34.937  14.935  10.885  0.00  0.00     0.088 C 
HETATM    2  C   UNK N   1      34.889  13.965  11.818  0.00  0.00     0.088 C 
ENDROOT
BRANCH   1   3
HETATM    3  C   UNK N   1      35.736  16.181  10.853  0.00  0.00     0.165 C 
HETATM    4  O   UNK N   1      35.214  17.281  10.807  0.00  0.00    -0.647 OA
BRANCH   3   5
HETATM    5  O   UNK N   1      37.078  16.091  10.878  0.00  0.00    -0.773 OA
HETATM    6  H   UNK N   1      37.589  16.798  11.218  0.00  0.00     0.167 HD
ENDBRANCH   3   5
ENDBRANCH   1   3
BRANCH   2   7
HETATM    7  C   UNK N   1      35.609  13.832  13.105  0.00  0.00     0.165 C 
HETATM    8  O   UNK N   1      35.030  13.588  14.148  0.00  0.00    -0.647 OA
BRANCH   7   9
HETATM    9  O   UNK N   1      36.947  13.982  13.117  0.00  0.00    -0.773 OA
HETATM   10  H   UNK N   1      37.432  13.792  13.896  0.00  0.00     0.167 HD
ENDBRANCH   7   9
ENDBRANCH   2   7
TORSDOF 4
ENDMDL
MODEL 9
REMARK VINA RESULT:      -4.0      8.900      9.863
REMARK  4 active torsions:
REMARK  status: ('A' for Active; 'I' for Inactive)
REMARK    1  A    between atoms: O_3  and  C_27 
REMARK    2  A    between atoms: O_4  and  C_28 
REMARK    3  A    between atoms: C_25  and  C_27 
REMARK    4  A    between atoms: C_26  and  C_28 
ROOT
HETATM    1  C   UNK N   1      17.450  17.300   9.294  0.00  0.00     0.088 C 
HETATM    2  C   UNK N   1      16.938  18.173  10.184  0.00  0.00     0.088 C 
ENDROOT
BRANCH   1   3
HETATM    3  C   UNK N   1      18.848  16.854   9.102  0.00  0.00     0.165 C 
HETATM    4  O   UNK N   1      19.144  15.674   9.030  0.00  0.00    -0.647 OA
BRANCH   3   5
HETATM    5  O   UNK N   1      19.817  17.782   9.001  0.00  0.00    -0.773 OA
HETATM    6  H   UNK N   1      19.979  18.201   8.179  0.00  0.00     0.167 HD
ENDBRANCH   3   5
ENDBRANCH   1   3
BRANCH   2   7
HETATM    7  C   UNK N   1      17.601  18.966  11.244  0.00  0.00     0.165 C 
HETATM    8  O   UNK N   1      17.234  18.928  12.404  0.00  0.00    -0.647 OA
BRANCH   7   9
HETATM    9  O   UNK N   1      18.646  19.747  10.912  0.00  0.00    -0.773 OA
HETATM   10  H   UNK N   1      18.661  20.646  11.175  0.00  0.00     0.167 HD
ENDBRANCH   7   9
ENDBRANCH   2   7
TORSDOF 4
ENDMDL
