MODEL 1
REMARK VINA RESULT:      -6.1      0.000      0.000
REMARK  8 active torsions:
REMARK  status: ('A' for Active; 'I' for Inactive)
REMARK    1  A    between atoms: S_1  and  C_18 
REMARK    2  A    between atoms: S_1  and  C_23 
REMARK    3  A    between atoms: O_3  and  C_20 
REMARK    4  A    between atoms: N_6  and  C_14 
REMARK    5  A    between atoms: N_7  and  C_13 
REMARK       I    between atoms: N_7  and  C_16 
REMARK    6  A    between atoms: N_8  and  C_21 
REMARK    7  A    between atoms: C_9  and  C_13 
REMARK    8  A    between atoms: C_16  and  C_17 
ROOT
HETATM    1  C   UNK N   1      34.653  14.873   9.947  0.00  0.00     0.066 A 
HETATM    2  C   UNK N   1      35.945  13.880  11.758  0.00  0.00     0.086 A 
HETATM    3  C   UNK N   1      34.781  14.461  11.277  0.00  0.00     0.045 A 
HETATM    4  C   UNK N   1      35.741  14.688   9.065  0.00  0.00     0.086 A 
HETATM    5  C   UNK N   1      37.041  13.721  10.898  0.00  0.00     0.050 A 
HETATM    6  C   UNK N   1      36.936  14.123   9.559  0.00  0.00     0.068 A 
ENDROOT
BRANCH   1   7
HETATM    7  C   UNK N   1      33.349  15.453   9.546  0.00  0.00     0.254 C 
HETATM    8  O   UNK N   1      32.302  14.839   9.718  0.00  0.00    -0.268 OA
HETATM    9  N   UNK N   1      33.338  16.684   8.981  0.00  0.00    -0.355 N 
HETATM   10  H   UNK N   1      34.203  17.131   8.838  0.00  0.00     0.162 HD
BRANCH   9  11
HETATM   11  C   UNK N   1      32.148  17.382   8.576  0.00  0.00     0.158 C 
BRANCH  11  12
HETATM   12  C   UNK N   1      32.048  17.386   7.051  0.00  0.00     0.240 C 
HETATM   13  N   UNK N   1      31.590  16.108   6.511  0.00  0.00     0.094 N 
HETATM   14  C   UNK N   1      32.177  16.027   5.173  0.00  0.00     0.273 C 
HETATM   15  C   UNK N   1      33.307  17.035   5.081  0.00  0.00     0.032 C 
HETATM   16  C   UNK N   1      33.406  17.641   6.456  0.00  0.00     0.039 C 
BRANCH  13  17
HETATM   17  C   UNK N   1      30.141  16.175   6.355  0.00  0.00     0.268 C 
HETATM   18  C   UNK N   1      29.731  17.465   5.662  0.00  0.00     0.037 C 
ENDBRANCH  13  17
ENDBRANCH  11  12
ENDBRANCH   9  11
ENDBRANCH   1   7
BRANCH   4  19
HETATM   19  O   UNK N   1      35.627  15.043   7.759  0.00  0.00    -0.355 OA
HETATM   20  C   UNK N   1      35.423  14.135   6.745  0.00  0.00     0.210 C 
ENDBRANCH   4  19
BRANCH   2  21
HETATM   21  S   UNK N   1      35.947  13.264  13.446  0.00  0.00     0.177 S 
HETATM   22  O   UNK N   1      34.466  12.999  13.759  0.00  0.00    -0.223 OA
HETATM   23  O   UNK N   1      36.399  11.799  13.354  0.00  0.00    -0.223 OA
BRANCH  21  24
HETATM   24  C   UNK N   1      36.635  13.952  14.980  0.00  0.00     0.141 C 
HETATM   25  C   UNK N   1      35.852  13.429  16.174  0.00  0.00     0.021 C 
ENDBRANCH  21  24
ENDBRANCH   2  21
BRANCH   5  26
HETATM   26  N   UNK N   1      38.236  13.131  11.357  0.00  0.00    -0.398 N 
HETATM   27  H   UNK N   1      38.322  12.151  11.387  0.00  0.00     0.156 HD
HETATM   28  H   UNK N   1      38.986  13.700  11.647  0.00  0.00     0.156 HD
ENDBRANCH   5  26
TORSDOF 8
ENDMDL
MODEL 2
REMARK VINA RESULT:      -6.0      1.724      2.073
REMARK  8 active torsions:
REMARK  status: ('A' for Active; 'I' for Inactive)
REMARK    1  A    between atoms: S_1  and  C_18 
REMARK    2  A    between atoms: S_1  and  C_23 
REMARK    3  A    between atoms: O_3  and  C_20 
REMARK    4  A    between atoms: N_6  and  C_14 
REMARK    5  A    between atoms: N_7  and  C_13 
REMARK       I    between atoms: N_7  and  C_16 
REMARK    6  A    between atoms: N_8  and  C_21 
REMARK    7  A    between atoms: C_9  and  C_13 
REMARK    8  A    between atoms: C_16  and  C_17 
ROOT
HETATM    1  C   UNK N   1      35.181  14.928  10.685  0.00  0.00     0.066 A 
HETATM    2  C   UNK N   1      35.560  13.478  12.606  0.00  0.00     0.086 A 
HETATM    3  C   UNK N   1      35.494  14.741  12.034  0.00  0.00     0.045 A 
HETATM    4  C   UNK N   1      34.917  13.798   9.880  0.00  0.00     0.086 A 
HETATM    5  C   UNK N   1      35.330  12.348  11.807  0.00  0.00     0.050 A 
HETATM    6  C   UNK N   1      35.010  12.511  10.452  0.00  0.00     0.068 A 
ENDROOT
BRANCH   1   7
HETATM    7  C   UNK N   1      35.113  16.327  10.199  0.00  0.00     0.254 C 
HETATM    8  O   UNK N   1      35.916  17.171  10.582  0.00  0.00    -0.268 OA
HETATM    9  N   UNK N   1      34.140  16.656   9.316  0.00  0.00    -0.355 N 
HETATM   10  H   UNK N   1      33.501  15.955   9.054  0.00  0.00     0.162 HD
BRANCH   9  11
HETATM   11  C   UNK N   1      33.978  17.962   8.736  0.00  0.00     0.158 C 
BRANCH  11  12
HETATM   12  C   UNK N   1      32.924  17.905   7.630  0.00  0.00     0.240 C 
HETATM   13  N   UNK N   1      31.862  16.940   7.909  0.00  0.00     0.094 N 
HETATM   14  C   UNK N   1      31.383  16.509   6.596  0.00  0.00     0.273 C 
HETATM   15  C   UNK N   1      32.423  16.884   5.557  0.00  0.00     0.032 C 
HETATM   16  C   UNK N   1      33.567  17.472   6.340  0.00  0.00     0.039 C 
BRANCH  13  17
HETATM   17  C   UNK N   1      30.770  17.649   8.568  0.00  0.00     0.268 C 
HETATM   18  C   UNK N   1      29.566  17.764   7.646  0.00  0.00     0.037 C 
ENDBRANCH  13  17
ENDBRANCH  11  12
ENDBRANCH   9  11
ENDBRANCH   1   7
BRANCH   4  19
HETATM   19  O   UNK N   1      34.571  13.956   8.576  0.00  0.00    -0.355 OA
HETATM   20  C   UNK N   1      35.435  13.721   7.530  0.00  0.00     0.210 C 
ENDBRANCH   4  19
BRANCH   2  21
HETATM   21  S   UNK N   1      35.835  13.366  14.378  0.00  0.00     0.177 S 
HETATM   22  O   UNK N   1      37.007  12.384  14.523  0.00  0.00    -0.223 OA
HETATM   23  O   UNK N   1      36.593  14.645  14.763  0.00  0.00    -0.223 OA
BRANCH  21  24
HETATM   24  C   UNK N   1      34.713  12.963  15.749  0.00  0.00     0.141 C 
HETATM   25  C   UNK N   1      35.348  13.371  17.068  0.00  0.00     0.021 C 
ENDBRANCH  21  24
ENDBRANCH   2  21
BRANCH   5  26
HETATM   26  N   UNK N   1      35.386  11.053  12.360  0.00  0.00    -0.398 N 
HETATM   27  H   UNK N   1      35.766  10.311  11.837  0.00  0.00     0.156 HD
HETATM   28  H   UNK N   1      35.044  10.891  13.269  0.00  0.00     0.156 HD
ENDBRANCH   5  26
TORSDOF 8
ENDMDL
MODEL 3
REMARK VINA RESULT:      -5.9     10.549     14.062
REMARK  8 active torsions:
REMARK  status: ('A' for Active; 'I' for Inactive)
REMARK    1  A    between atoms: S_1  and  C_18 
REMARK    2  A    between atoms: S_1  and  C_23 
REMARK    3  A    between atoms: O_3  and  C_20 
REMARK    4  A    between atoms: N_6  and  C_14 
REMARK    5  A    between atoms: N_7  and  C_13 
REMARK       I    between atoms: N_7  and  C_16 
REMARK    6  A    between atoms: N_8  and  C_21 
REMARK    7  A    between atoms: C_9  and  C_13 
REMARK    8  A    between atoms: C_16  and  C_17 
ROOT
HETATM    1  C   UNK N   1      22.445  19.533   3.170  0.00  0.00     0.066 A 
HETATM    2  C   UNK N   1      21.268  17.900   4.542  0.00  0.00     0.086 A 
HETATM    3  C   UNK N   1      22.346  18.746   4.320  0.00  0.00     0.045 A 
HETATM    4  C   UNK N   1      21.415  19.468   2.204  0.00  0.00     0.086 A 
HETATM    5  C   UNK N   1      20.256  17.806   3.576  0.00  0.00     0.050 A 
HETATM    6  C   UNK N   1      20.332  18.588   2.415  0.00  0.00     0.068 A 
ENDROOT
BRANCH   1   7
HETATM    7  C   UNK N   1      23.629  20.418   3.061  0.00  0.00     0.254 C 
HETATM    8  O   UNK N   1      23.506  21.635   2.973  0.00  0.00    -0.268 OA
HETATM    9  N   UNK N   1      24.860  19.852   3.062  0.00  0.00    -0.355 N 
HETATM   10  H   UNK N   1      24.913  18.870   3.109  0.00  0.00     0.162 HD
BRANCH   9  11
HETATM   11  C   UNK N   1      26.093  20.588   2.999  0.00  0.00     0.158 C 
BRANCH  11  12
HETATM   12  C   UNK N   1      27.036  20.107   4.101  0.00  0.00     0.240 C 
HETATM   13  N   UNK N   1      26.722  18.758   4.565  0.00  0.00     0.094 N 
HETATM   14  C   UNK N   1      27.178  18.717   5.955  0.00  0.00     0.273 C 
HETATM   15  C   UNK N   1      27.368  20.140   6.442  0.00  0.00     0.032 C 
HETATM   16  C   UNK N   1      26.916  21.010   5.299  0.00  0.00     0.039 C 
BRANCH  13  17
HETATM   17  C   UNK N   1      27.538  17.817   3.804  0.00  0.00     0.268 C 
HETATM   18  C   UNK N   1      26.702  16.642   3.323  0.00  0.00     0.037 C 
ENDBRANCH  13  17
ENDBRANCH  11  12
ENDBRANCH   9  11
ENDBRANCH   1   7
BRANCH   4  19
HETATM   19  O   UNK N   1      21.469  20.252   1.097  0.00  0.00    -0.355 OA
HETATM   20  C   UNK N   1      20.579  21.273   0.849  0.00  0.00     0.210 C 
ENDBRANCH   4  19
BRANCH   2  21
HETATM   21  S   UNK N   1      21.178  17.043   6.119  0.00  0.00     0.177 S 
HETATM   22  O   UNK N   1      22.616  16.571   6.382  0.00  0.00    -0.223 OA
HETATM   23  O   UNK N   1      21.127  18.144   7.189  0.00  0.00    -0.223 OA
BRANCH  21  24
HETATM   24  C   UNK N   1      20.124  15.679   6.690  0.00  0.00     0.141 C 
HETATM   25  C   UNK N   1      20.087  15.660   8.210  0.00  0.00     0.021 C 
ENDBRANCH  21  24
ENDBRANCH   2  21
BRANCH   5  26
HETATM   26  N   UNK N   1      19.148  16.959   3.774  0.00  0.00    -0.398 N 
HETATM   27  H   UNK N   1      18.960  16.596   4.670  0.00  0.00     0.156 HD
HETATM   28  H   UNK N   1      18.561  16.730   3.017  0.00  0.00     0.156 HD
ENDBRANCH   5  26
TORSDOF 8
ENDMDL
MODEL 4
REMARK VINA RESULT:      -5.8      7.634     12.631
REMARK  8 active torsions:
REMARK  status: ('A' for Active; 'I' for Inactive)
REMARK    1  A    between atoms: S_1  and  C_18 
REMARK    2  A    between atoms: S_1  and  C_23 
REMARK    3  A    between atoms: O_3  and  C_20 
REMARK    4  A    between atoms: N_6  and  C_14 
REMARK    5  A    between atoms: N_7  and  C_13 
REMARK       I    between atoms: N_7  and  C_16 
REMARK    6  A    between atoms: N_8  and  C_21 
REMARK    7  A    between atoms: C_9  and  C_13 
REMARK    8  A    between atoms: C_16  and  C_17 
ROOT
HETATM    1  C   UNK N   1      25.240  18.231   4.422  0.00  0.00     0.066 A 
HETATM    2  C   UNK N   1      22.956  18.891   3.892  0.00  0.00     0.086 A 
HETATM    3  C   UNK N   1      23.859  18.034   4.505  0.00  0.00     0.045 A 
HETATM    4  C   UNK N   1      25.733  19.338   3.696  0.00  0.00     0.086 A 
HETATM    5  C   UNK N   1      23.436  19.976   3.143  0.00  0.00     0.050 A 
HETATM    6  C   UNK N   1      24.817  20.195   3.048  0.00  0.00     0.068 A 
ENDROOT
BRANCH   1   7
HETATM    7  C   UNK N   1      26.101  17.263   5.144  0.00  0.00     0.254 C 
HETATM    8  O   UNK N   1      26.206  16.102   4.765  0.00  0.00    -0.268 OA
HETATM    9  N   UNK N   1      26.775  17.691   6.239  0.00  0.00    -0.355 N 
HETATM   10  H   UNK N   1      26.643  18.624   6.523  0.00  0.00     0.162 HD
BRANCH   9  11
HETATM   11  C   UNK N   1      27.670  16.875   7.013  0.00  0.00     0.158 C 
BRANCH  11  12
HETATM   12  C   UNK N   1      28.818  17.733   7.545  0.00  0.00     0.240 C 
HETATM   13  N   UNK N   1      30.052  16.972   7.733  0.00  0.00     0.094 N 
HETATM   14  C   UNK N   1      30.764  17.661   8.809  0.00  0.00     0.273 C 
HETATM   15  C   UNK N   1      29.784  18.559   9.539  0.00  0.00     0.032 C 
HETATM   16  C   UNK N   1      28.450  18.291   8.893  0.00  0.00     0.039 C 
BRANCH  13  17
HETATM   17  C   UNK N   1      30.851  17.101   6.518  0.00  0.00     0.268 C 
HETATM   18  C   UNK N   1      32.330  17.215   6.854  0.00  0.00     0.037 C 
ENDBRANCH  13  17
ENDBRANCH  11  12
ENDBRANCH   9  11
ENDBRANCH   1   7
BRANCH   4  19
HETATM   19  O   UNK N   1      27.069  19.572   3.634  0.00  0.00    -0.355 OA
HETATM   20  C   UNK N   1      27.730  20.410   4.504  0.00  0.00     0.210 C 
ENDBRANCH   4  19
BRANCH   2  21
HETATM   21  S   UNK N   1      21.203  18.621   4.182  0.00  0.00     0.177 S 
HETATM   22  O   UNK N   1      21.120  18.194   5.655  0.00  0.00    -0.223 OA
HETATM   23  O   UNK N   1      20.588  20.019   4.341  0.00  0.00    -0.223 OA
BRANCH  21  24
HETATM   24  C   UNK N   1      19.986  17.583   3.323  0.00  0.00     0.141 C 
HETATM   25  C   UNK N   1      20.636  16.276   2.896  0.00  0.00     0.021 C 
ENDBRANCH  21  24
ENDBRANCH   2  21
BRANCH   5  26
HETATM   26  N   UNK N   1      22.544  20.865   2.512  0.00  0.00    -0.398 N 
HETATM   27  H   UNK N   1      21.578  20.675   2.510  0.00  0.00     0.156 HD
HETATM   28  H   UNK N   1      22.887  21.678   2.074  0.00  0.00     0.156 HD
ENDBRANCH   5  26
TORSDOF 8
ENDMDL
MODEL 5
REMARK VINA RESULT:      -5.8      2.730      7.945
REMARK  8 active torsions:
REMARK  status: ('A' for Active; 'I' for Inactive)
REMARK    1  A    between atoms: S_1  and  C_18 
REMARK    2  A    between atoms: S_1  and  C_23 
REMARK    3  A    between atoms: O_3  and  C_20 
REMARK    4  A    between atoms: N_6  and  C_14 
REMARK    5  A    between atoms: N_7  and  C_13 
REMARK       I    between atoms: N_7  and  C_16 
REMARK    6  A    between atoms: N_8  and  C_21 
REMARK    7  A    between atoms: C_9  and  C_13 
REMARK    8  A    between atoms: C_16  and  C_17 
ROOT
HETATM    1  C   UNK N   1      35.353  14.660   9.914  0.00  0.00     0.066 A 
HETATM    2  C   UNK N   1      34.564  15.709   7.862  0.00  0.00     0.086 A 
HETATM    3  C   UNK N   1      34.512  15.549   9.240  0.00  0.00     0.045 A 
HETATM    4  C   UNK N   1      36.287  13.903   9.172  0.00  0.00     0.086 A 
HETATM    5  C   UNK N   1      35.466  14.940   7.114  0.00  0.00     0.050 A 
HETATM    6  C   UNK N   1      36.323  14.044   7.768  0.00  0.00     0.068 A 
ENDROOT
BRANCH   1   7
HETATM    7  C   UNK N   1      35.223  14.600  11.390  0.00  0.00     0.254 C 
HETATM    8  O   UNK N   1      34.122  14.555  11.928  0.00  0.00    -0.268 OA
HETATM    9  N   UNK N   1      36.353  14.594  12.137  0.00  0.00    -0.355 N 
HETATM   10  H   UNK N   1      37.215  14.657  11.666  0.00  0.00     0.162 HD
BRANCH   9  11
HETATM   11  C   UNK N   1      36.378  14.504  13.572  0.00  0.00     0.158 C 
BRANCH  11  12
HETATM   12  C   UNK N   1      36.137  13.057  14.000  0.00  0.00     0.240 C 
HETATM   13  N   UNK N   1      36.287  12.861  15.441  0.00  0.00     0.094 N 
HETATM   14  C   UNK N   1      36.707  11.468  15.595  0.00  0.00     0.273 C 
HETATM   15  C   UNK N   1      37.211  10.966  14.255  0.00  0.00     0.032 C 
HETATM   16  C   UNK N   1      37.148  12.159  13.339  0.00  0.00     0.039 C 
BRANCH  13  17
HETATM   17  C   UNK N   1      34.970  12.997  16.055  0.00  0.00     0.268 C 
HETATM   18  C   UNK N   1      35.073  12.943  17.571  0.00  0.00     0.037 C 
ENDBRANCH  13  17
ENDBRANCH  11  12
ENDBRANCH   9  11
ENDBRANCH   1   7
BRANCH   4  19
HETATM   19  O   UNK N   1      37.142  13.062   9.809  0.00  0.00    -0.355 OA
HETATM   20  C   UNK N   1      38.512  13.196   9.758  0.00  0.00     0.210 C 
ENDBRANCH   4  19
BRANCH   2  21
HETATM   21  S   UNK N   1      33.533  16.981   7.120  0.00  0.00     0.177 S 
HETATM   22  O   UNK N   1      32.985  17.775   8.315  0.00  0.00    -0.223 OA
HETATM   23  O   UNK N   1      34.504  18.048   6.595  0.00  0.00    -0.223 OA
BRANCH  21  24
HETATM   24  C   UNK N   1      32.149  16.878   5.949  0.00  0.00     0.141 C 
HETATM   25  C   UNK N   1      32.579  17.426   4.597  0.00  0.00     0.021 C 
ENDBRANCH  21  24
ENDBRANCH   2  21
BRANCH   5  26
HETATM   26  N   UNK N   1      35.544  15.083   5.714  0.00  0.00    -0.398 N 
HETATM   27  H   UNK N   1      35.072  15.822   5.267  0.00  0.00     0.156 HD
HETATM   28  H   UNK N   1      36.073  14.444   5.182  0.00  0.00     0.156 HD
ENDBRANCH   5  26
TORSDOF 8
ENDMDL
MODEL 6
REMARK VINA RESULT:      -5.8      3.243      7.865
REMARK  8 active torsions:
REMARK  status: ('A' for Active; 'I' for Inactive)
REMARK    1  A    between atoms: S_1  and  C_18 
REMARK    2  A    between atoms: S_1  and  C_23 
REMARK    3  A    between atoms: O_3  and  C_20 
REMARK    4  A    between atoms: N_6  and  C_14 
REMARK    5  A    between atoms: N_7  and  C_13 
REMARK       I    between atoms: N_7  and  C_16 
REMARK    6  A    between atoms: N_8  and  C_21 
REMARK    7  A    between atoms: C_9  and  C_13 
REMARK    8  A    between atoms: C_16  and  C_17 
ROOT
HETATM    1  C   UNK N   1      33.074  17.025   7.931  0.00  0.00     0.066 A 
HETATM    2  C   UNK N   1      30.738  17.314   7.303  0.00  0.00     0.086 A 
HETATM    3  C   UNK N   1      31.738  17.266   8.264  0.00  0.00     0.045 A 
HETATM    4  C   UNK N   1      33.418  16.829   6.575  0.00  0.00     0.086 A 
HETATM    5  C   UNK N   1      31.065  17.091   5.958  0.00  0.00     0.050 A 
HETATM    6  C   UNK N   1      32.398  16.851   5.599  0.00  0.00     0.068 A 
ENDROOT
BRANCH   1   7
HETATM    7  C   UNK N   1      34.054  17.026   9.044  0.00  0.00     0.254 C 
HETATM    8  O   UNK N   1      34.851  17.947   9.186  0.00  0.00    -0.268 OA
HETATM    9  N   UNK N   1      34.050  15.982   9.907  0.00  0.00    -0.355 N 
HETATM   10  H   UNK N   1      33.411  15.253   9.742  0.00  0.00     0.162 HD
BRANCH   9  11
HETATM   11  C   UNK N   1      34.918  15.868  11.048  0.00  0.00     0.158 C 
BRANCH  11  12
HETATM   12  C   UNK N   1      35.333  14.409  11.235  0.00  0.00     0.240 C 
HETATM   13  N   UNK N   1      36.362  14.240  12.258  0.00  0.00     0.094 N 
HETATM   14  C   UNK N   1      37.102  13.042  11.861  0.00  0.00     0.273 C 
HETATM   15  C   UNK N   1      36.795  12.746  10.405  0.00  0.00     0.032 C 
HETATM   16  C   UNK N   1      35.914  13.880   9.951  0.00  0.00     0.039 C 
BRANCH  13  17
HETATM   17  C   UNK N   1      35.698  13.952  13.525  0.00  0.00     0.268 C 
HETATM   18  C   UNK N   1      36.660  13.296  14.503  0.00  0.00     0.037 C 
ENDBRANCH  13  17
ENDBRANCH  11  12
ENDBRANCH   9  11
ENDBRANCH   1   7
BRANCH   4  19
HETATM   19  O   UNK N   1      34.714  16.634   6.223  0.00  0.00    -0.355 OA
HETATM   20  C   UNK N   1      35.251  15.390   5.973  0.00  0.00     0.210 C 
ENDBRANCH   4  19
BRANCH   2  21
HETATM   21  S   UNK N   1      29.081  17.769   7.830  0.00  0.00     0.177 S 
HETATM   22  O   UNK N   1      28.170  16.712   7.187  0.00  0.00    -0.223 OA
HETATM   23  O   UNK N   1      28.959  17.284   9.283  0.00  0.00    -0.223 OA
BRANCH  21  24
HETATM   24  C   UNK N   1      28.159  19.328   7.696  0.00  0.00     0.141 C 
HETATM   25  C   UNK N   1      27.718  19.541   6.257  0.00  0.00     0.021 C 
ENDBRANCH  21  24
ENDBRANCH   2  21
BRANCH   5  26
HETATM   26  N   UNK N   1      30.072  17.137   4.959  0.00  0.00    -0.398 N 
HETATM   27  H   UNK N   1      29.759  18.005   4.616  0.00  0.00     0.156 HD
HETATM   28  H   UNK N   1      29.691  16.301   4.604  0.00  0.00     0.156 HD
ENDBRANCH   5  26
TORSDOF 8
ENDMDL
MODEL 7
REMARK VINA RESULT:      -5.8      2.395      3.214
REMARK  8 active torsions:
REMARK  status: ('A' for Active; 'I' for Inactive)
REMARK    1  A    between atoms: S_1  and  C_18 
REMARK    2  A    between atoms: S_1  and  C_23 
REMARK    3  A    between atoms: O_3  and  C_20 
REMARK    4  A    between atoms: N_6  and  C_14 
REMARK    5  A    between atoms: N_7  and  C_13 
REMARK       I    between atoms: N_7  and  C_16 
REMARK    6  A    between atoms: N_8  and  C_21 
REMARK    7  A    between atoms: C_9  and  C_13 
REMARK    8  A    between atoms: C_16  and  C_17 
ROOT
HETATM    1  C   UNK N   1      33.412  15.224   9.071  0.00  0.00     0.066 A 
HETATM    2  C   UNK N   1      34.653  14.286  10.945  0.00  0.00     0.086 A 
HETATM    3  C   UNK N   1      33.684  14.179   9.958  0.00  0.00     0.045 A 
HETATM    4  C   UNK N   1      34.148  16.425   9.180  0.00  0.00     0.086 A 
HETATM    5  C   UNK N   1      35.368  15.485  11.081  0.00  0.00     0.050 A 
HETATM    6  C   UNK N   1      35.115  16.547  10.201  0.00  0.00     0.068 A 
ENDROOT
BRANCH   1   7
HETATM    7  C   UNK N   1      32.374  14.978   8.041  0.00  0.00     0.254 C 
HETATM    8  O   UNK N   1      32.220  13.866   7.550  0.00  0.00    -0.268 OA
HETATM    9  N   UNK N   1      31.593  16.015   7.652  0.00  0.00    -0.355 N 
HETATM   10  H   UNK N   1      31.767  16.896   8.053  0.00  0.00     0.162 HD
BRANCH   9  11
HETATM   11  C   UNK N   1      30.528  15.914   6.692  0.00  0.00     0.158 C 
BRANCH  11  12
HETATM   12  C   UNK N   1      29.980  17.307   6.384  0.00  0.00     0.240 C 
HETATM   13  N   UNK N   1      28.697  17.566   7.035  0.00  0.00     0.094 N 
HETATM   14  C   UNK N   1      28.018  18.530   6.168  0.00  0.00     0.273 C 
HETATM   15  C   UNK N   1      28.697  18.521   4.812  0.00  0.00     0.032 C 
HETATM   16  C   UNK N   1      29.744  17.442   4.904  0.00  0.00     0.039 C 
BRANCH  13  17
HETATM   17  C   UNK N   1      28.962  18.227   8.309  0.00  0.00     0.268 C 
HETATM   18  C   UNK N   1      28.403  17.414   9.466  0.00  0.00     0.037 C 
ENDBRANCH  13  17
ENDBRANCH  11  12
ENDBRANCH   9  11
ENDBRANCH   1   7
BRANCH   4  19
HETATM   19  O   UNK N   1      33.929  17.440   8.305  0.00  0.00    -0.355 OA
HETATM   20  C   UNK N   1      34.695  18.584   8.267  0.00  0.00     0.210 C 
ENDBRANCH   4  19
BRANCH   2  21
HETATM   21  S   UNK N   1      35.014  12.832  11.937  0.00  0.00     0.177 S 
HETATM   22  O   UNK N   1      36.547  12.792  12.016  0.00  0.00    -0.223 OA
HETATM   23  O   UNK N   1      34.746  13.243  13.392  0.00  0.00    -0.223 OA
BRANCH  21  24
HETATM   24  C   UNK N   1      34.508  11.096  11.759  0.00  0.00     0.141 C 
HETATM   25  C   UNK N   1      34.061  10.552  13.106  0.00  0.00     0.021 C 
ENDBRANCH  21  24
ENDBRANCH   2  21
BRANCH   5  26
HETATM   26  N   UNK N   1      36.360  15.623  12.072  0.00  0.00    -0.398 N 
HETATM   27  H   UNK N   1      37.010  14.899  12.223  0.00  0.00     0.156 HD
HETATM   28  H   UNK N   1      36.405  16.445  12.613  0.00  0.00     0.156 HD
ENDBRANCH   5  26
TORSDOF 8
ENDMDL
MODEL 8
REMARK VINA RESULT:      -5.8      8.823     11.738
REMARK  8 active torsions:
REMARK  status: ('A' for Active; 'I' for Inactive)
REMARK    1  A    between atoms: S_1  and  C_18 
REMARK    2  A    between atoms: S_1  and  C_23 
REMARK    3  A    between atoms: O_3  and  C_20 
REMARK    4  A    between atoms: N_6  and  C_14 
REMARK    5  A    between atoms: N_7  and  C_13 
REMARK       I    between atoms: N_7  and  C_16 
REMARK    6  A    between atoms: N_8  and  C_21 
REMARK    7  A    between atoms: C_9  and  C_13 
REMARK    8  A    between atoms: C_16  and  C_17 
ROOT
HETATM    1  C   UNK N   1      23.929  15.969   5.977  0.00  0.00     0.066 A 
HETATM    2  C   UNK N   1      22.336  14.774   7.380  0.00  0.00     0.086 A 
HETATM    3  C   UNK N   1      23.587  14.884   6.788  0.00  0.00     0.045 A 
HETATM    4  C   UNK N   1      22.974  16.987   5.756  0.00  0.00     0.086 A 
HETATM    5  C   UNK N   1      21.372  15.764   7.142  0.00  0.00     0.050 A 
HETATM    6  C   UNK N   1      21.693  16.864   6.335  0.00  0.00     0.068 A 
ENDROOT
BRANCH   1   7
HETATM    7  C   UNK N   1      25.305  15.988   5.425  0.00  0.00     0.254 C 
HETATM    8  O   UNK N   1      25.669  15.156   4.602  0.00  0.00    -0.268 OA
HETATM    9  N   UNK N   1      26.157  16.951   5.851  0.00  0.00    -0.355 N 
HETATM   10  H   UNK N   1      25.832  17.584   6.531  0.00  0.00     0.162 HD
BRANCH   9  11
HETATM   11  C   UNK N   1      27.505  17.111   5.377  0.00  0.00     0.158 C 
BRANCH  11  12
HETATM   12  C   UNK N   1      27.968  18.548   5.618  0.00  0.00     0.240 C 
HETATM   13  N   UNK N   1      27.543  19.068   6.916  0.00  0.00     0.094 N 
HETATM   14  C   UNK N   1      27.431  20.515   6.729  0.00  0.00     0.273 C 
HETATM   15  C   UNK N   1      27.375  20.806   5.241  0.00  0.00     0.032 C 
HETATM   16  C   UNK N   1      27.368  19.454   4.577  0.00  0.00     0.039 C 
BRANCH  13  17
HETATM   17  C   UNK N   1      28.618  18.828   7.873  0.00  0.00     0.268 C 
HETATM   18  C   UNK N   1      28.135  17.953   9.020  0.00  0.00     0.037 C 
ENDBRANCH  13  17
ENDBRANCH  11  12
ENDBRANCH   9  11
ENDBRANCH   1   7
BRANCH   4  19
HETATM   19  O   UNK N   1      23.297  18.072   5.004  0.00  0.00    -0.355 OA
HETATM   20  C   UNK N   1      22.504  18.546   3.983  0.00  0.00     0.210 C 
ENDBRANCH   4  19
BRANCH   2  21
HETATM   21  S   UNK N   1      22.056  13.408   8.514  0.00  0.00     0.177 S 
HETATM   22  O   UNK N   1      21.527  14.074   9.793  0.00  0.00    -0.223 OA
HETATM   23  O   UNK N   1      20.739  12.758   8.064  0.00  0.00    -0.223 OA
BRANCH  21  24
HETATM   24  C   UNK N   1      23.150  12.079   9.094  0.00  0.00     0.141 C 
HETATM   25  C   UNK N   1      22.750  11.662  10.500  0.00  0.00     0.021 C 
ENDBRANCH  21  24
ENDBRANCH   2  21
BRANCH   5  26
HETATM   26  N   UNK N   1      20.095  15.681   7.732  0.00  0.00    -0.398 N 
HETATM   27  H   UNK N   1      19.300  15.967   7.227  0.00  0.00     0.156 HD
HETATM   28  H   UNK N   1      19.998  15.337   8.650  0.00  0.00     0.156 HD
ENDBRANCH   5  26
TORSDOF 8
ENDMDL
MODEL 9
REMARK VINA RESULT:      -5.7     16.030     19.485
REMARK  8 active torsions:
REMARK  status: ('A' for Active; 'I' for Inactive)
REMARK    1  A    between atoms: S_1  and  C_18 
REMARK    2  A    between atoms: S_1  and  C_23 
REMARK    3  A    between atoms: O_3  and  C_20 
REMARK    4  A    between atoms: N_6  and  C_14 
REMARK    5  A    between atoms: N_7  and  C_13 
REMARK       I    between atoms: N_7  and  C_16 
REMARK    6  A    between atoms: N_8  and  C_21 
REMARK    7  A    between atoms: C_9  and  C_13 
REMARK    8  A    between atoms: C_16  and  C_17 
ROOT
HETATM    1  C   UNK N   1      26.974  23.796  -5.861  0.00  0.00     0.066 A 
HETATM    2  C   UNK N   1      29.094  22.602  -5.746  0.00  0.00     0.086 A 
HETATM    3  C   UNK N   1      28.218  23.566  -5.267  0.00  0.00     0.045 A 
HETATM    4  C   UNK N   1      26.595  23.022  -6.980  0.00  0.00     0.086 A 
HETATM    5  C   UNK N   1      28.740  21.849  -6.874  0.00  0.00     0.050 A 
HETATM    6  C   UNK N   1      27.495  22.060  -7.485  0.00  0.00     0.068 A 
ENDROOT
BRANCH   1   7
HETATM    7  C   UNK N   1      26.115  24.833  -5.240  0.00  0.00     0.254 C 
HETATM    8  O   UNK N   1      25.667  24.690  -4.107  0.00  0.00    -0.268 OA
HETATM    9  N   UNK N   1      25.834  25.949  -5.954  0.00  0.00    -0.355 N 
HETATM   10  H   UNK N   1      26.192  26.012  -6.868  0.00  0.00     0.162 HD
BRANCH   9  11
HETATM   11  C   UNK N   1      25.045  27.048  -5.466  0.00  0.00     0.158 C 
BRANCH  11  12
HETATM   12  C   UNK N   1      25.966  28.133  -4.908  0.00  0.00     0.240 C 
HETATM   13  N   UNK N   1      27.366  27.931  -5.274  0.00  0.00     0.094 N 
HETATM   14  C   UNK N   1      28.136  28.548  -4.194  0.00  0.00     0.273 C 
HETATM   15  C   UNK N   1      27.223  28.736  -2.998  0.00  0.00     0.032 C 
HETATM   16  C   UNK N   1      25.911  28.118  -3.404  0.00  0.00     0.039 C 
BRANCH  13  17
HETATM   17  C   UNK N   1      27.627  28.690  -6.494  0.00  0.00     0.268 C 
HETATM   18  C   UNK N   1      28.473  29.917  -6.195  0.00  0.00     0.037 C 
ENDBRANCH  13  17
ENDBRANCH  11  12
ENDBRANCH   9  11
ENDBRANCH   1   7
BRANCH   4  19
HETATM   19  O   UNK N   1      25.375  23.199  -7.549  0.00  0.00    -0.355 OA
HETATM   20  C   UNK N   1      25.195  23.765  -8.791  0.00  0.00     0.210 C 
ENDBRANCH   4  19
BRANCH   2  21
HETATM   21  S   UNK N   1      30.604  22.298  -4.820  0.00  0.00     0.177 S 
HETATM   22  O   UNK N   1      30.611  20.780  -4.584  0.00  0.00    -0.223 OA
HETATM   23  O   UNK N   1      31.741  22.348  -5.851  0.00  0.00    -0.223 OA
BRANCH  21  24
HETATM   24  C   UNK N   1      31.236  23.016  -3.276  0.00  0.00     0.141 C 
HETATM   25  C   UNK N   1      30.166  22.938  -2.198  0.00  0.00     0.021 C 
ENDBRANCH  21  24
ENDBRANCH   2  21
BRANCH   5  26
HETATM   26  N   UNK N   1      29.607  20.861  -7.382  0.00  0.00    -0.398 N 
HETATM   27  H   UNK N   1      30.157  21.049  -8.176  0.00  0.00     0.156 HD
HETATM   28  H   UNK N   1      29.663  19.982  -6.941  0.00  0.00     0.156 HD
ENDBRANCH   5  26
TORSDOF 8
ENDMDL
