MODEL 1
REMARK VINA RESULT:      -7.1      0.000      0.000
REMARK  6 active torsions:
REMARK  status: ('A' for Active; 'I' for Inactive)
REMARK    1  A    between atoms: C_2  and  O_4 
REMARK    2  A    between atoms: O_4  and  C_5 
REMARK    3  A    between atoms: N_11  and  C_13 
REMARK    4  A    between atoms: C_13  and  C_14 
REMARK    5  A    between atoms: C_13  and  C_19 
REMARK    6  A    between atoms: C_14  and  C_16 
ROOT
HETATM    1  C   UNK N   1      34.569  15.261   9.127  0.00  0.00     0.121 A 
HETATM    2  C   UNK N   1      34.142  14.940  10.425  0.00  0.00     0.055 A 
HETATM    3  C   UNK N   1      35.075  14.100  11.097  0.00  0.00    -0.014 A 
HETATM    4  C   UNK N   1      36.197  13.777  10.341  0.00  0.00    -0.005 A 
HETATM    5  C   UNK N   1      37.298  12.898  10.825  0.00  0.00     0.077 C 
HETATM    6  C   UNK N   1      36.853  12.237  12.136  0.00  0.00     0.279 C 
HETATM    7  N   UNK N   1      36.251  13.224  13.053  0.00  0.00     0.109 N 
HETATM    8  C   UNK N   1      34.925  13.567  12.494  0.00  0.00     0.313 C 
HETATM    9  S   UNK N   1      36.044  14.521   8.876  0.00  0.00    -0.069 SA
ENDROOT
BRANCH   7  10
HETATM   10  C   UNK N   1      36.081  12.621  14.396  0.00  0.00     0.328 C 
BRANCH  10  11
HETATM   11  C   UNK N   1      36.959  11.387  14.645  0.00  0.00     0.169 C 
HETATM   12  O   UNK N   1      38.160  11.546  14.816  0.00  0.00    -0.295 OA
BRANCH  11  13
HETATM   13  C   UNK N   1      36.376   9.990  14.700  0.00  0.00     0.058 A 
HETATM   14  C   UNK N   1      34.865  10.081  14.861  0.00  0.00     0.013 A 
HETATM   15  C   UNK N   1      35.720   9.676  16.038  0.00  0.00     0.013 A 
ENDBRANCH  11  13
ENDBRANCH  10  11
BRANCH  10  16
HETATM   16  C   UNK N   1      36.216  13.597  15.572  0.00  0.00     0.021 A 
HETATM   17  C   UNK N   1      37.126  14.660  15.428  0.00  0.00     0.013 A 
HETATM   18  C   UNK N   1      37.316  15.595  16.446  0.00  0.00     0.001 A 
HETATM   19  C   UNK N   1      36.605  15.480  17.638  0.00  0.00     0.003 A 
HETATM   20  C   UNK N   1      35.697  14.435  17.808  0.00  0.00     0.043 A 
HETATM   21  C   UNK N   1      35.491  13.496  16.789  0.00  0.00     0.125 A 
HETATM   22  F   UNK N   1      34.580  12.517  17.003  0.00  0.00    -0.205 F 
ENDBRANCH  10  16
ENDBRANCH   7  10
BRANCH   1  23
HETATM   23  O   UNK N   1      33.868  16.040   8.264  0.00  0.00    -0.272 OA
BRANCH  23  24
HETATM   24  C   UNK N   1      34.353  17.100   7.562  0.00  0.00     0.260 C 
HETATM   25  C   UNK N   1      34.579  18.394   8.263  0.00  0.00     0.126 C 
HETATM   26  O   UNK N   1      34.584  17.023   6.365  0.00  0.00    -0.265 OA
ENDBRANCH  23  24
ENDBRANCH   1  23
TORSDOF 6
ENDMDL
MODEL 2
REMARK VINA RESULT:      -6.5      9.884     13.296
REMARK  6 active torsions:
REMARK  status: ('A' for Active; 'I' for Inactive)
REMARK    1  A    between atoms: C_2  and  O_4 
REMARK    2  A    between atoms: O_4  and  C_5 
REMARK    3  A    between atoms: N_11  and  C_13 
REMARK    4  A    between atoms: C_13  and  C_14 
REMARK    5  A    between atoms: C_13  and  C_19 
REMARK    6  A    between atoms: C_14  and  C_16 
ROOT
HETATM    1  C   UNK N   1      23.450  13.092   8.297  0.00  0.00     0.121 A 
HETATM    2  C   UNK N   1      24.805  13.423   8.147  0.00  0.00     0.055 A 
HETATM    3  C   UNK N   1      24.991  14.494   7.227  0.00  0.00    -0.014 A 
HETATM    4  C   UNK N   1      23.810  14.980   6.675  0.00  0.00    -0.005 A 
HETATM    5  C   UNK N   1      23.755  16.082   5.675  0.00  0.00     0.077 C 
HETATM    6  C   UNK N   1      25.182  16.377   5.195  0.00  0.00     0.279 C 
HETATM    7  N   UNK N   1      26.118  16.469   6.331  0.00  0.00     0.109 N 
HETATM    8  C   UNK N   1      26.312  15.091   6.833  0.00  0.00     0.313 C 
HETATM    9  S   UNK N   1      22.563  14.112   7.318  0.00  0.00    -0.069 SA
ENDROOT
BRANCH   7  10
HETATM   10  C   UNK N   1      27.416  17.014   5.868  0.00  0.00     0.328 C 
BRANCH  10  11
HETATM   11  C   UNK N   1      27.290  18.205   4.909  0.00  0.00     0.169 C 
HETATM   12  O   UNK N   1      27.811  18.127   3.804  0.00  0.00    -0.295 OA
BRANCH  11  13
HETATM   13  C   UNK N   1      26.527  19.458   5.288  0.00  0.00     0.058 A 
HETATM   14  C   UNK N   1      26.842  20.560   4.287  0.00  0.00     0.013 A 
HETATM   15  C   UNK N   1      27.442  20.613   5.672  0.00  0.00     0.013 A 
ENDBRANCH  11  13
ENDBRANCH  10  11
BRANCH  10  16
HETATM   16  C   UNK N   1      28.418  17.350   6.981  0.00  0.00     0.021 A 
HETATM   17  C   UNK N   1      27.897  17.827   8.197  0.00  0.00     0.013 A 
HETATM   18  C   UNK N   1      28.732  18.159   9.264  0.00  0.00     0.001 A 
HETATM   19  C   UNK N   1      30.113  18.032   9.132  0.00  0.00     0.003 A 
HETATM   20  C   UNK N   1      30.657  17.562   7.936  0.00  0.00     0.043 A 
HETATM   21  C   UNK N   1      29.828  17.217   6.863  0.00  0.00     0.125 A 
HETATM   22  F   UNK N   1      30.412  16.746   5.735  0.00  0.00    -0.205 F 
ENDBRANCH  10  16
ENDBRANCH   7  10
BRANCH   1  23
HETATM   23  O   UNK N   1      22.991  12.104   9.107  0.00  0.00    -0.272 OA
BRANCH  23  24
HETATM   24  C   UNK N   1      22.502  12.259  10.367  0.00  0.00     0.260 C 
HETATM   25  C   UNK N   1      23.375  11.936  11.529  0.00  0.00     0.126 C 
HETATM   26  O   UNK N   1      21.357  12.633  10.568  0.00  0.00    -0.265 OA
ENDBRANCH  23  24
ENDBRANCH   1  23
TORSDOF 6
ENDMDL
MODEL 3
REMARK VINA RESULT:      -6.3      3.024      7.822
REMARK  6 active torsions:
REMARK  status: ('A' for Active; 'I' for Inactive)
REMARK    1  A    between atoms: C_2  and  O_4 
REMARK    2  A    between atoms: O_4  and  C_5 
REMARK    3  A    between atoms: N_11  and  C_13 
REMARK    4  A    between atoms: C_13  and  C_14 
REMARK    5  A    between atoms: C_13  and  C_19 
REMARK    6  A    between atoms: C_14  and  C_16 
ROOT
HETATM    1  C   UNK N   1      36.344  13.505  13.925  0.00  0.00     0.121 A 
HETATM    2  C   UNK N   1      35.919  14.538  13.076  0.00  0.00     0.055 A 
HETATM    3  C   UNK N   1      36.181  14.243  11.708  0.00  0.00    -0.014 A 
HETATM    4  C   UNK N   1      36.796  13.012  11.500  0.00  0.00    -0.005 A 
HETATM    5  C   UNK N   1      37.184  12.495  10.159  0.00  0.00     0.077 C 
HETATM    6  C   UNK N   1      37.034  13.630   9.137  0.00  0.00     0.279 C 
HETATM    7  N   UNK N   1      35.747  14.331   9.304  0.00  0.00     0.109 N 
HETATM    8  C   UNK N   1      35.859  15.134  10.542  0.00  0.00     0.313 C 
HETATM    9  S   UNK N   1      37.001  12.300  12.974  0.00  0.00    -0.069 SA
ENDROOT
BRANCH   7  10
HETATM   10  C   UNK N   1      35.513  15.230   8.150  0.00  0.00     0.328 C 
BRANCH  10  11
HETATM   11  C   UNK N   1      35.576  14.530   6.786  0.00  0.00     0.169 C 
HETATM   12  O   UNK N   1      36.273  15.019   5.907  0.00  0.00    -0.295 OA
BRANCH  11  13
HETATM   13  C   UNK N   1      34.815  13.250   6.510  0.00  0.00     0.058 A 
HETATM   14  C   UNK N   1      34.843  12.960   5.016  0.00  0.00     0.013 A 
HETATM   15  C   UNK N   1      33.574  13.473   5.655  0.00  0.00     0.013 A 
ENDBRANCH  11  13
ENDBRANCH  10  11
BRANCH  10  16
HETATM   16  C   UNK N   1      34.241  16.085   8.235  0.00  0.00     0.021 A 
HETATM   17  C   UNK N   1      34.367  17.458   7.957  0.00  0.00     0.013 A 
HETATM   18  C   UNK N   1      33.265  18.312   8.011  0.00  0.00     0.001 A 
HETATM   19  C   UNK N   1      32.012  17.811   8.356  0.00  0.00     0.003 A 
HETATM   20  C   UNK N   1      31.860  16.453   8.637  0.00  0.00     0.043 A 
HETATM   21  C   UNK N   1      32.957  15.585   8.577  0.00  0.00     0.125 A 
HETATM   22  F   UNK N   1      32.743  14.274   8.839  0.00  0.00    -0.205 F 
ENDBRANCH  10  16
ENDBRANCH   7  10
BRANCH   1  23
HETATM   23  O   UNK N   1      36.223  13.530  15.277  0.00  0.00    -0.272 OA
BRANCH  23  24
HETATM   24  C   UNK N   1      35.161  13.077  15.997  0.00  0.00     0.260 C 
HETATM   25  C   UNK N   1      35.378  12.609  17.394  0.00  0.00     0.126 C 
HETATM   26  O   UNK N   1      34.039  13.021  15.518  0.00  0.00    -0.265 OA
ENDBRANCH  23  24
ENDBRANCH   1  23
TORSDOF 6
ENDMDL
MODEL 4
REMARK VINA RESULT:      -6.3     20.563     24.762
REMARK  6 active torsions:
REMARK  status: ('A' for Active; 'I' for Inactive)
REMARK    1  A    between atoms: C_2  and  O_4 
REMARK    2  A    between atoms: O_4  and  C_5 
REMARK    3  A    between atoms: N_11  and  C_13 
REMARK    4  A    between atoms: C_13  and  C_14 
REMARK    5  A    between atoms: C_13  and  C_19 
REMARK    6  A    between atoms: C_14  and  C_16 
ROOT
HETATM    1  C   UNK N   1      25.596  25.061 -10.627  0.00  0.00     0.121 A 
HETATM    2  C   UNK N   1      25.546  25.832  -9.456  0.00  0.00     0.055 A 
HETATM    3  C   UNK N   1      25.792  25.048  -8.293  0.00  0.00    -0.014 A 
HETATM    4  C   UNK N   1      26.025  23.701  -8.555  0.00  0.00    -0.005 A 
HETATM    5  C   UNK N   1      26.286  22.685  -7.498  0.00  0.00     0.077 C 
HETATM    6  C   UNK N   1      25.995  23.317  -6.131  0.00  0.00     0.279 C 
HETATM    7  N   UNK N   1      26.606  24.656  -6.022  0.00  0.00     0.109 N 
HETATM    8  C   UNK N   1      25.806  25.557  -6.880  0.00  0.00     0.313 C 
HETATM    9  S   UNK N   1      25.940  23.487 -10.188  0.00  0.00    -0.069 SA
ENDROOT
BRANCH   7  10
HETATM   10  C   UNK N   1      26.541  25.123  -4.617  0.00  0.00     0.328 C 
BRANCH  10  11
HETATM   11  C   UNK N   1      27.370  24.281  -3.637  0.00  0.00     0.169 C 
HETATM   12  O   UNK N   1      26.904  24.039  -2.532  0.00  0.00    -0.295 OA
BRANCH  11  13
HETATM   13  C   UNK N   1      28.732  23.734  -4.009  0.00  0.00     0.058 A 
HETATM   14  C   UNK N   1      29.389  23.138  -2.773  0.00  0.00     0.013 A 
HETATM   15  C   UNK N   1      29.872  24.464  -3.312  0.00  0.00     0.013 A 
ENDBRANCH  11  13
ENDBRANCH  10  11
BRANCH  10  16
HETATM   16  C   UNK N   1      26.849  26.612  -4.409  0.00  0.00     0.021 A 
HETATM   17  C   UNK N   1      25.920  27.366  -3.670  0.00  0.00     0.013 A 
HETATM   18  C   UNK N   1      26.116  28.727  -3.432  0.00  0.00     0.001 A 
HETATM   19  C   UNK N   1      27.245  29.366  -3.939  0.00  0.00     0.003 A 
HETATM   20  C   UNK N   1      28.183  28.642  -4.675  0.00  0.00     0.043 A 
HETATM   21  C   UNK N   1      28.001  27.274  -4.912  0.00  0.00     0.125 A 
HETATM   22  F   UNK N   1      28.955  26.619  -5.615  0.00  0.00    -0.205 F 
ENDBRANCH  10  16
ENDBRANCH   7  10
BRANCH   1  23
HETATM   23  O   UNK N   1      25.392  25.554 -11.875  0.00  0.00    -0.272 OA
BRANCH  23  24
HETATM   24  C   UNK N   1      25.236  26.865 -12.207  0.00  0.00     0.260 C 
HETATM   25  C   UNK N   1      23.863  27.439 -12.270  0.00  0.00     0.126 C 
HETATM   26  O   UNK N   1      26.191  27.575 -12.478  0.00  0.00    -0.265 OA
ENDBRANCH  23  24
ENDBRANCH   1  23
TORSDOF 6
ENDMDL
MODEL 5
REMARK VINA RESULT:      -6.3      7.143     11.761
REMARK  6 active torsions:
REMARK  status: ('A' for Active; 'I' for Inactive)
REMARK    1  A    between atoms: C_2  and  O_4 
REMARK    2  A    between atoms: O_4  and  C_5 
REMARK    3  A    between atoms: N_11  and  C_13 
REMARK    4  A    between atoms: C_13  and  C_14 
REMARK    5  A    between atoms: C_13  and  C_19 
REMARK    6  A    between atoms: C_14  and  C_16 
ROOT
HETATM    1  C   UNK N   1      33.663  16.989   6.330  0.00  0.00     0.121 A 
HETATM    2  C   UNK N   1      32.528  17.750   6.013  0.00  0.00     0.055 A 
HETATM    3  C   UNK N   1      31.531  16.969   5.361  0.00  0.00    -0.014 A 
HETATM    4  C   UNK N   1      31.885  15.636   5.176  0.00  0.00    -0.005 A 
HETATM    5  C   UNK N   1      31.014  14.634   4.502  0.00  0.00     0.077 C 
HETATM    6  C   UNK N   1      29.838  15.371   3.848  0.00  0.00     0.279 C 
HETATM    7  N   UNK N   1      29.240  16.350   4.775  0.00  0.00     0.109 N 
HETATM    8  C   UNK N   1      30.199  17.472   4.882  0.00  0.00     0.313 C 
HETATM    9  S   UNK N   1      33.392  15.426   5.813  0.00  0.00    -0.069 SA
ENDROOT
BRANCH   7  10
HETATM   10  C   UNK N   1      27.958  16.846   4.222  0.00  0.00     0.328 C 
BRANCH  10  11
HETATM   11  C   UNK N   1      26.787  15.867   4.379  0.00  0.00     0.169 C 
HETATM   12  O   UNK N   1      25.950  15.806   3.488  0.00  0.00    -0.295 OA
BRANCH  11  13
HETATM   13  C   UNK N   1      26.653  14.970   5.592  0.00  0.00     0.058 A 
HETATM   14  C   UNK N   1      25.275  14.324   5.590  0.00  0.00     0.013 A 
HETATM   15  C   UNK N   1      25.576  15.442   6.560  0.00  0.00     0.013 A 
ENDBRANCH  11  13
ENDBRANCH  10  11
BRANCH  10  16
HETATM   16  C   UNK N   1      27.534  18.240   4.704  0.00  0.00     0.021 A 
HETATM   17  C   UNK N   1      27.186  19.184   3.721  0.00  0.00     0.013 A 
HETATM   18  C   UNK N   1      26.790  20.477   4.066  0.00  0.00     0.001 A 
HETATM   19  C   UNK N   1      26.744  20.857   5.405  0.00  0.00     0.003 A 
HETATM   20  C   UNK N   1      27.085  19.940   6.400  0.00  0.00     0.043 A 
HETATM   21  C   UNK N   1      27.475  18.638   6.066  0.00  0.00     0.125 A 
HETATM   22  F   UNK N   1      27.773  17.786   7.076  0.00  0.00    -0.205 F 
ENDBRANCH  10  16
ENDBRANCH   7  10
BRANCH   1  23
HETATM   23  O   UNK N   1      34.766  17.485   6.948  0.00  0.00    -0.272 OA
BRANCH  23  24
HETATM   24  C   UNK N   1      34.817  18.012   8.202  0.00  0.00     0.260 C 
HETATM   25  C   UNK N   1      34.511  17.139   9.368  0.00  0.00     0.126 C 
HETATM   26  O   UNK N   1      35.084  19.188   8.391  0.00  0.00    -0.265 OA
ENDBRANCH  23  24
ENDBRANCH   1  23
TORSDOF 6
ENDMDL
MODEL 6
REMARK VINA RESULT:      -6.3     13.840     17.840
REMARK  6 active torsions:
REMARK  status: ('A' for Active; 'I' for Inactive)
REMARK    1  A    between atoms: C_2  and  O_4 
REMARK    2  A    between atoms: O_4  and  C_5 
REMARK    3  A    between atoms: N_11  and  C_13 
REMARK    4  A    between atoms: C_13  and  C_14 
REMARK    5  A    between atoms: C_13  and  C_19 
REMARK    6  A    between atoms: C_14  and  C_16 
ROOT
HETATM    1  C   UNK N   1      21.835  12.813   8.976  0.00  0.00     0.121 A 
HETATM    2  C   UNK N   1      21.817  12.830   7.574  0.00  0.00     0.055 A 
HETATM    3  C   UNK N   1      21.154  13.983   7.065  0.00  0.00    -0.014 A 
HETATM    4  C   UNK N   1      20.668  14.838   8.049  0.00  0.00    -0.005 A 
HETATM    5  C   UNK N   1      19.924  16.096   7.760  0.00  0.00     0.077 C 
HETATM    6  C   UNK N   1      19.579  16.125   6.265  0.00  0.00     0.279 C 
HETATM    7  N   UNK N   1      20.747  15.763   5.441  0.00  0.00     0.109 N 
HETATM    8  C   UNK N   1      20.953  14.308   5.613  0.00  0.00     0.313 C 
HETATM    9  S   UNK N   1      21.059  14.189   9.514  0.00  0.00    -0.069 SA
ENDROOT
BRANCH   7  10
HETATM   10  C   UNK N   1      20.466  16.059   4.016  0.00  0.00     0.328 C 
BRANCH  10  11
HETATM   11  C   UNK N   1      20.253  17.548   3.715  0.00  0.00     0.169 C 
HETATM   12  O   UNK N   1      19.373  17.868   2.927  0.00  0.00    -0.295 OA
BRANCH  11  13
HETATM   13  C   UNK N   1      21.088  18.625   4.377  0.00  0.00     0.058 A 
HETATM   14  C   UNK N   1      20.872  19.946   3.654  0.00  0.00     0.013 A 
HETATM   15  C   UNK N   1      22.163  19.188   3.458  0.00  0.00     0.013 A 
ENDBRANCH  11  13
ENDBRANCH  10  11
BRANCH  10  16
HETATM   16  C   UNK N   1      21.469  15.467   3.016  0.00  0.00     0.021 A 
HETATM   17  C   UNK N   1      20.944  14.787   1.902  0.00  0.00     0.013 A 
HETATM   18  C   UNK N   1      21.780  14.216   0.942  0.00  0.00     0.001 A 
HETATM   19  C   UNK N   1      23.163  14.304   1.082  0.00  0.00     0.003 A 
HETATM   20  C   UNK N   1      23.710  14.972   2.178  0.00  0.00     0.043 A 
HETATM   21  C   UNK N   1      22.881  15.557   3.142  0.00  0.00     0.125 A 
HETATM   22  F   UNK N   1      23.469  16.212   4.172  0.00  0.00    -0.205 F 
ENDBRANCH  10  16
ENDBRANCH   7  10
BRANCH   1  23
HETATM   23  O   UNK N   1      22.396  11.826   9.721  0.00  0.00    -0.272 OA
BRANCH  23  24
HETATM   24  C   UNK N   1      23.368  11.980  10.661  0.00  0.00     0.260 C 
HETATM   25  C   UNK N   1      22.997  11.930  12.102  0.00  0.00     0.126 C 
HETATM   26  O   UNK N   1      24.531  12.185  10.352  0.00  0.00    -0.265 OA
ENDBRANCH  23  24
ENDBRANCH   1  23
TORSDOF 6
ENDMDL
MODEL 7
REMARK VINA RESULT:      -6.2     12.809     14.833
REMARK  6 active torsions:
REMARK  status: ('A' for Active; 'I' for Inactive)
REMARK    1  A    between atoms: C_2  and  O_4 
REMARK    2  A    between atoms: O_4  and  C_5 
REMARK    3  A    between atoms: N_11  and  C_13 
REMARK    4  A    between atoms: C_13  and  C_14 
REMARK    5  A    between atoms: C_13  and  C_19 
REMARK    6  A    between atoms: C_14  and  C_16 
ROOT
HETATM    1  C   UNK N   1      21.595  18.359   5.239  0.00  0.00     0.121 A 
HETATM    2  C   UNK N   1      20.909  17.320   5.884  0.00  0.00     0.055 A 
HETATM    3  C   UNK N   1      21.760  16.210   6.154  0.00  0.00    -0.014 A 
HETATM    4  C   UNK N   1      23.073  16.384   5.728  0.00  0.00    -0.005 A 
HETATM    5  C   UNK N   1      24.138  15.355   5.883  0.00  0.00     0.077 C 
HETATM    6  C   UNK N   1      23.484  14.040   6.330  0.00  0.00     0.279 C 
HETATM    7  N   UNK N   1      22.525  14.268   7.427  0.00  0.00     0.109 N 
HETATM    8  C   UNK N   1      21.346  14.932   6.827  0.00  0.00     0.313 C 
HETATM    9  S   UNK N   1      23.182  17.880   5.041  0.00  0.00    -0.069 SA
ENDROOT
BRANCH   7  10
HETATM   10  C   UNK N   1      22.116  12.970   8.013  0.00  0.00     0.328 C 
BRANCH  10  11
HETATM   11  C   UNK N   1      22.282  11.774   7.065  0.00  0.00     0.169 C 
HETATM   12  O   UNK N   1      21.328  11.432   6.380  0.00  0.00    -0.295 OA
BRANCH  11  13
HETATM   13  C   UNK N   1      23.593  11.025   6.947  0.00  0.00     0.058 A 
HETATM   14  C   UNK N   1      23.412   9.839   6.012  0.00  0.00     0.013 A 
HETATM   15  C   UNK N   1      23.517   9.609   7.501  0.00  0.00     0.013 A 
ENDBRANCH  11  13
ENDBRANCH  10  11
BRANCH  10  16
HETATM   16  C   UNK N   1      22.744  12.641   9.375  0.00  0.00     0.021 A 
HETATM   17  C   UNK N   1      24.148  12.634   9.454  0.00  0.00     0.013 A 
HETATM   18  C   UNK N   1      24.805  12.345  10.650  0.00  0.00     0.001 A 
HETATM   19  C   UNK N   1      24.069  12.045  11.793  0.00  0.00     0.003 A 
HETATM   20  C   UNK N   1      22.675  12.044  11.743  0.00  0.00     0.043 A 
HETATM   21  C   UNK N   1      22.005  12.342  10.550  0.00  0.00     0.125 A 
HETATM   22  F   UNK N   1      20.651  12.347  10.568  0.00  0.00    -0.205 F 
ENDBRANCH  10  16
ENDBRANCH   7  10
BRANCH   1  23
HETATM   23  O   UNK N   1      21.023  19.531   4.859  0.00  0.00    -0.272 OA
BRANCH  23  24
HETATM   24  C   UNK N   1      20.771  19.926   3.581  0.00  0.00     0.260 C 
HETATM   25  C   UNK N   1      19.780  19.168   2.769  0.00  0.00     0.126 C 
HETATM   26  O   UNK N   1      21.356  20.872   3.077  0.00  0.00    -0.265 OA
ENDBRANCH  23  24
ENDBRANCH   1  23
TORSDOF 6
ENDMDL
MODEL 8
REMARK VINA RESULT:      -6.2     10.378     13.848
REMARK  6 active torsions:
REMARK  status: ('A' for Active; 'I' for Inactive)
REMARK    1  A    between atoms: C_2  and  O_4 
REMARK    2  A    between atoms: O_4  and  C_5 
REMARK    3  A    between atoms: N_11  and  C_13 
REMARK    4  A    between atoms: C_13  and  C_14 
REMARK    5  A    between atoms: C_13  and  C_19 
REMARK    6  A    between atoms: C_14  and  C_16 
ROOT
HETATM    1  C   UNK N   1      23.126  19.886   3.338  0.00  0.00     0.121 A 
HETATM    2  C   UNK N   1      23.550  18.675   3.905  0.00  0.00     0.055 A 
HETATM    3  C   UNK N   1      24.963  18.633   4.074  0.00  0.00    -0.014 A 
HETATM    4  C   UNK N   1      25.620  19.782   3.647  0.00  0.00    -0.005 A 
HETATM    5  C   UNK N   1      27.097  19.963   3.705  0.00  0.00     0.077 C 
HETATM    6  C   UNK N   1      27.740  18.613   4.052  0.00  0.00     0.279 C 
HETATM    7  N   UNK N   1      27.040  17.962   5.175  0.00  0.00     0.109 N 
HETATM    8  C   UNK N   1      25.743  17.484   4.646  0.00  0.00     0.313 C 
HETATM    9  S   UNK N   1      24.478  20.831   3.083  0.00  0.00    -0.069 SA
ENDROOT
BRANCH   7  10
HETATM   10  C   UNK N   1      27.833  16.808   5.658  0.00  0.00     0.328 C 
BRANCH  10  11
HETATM   11  C   UNK N   1      28.757  17.133   6.839  0.00  0.00     0.169 C 
HETATM   12  O   UNK N   1      29.726  16.413   7.042  0.00  0.00    -0.295 OA
BRANCH  11  13
HETATM   13  C   UNK N   1      28.511  18.323   7.743  0.00  0.00     0.058 A 
HETATM   14  C   UNK N   1      29.547  18.333   8.857  0.00  0.00     0.013 A 
HETATM   15  C   UNK N   1      28.127  17.920   9.160  0.00  0.00     0.013 A 
ENDBRANCH  11  13
ENDBRANCH  10  11
BRANCH  10  16
HETATM   16  C   UNK N   1      27.023  15.542   5.969  0.00  0.00     0.021 A 
HETATM   17  C   UNK N   1      26.212  15.561   7.118  0.00  0.00     0.013 A 
HETATM   18  C   UNK N   1      25.441  14.455   7.480  0.00  0.00     0.001 A 
HETATM   19  C   UNK N   1      25.476  13.300   6.703  0.00  0.00     0.003 A 
HETATM   20  C   UNK N   1      26.272  13.253   5.559  0.00  0.00     0.043 A 
HETATM   21  C   UNK N   1      27.041  14.360   5.181  0.00  0.00     0.125 A 
HETATM   22  F   UNK N   1      27.778  14.264   4.049  0.00  0.00    -0.205 F 
ENDBRANCH  10  16
ENDBRANCH   7  10
BRANCH   1  23
HETATM   23  O   UNK N   1      21.832  20.188   3.062  0.00  0.00    -0.272 OA
BRANCH  23  24
HETATM   24  C   UNK N   1      21.161  19.883   1.918  0.00  0.00     0.260 C 
HETATM   25  C   UNK N   1      20.245  18.709   1.904  0.00  0.00     0.126 C 
HETATM   26  O   UNK N   1      21.310  20.534   0.896  0.00  0.00    -0.265 OA
ENDBRANCH  23  24
ENDBRANCH   1  23
TORSDOF 6
ENDMDL
MODEL 9
REMARK VINA RESULT:      -6.1      6.206     11.081
REMARK  6 active torsions:
REMARK  status: ('A' for Active; 'I' for Inactive)
REMARK    1  A    between atoms: C_2  and  O_4 
REMARK    2  A    between atoms: O_4  and  C_5 
REMARK    3  A    between atoms: N_11  and  C_13 
REMARK    4  A    between atoms: C_13  and  C_14 
REMARK    5  A    between atoms: C_13  and  C_19 
REMARK    6  A    between atoms: C_14  and  C_16 
ROOT
HETATM    1  C   UNK N   1      34.016  17.045   8.522  0.00  0.00     0.121 A 
HETATM    2  C   UNK N   1      32.772  17.633   8.250  0.00  0.00     0.055 A 
HETATM    3  C   UNK N   1      32.210  17.149   7.034  0.00  0.00    -0.014 A 
HETATM    4  C   UNK N   1      32.999  16.209   6.378  0.00  0.00    -0.005 A 
HETATM    5  C   UNK N   1      32.630  15.576   5.082  0.00  0.00     0.077 C 
HETATM    6  C   UNK N   1      31.415  16.317   4.507  0.00  0.00     0.279 C 
HETATM    7  N   UNK N   1      30.381  16.525   5.538  0.00  0.00     0.109 N 
HETATM    8  C   UNK N   1      30.894  17.573   6.447  0.00  0.00     0.313 C 
HETATM    9  S   UNK N   1      34.357  15.975   7.286  0.00  0.00    -0.069 SA
ENDROOT
BRANCH   7  10
HETATM   10  C   UNK N   1      29.126  16.992   4.902  0.00  0.00     0.328 C 
BRANCH  10  11
HETATM   11  C   UNK N   1      28.072  15.893   4.713  0.00  0.00     0.169 C 
HETATM   12  O   UNK N   1      28.086  14.930   5.469  0.00  0.00    -0.295 OA
BRANCH  11  13
HETATM   13  C   UNK N   1      27.013  15.980   3.635  0.00  0.00     0.058 A 
HETATM   14  C   UNK N   1      26.546  14.577   3.273  0.00  0.00     0.013 A 
HETATM   15  C   UNK N   1      27.447  15.333   2.326  0.00  0.00     0.013 A 
ENDBRANCH  11  13
ENDBRANCH  10  11
BRANCH  10  16
HETATM   16  C   UNK N   1      28.480  18.221   5.556  0.00  0.00     0.021 A 
HETATM   17  C   UNK N   1      28.320  19.368   4.757  0.00  0.00     0.013 A 
HETATM   18  C   UNK N   1      27.744  20.532   5.267  0.00  0.00     0.001 A 
HETATM   19  C   UNK N   1      27.326  20.577   6.595  0.00  0.00     0.003 A 
HETATM   20  C   UNK N   1      27.474  19.455   7.410  0.00  0.00     0.043 A 
HETATM   21  C   UNK N   1      28.042  18.278   6.906  0.00  0.00     0.125 A 
HETATM   22  F   UNK N   1      28.140  17.214   7.738  0.00  0.00    -0.205 F 
ENDBRANCH  10  16
ENDBRANCH   7  10
BRANCH   1  23
HETATM   23  O   UNK N   1      34.774  17.331   9.611  0.00  0.00    -0.272 OA
BRANCH  23  24
HETATM   24  C   UNK N   1      35.354  16.428  10.447  0.00  0.00     0.260 C 
HETATM   25  C   UNK N   1      34.511  15.372  11.073  0.00  0.00     0.126 C 
HETATM   26  O   UNK N   1      36.544  16.477  10.716  0.00  0.00    -0.265 OA
ENDBRANCH  23  24
ENDBRANCH   1  23
TORSDOF 6
ENDMDL
