MODEL 1
REMARK VINA RESULT:      -3.4      0.000      0.000
REMARK  0 active torsions:
REMARK  status: ('A' for Active; 'I' for Inactive)
ROOT
HETATM    1  C   UNK N   1      27.942  26.563  -4.382  0.00  0.00     0.551 C 
HETATM    2  C   UNK N   1      25.895  27.339  -3.428  0.00  0.00     0.551 C 
HETATM    3  C   UNK N   1      25.965  25.239  -4.568  0.00  0.00     0.551 C 
HETATM    4  C   UNK N   1      26.794  28.416  -5.359  0.00  0.00     0.551 C 
HETATM    5  C   UNK N   1      26.861  26.322  -6.500  0.00  0.00     0.551 C 
HETATM    6  C   UNK N   1      24.813  27.091  -5.540  0.00  0.00     0.551 C 
HETATM    7  N   UNK N   1      26.713  26.149  -3.691  0.00  0.00     0.173 N 
HETATM    8  N   UNK N   1      27.625  27.242  -5.646  0.00  0.00     0.173 N 
HETATM    9  N   UNK N   1      25.551  28.024  -4.680  0.00  0.00     0.173 N 
HETATM   10  N   UNK N   1      25.621  25.900  -5.834  0.00  0.00     0.173 N 
ENDROOT
TORSDOF 0
ENDMDL
MODEL 2
REMARK VINA RESULT:      -3.4      0.026      2.627
REMARK  0 active torsions:
REMARK  status: ('A' for Active; 'I' for Inactive)
ROOT
HETATM    1  C   UNK N   1      27.946  26.573  -4.419  0.00  0.00     0.551 C 
HETATM    2  C   UNK N   1      26.843  26.341  -6.524  0.00  0.00     0.551 C 
HETATM    3  C   UNK N   1      26.780  28.429  -5.363  0.00  0.00     0.551 C 
HETATM    4  C   UNK N   1      25.971  25.242  -4.593  0.00  0.00     0.551 C 
HETATM    5  C   UNK N   1      25.903  27.327  -3.434  0.00  0.00     0.551 C 
HETATM    6  C   UNK N   1      24.805  27.101  -5.543  0.00  0.00     0.551 C 
HETATM    7  N   UNK N   1      27.611  27.259  -5.675  0.00  0.00     0.173 N 
HETATM    8  N   UNK N   1      26.728  26.144  -3.719  0.00  0.00     0.173 N 
HETATM    9  N   UNK N   1      25.611  25.913  -5.851  0.00  0.00     0.173 N 
HETATM   10  N   UNK N   1      25.546  28.025  -4.676  0.00  0.00     0.173 N 
ENDROOT
TORSDOF 0
ENDMDL
MODEL 3
REMARK VINA RESULT:      -3.4      0.028      2.270
REMARK  0 active torsions:
REMARK  status: ('A' for Active; 'I' for Inactive)
ROOT
HETATM    1  C   UNK N   1      26.856  26.315  -6.494  0.00  0.00     0.551 C 
HETATM    2  C   UNK N   1      25.993  25.249  -4.539  0.00  0.00     0.551 C 
HETATM    3  C   UNK N   1      24.817  27.084  -5.521  0.00  0.00     0.551 C 
HETATM    4  C   UNK N   1      27.963  26.590  -4.395  0.00  0.00     0.551 C 
HETATM    5  C   UNK N   1      26.790  28.424  -5.370  0.00  0.00     0.551 C 
HETATM    6  C   UNK N   1      25.918  27.355  -3.419  0.00  0.00     0.551 C 
HETATM    7  N   UNK N   1      25.628  25.893  -5.806  0.00  0.00     0.173 N 
HETATM    8  N   UNK N   1      27.624  27.250  -5.660  0.00  0.00     0.173 N 
HETATM    9  N   UNK N   1      26.747  26.172  -3.682  0.00  0.00     0.173 N 
HETATM   10  N   UNK N   1      25.558  28.029  -4.674  0.00  0.00     0.173 N 
ENDROOT
TORSDOF 0
ENDMDL
MODEL 4
REMARK VINA RESULT:      -3.4      0.028      2.266
REMARK  0 active torsions:
REMARK  status: ('A' for Active; 'I' for Inactive)
ROOT
HETATM    1  C   UNK N   1      25.914  27.330  -3.434  0.00  0.00     0.551 C 
HETATM    2  C   UNK N   1      26.794  28.431  -5.362  0.00  0.00     0.551 C 
HETATM    3  C   UNK N   1      24.821  27.094  -5.542  0.00  0.00     0.551 C 
HETATM    4  C   UNK N   1      27.960  26.578  -4.410  0.00  0.00     0.551 C 
HETATM    5  C   UNK N   1      25.993  25.242  -4.594  0.00  0.00     0.551 C 
HETATM    6  C   UNK N   1      26.865  26.348  -6.523  0.00  0.00     0.551 C 
HETATM    7  N   UNK N   1      25.560  28.025  -4.679  0.00  0.00     0.173 N 
HETATM    8  N   UNK N   1      26.743  26.149  -3.715  0.00  0.00     0.173 N 
HETATM    9  N   UNK N   1      27.630  27.264  -5.668  0.00  0.00     0.173 N 
HETATM   10  N   UNK N   1      25.634  25.912  -5.851  0.00  0.00     0.173 N 
ENDROOT
TORSDOF 0
ENDMDL
MODEL 5
REMARK VINA RESULT:      -3.4     16.562     17.913
REMARK  0 active torsions:
REMARK  status: ('A' for Active; 'I' for Inactive)
ROOT
HETATM    1  C   UNK N   1      32.150  17.620   8.313  0.00  0.00     0.551 C 
HETATM    2  C   UNK N   1      32.368  15.586   7.081  0.00  0.00     0.551 C 
HETATM    3  C   UNK N   1      33.420  15.811   9.216  0.00  0.00     0.551 C 
HETATM    4  C   UNK N   1      33.477  17.561   6.328  0.00  0.00     0.551 C 
HETATM    5  C   UNK N   1      34.531  17.785   8.456  0.00  0.00     0.551 C 
HETATM    6  C   UNK N   1      34.745  15.746   7.231  0.00  0.00     0.551 C 
HETATM    7  N   UNK N   1      32.231  16.157   8.426  0.00  0.00     0.173 N 
HETATM    8  N   UNK N   1      33.352  18.158   7.662  0.00  0.00     0.173 N 
HETATM    9  N   UNK N   1      33.574  16.097   6.417  0.00  0.00     0.173 N 
HETATM   10  N   UNK N   1      34.638  16.325   8.576  0.00  0.00     0.173 N 
ENDROOT
TORSDOF 0
ENDMDL
MODEL 6
REMARK VINA RESULT:      -3.4     16.581     17.829
REMARK  0 active torsions:
REMARK  status: ('A' for Active; 'I' for Inactive)
ROOT
HETATM    1  C   UNK N   1      34.758  15.755   7.222  0.00  0.00     0.551 C 
HETATM    2  C   UNK N   1      34.544  17.791   8.452  0.00  0.00     0.551 C 
HETATM    3  C   UNK N   1      33.467  15.803   9.229  0.00  0.00     0.551 C 
HETATM    4  C   UNK N   1      33.457  17.553   6.341  0.00  0.00     0.551 C 
HETATM    5  C   UNK N   1      32.378  15.572   7.115  0.00  0.00     0.551 C 
HETATM    6  C   UNK N   1      32.167  17.604   8.353  0.00  0.00     0.551 C 
HETATM    7  N   UNK N   1      34.668  16.333   8.571  0.00  0.00     0.173 N 
HETATM    8  N   UNK N   1      33.568  16.094   6.430  0.00  0.00     0.173 N 
HETATM    9  N   UNK N   1      33.350  18.153   7.679  0.00  0.00     0.173 N 
HETATM   10  N   UNK N   1      32.260  16.143   8.464  0.00  0.00     0.173 N 
ENDROOT
TORSDOF 0
ENDMDL
MODEL 7
REMARK VINA RESULT:      -3.4     16.574     17.954
REMARK  0 active torsions:
REMARK  status: ('A' for Active; 'I' for Inactive)
ROOT
HETATM    1  C   UNK N   1      32.152  17.591   8.326  0.00  0.00     0.551 C 
HETATM    2  C   UNK N   1      34.529  17.787   8.448  0.00  0.00     0.551 C 
HETATM    3  C   UNK N   1      33.454  17.544   6.327  0.00  0.00     0.551 C 
HETATM    4  C   UNK N   1      33.455  15.799   9.218  0.00  0.00     0.551 C 
HETATM    5  C   UNK N   1      32.385  15.553   7.100  0.00  0.00     0.551 C 
HETATM    6  C   UNK N   1      34.762  15.756   7.217  0.00  0.00     0.551 C 
HETATM    7  N   UNK N   1      33.341  18.144   7.663  0.00  0.00     0.173 N 
HETATM    8  N   UNK N   1      32.254  16.130   8.445  0.00  0.00     0.173 N 
HETATM    9  N   UNK N   1      34.660  16.330   8.565  0.00  0.00     0.173 N 
HETATM   10  N   UNK N   1      33.574  16.083   6.419  0.00  0.00     0.173 N 
ENDROOT
TORSDOF 0
ENDMDL
MODEL 8
REMARK VINA RESULT:      -3.4     16.567     17.900
REMARK  0 active torsions:
REMARK  status: ('A' for Active; 'I' for Inactive)
ROOT
HETATM    1  C   UNK N   1      32.368  15.583   7.021  0.00  0.00     0.551 C 
HETATM    2  C   UNK N   1      33.369  15.776   9.180  0.00  0.00     0.551 C 
HETATM    3  C   UNK N   1      32.142  17.611   8.260  0.00  0.00     0.551 C 
HETATM    4  C   UNK N   1      34.743  15.719   7.229  0.00  0.00     0.551 C 
HETATM    5  C   UNK N   1      33.523  17.552   6.312  0.00  0.00     0.551 C 
HETATM    6  C   UNK N   1      34.516  17.747   8.476  0.00  0.00     0.551 C 
HETATM    7  N   UNK N   1      32.204  16.147   8.368  0.00  0.00     0.173 N 
HETATM    8  N   UNK N   1      33.597  16.087   6.392  0.00  0.00     0.173 N 
HETATM    9  N   UNK N   1      34.608  16.285   8.579  0.00  0.00     0.173 N 
HETATM   10  N   UNK N   1      33.368  18.141   7.649  0.00  0.00     0.173 N 
ENDROOT
TORSDOF 0
ENDMDL
MODEL 9
REMARK VINA RESULT:      -3.4     16.623     17.947
REMARK  0 active torsions:
REMARK  status: ('A' for Active; 'I' for Inactive)
ROOT
HETATM    1  C   UNK N   1      33.582  17.598   6.377  0.00  0.00     0.551 C 
HETATM    2  C   UNK N   1      32.196  17.623   8.323  0.00  0.00     0.551 C 
HETATM    3  C   UNK N   1      34.574  17.752   8.543  0.00  0.00     0.551 C 
HETATM    4  C   UNK N   1      32.425  15.618   7.047  0.00  0.00     0.551 C 
HETATM    5  C   UNK N   1      34.798  15.743   7.270  0.00  0.00     0.551 C 
HETATM    6  C   UNK N   1      33.415  15.777   9.218  0.00  0.00     0.551 C 
HETATM    7  N   UNK N   1      33.424  18.162   7.725  0.00  0.00     0.173 N 
HETATM    8  N   UNK N   1      33.654  16.131   6.432  0.00  0.00     0.173 N 
HETATM    9  N   UNK N   1      32.255  16.158   8.404  0.00  0.00     0.173 N 
HETATM   10  N   UNK N   1      34.659  16.289   8.627  0.00  0.00     0.173 N 
ENDROOT
TORSDOF 0
ENDMDL
