MODEL 1
REMARK VINA RESULT:      -6.3      0.000      0.000
REMARK  4 active torsions:
REMARK  status: ('A' for Active; 'I' for Inactive)
REMARK    1  A    between atoms: O_1  and  C_14 
REMARK    2  A    between atoms: N_3  and  C_8 
REMARK       I    between atoms: N_3  and  C_16 
REMARK    3  A    between atoms: C_4  and  C_5 
REMARK    4  A    between atoms: C_5  and  C_8 
ROOT
HETATM    1  C   UNK N   1      27.452  24.285  -4.960  0.00  0.00    -0.045 A 
HETATM    2  C   UNK N   1      26.729  25.507  -4.864  0.00  0.00    -0.017 A 
HETATM    3  C   UNK N   1      25.808  25.846  -5.891  0.00  0.00    -0.025 A 
HETATM    4  C   UNK N   1      27.233  23.454  -6.063  0.00  0.00     0.008 A 
HETATM    5  C   UNK N   1      26.892  26.395  -3.790  0.00  0.00     0.049 A 
HETATM    6  C   UNK N   1      25.616  24.991  -6.976  0.00  0.00     0.012 A 
HETATM    7  C   UNK N   1      25.085  27.037  -5.825  0.00  0.00     0.015 A 
HETATM    8  C   UNK N   1      26.327  23.799  -7.062  0.00  0.00     0.001 A 
HETATM    9  C   UNK N   1      26.167  27.590  -3.723  0.00  0.00     0.069 A 
HETATM   10  C   UNK N   1      25.261  27.906  -4.748  0.00  0.00     0.037 A 
ENDROOT
BRANCH   1  11
HETATM   11  C   UNK N   1      28.463  23.770  -3.969  0.00  0.00     0.059 C 
BRANCH  11  12
HETATM   12  C   UNK N   1      29.901  24.274  -3.988  0.00  0.00     0.127 C 
BRANCH  12  13
HETATM   13  N   UNK N   1      30.904  23.218  -3.883  0.00  0.00    -0.361 N 
HETATM   14  C   UNK N   1      31.301  22.556  -2.760  0.00  0.00     0.213 C 
HETATM   15  O   UNK N   1      30.820  22.805  -1.663  0.00  0.00    -0.274 OA
HETATM   16  C   UNK N   1      32.346  21.503  -2.861  0.00  0.00     0.117 C 
HETATM   17  H   UNK N   1      31.345  22.952  -4.723  0.00  0.00     0.162 HD
ENDBRANCH  12  13
ENDBRANCH  11  12
ENDBRANCH   1  11
BRANCH   9  18
HETATM   18  O   UNK N   1      26.358  28.415  -2.667  0.00  0.00    -0.356 OA
HETATM   19  C   UNK N   1      27.431  29.270  -2.563  0.00  0.00     0.210 C 
ENDBRANCH   9  18
TORSDOF 4
ENDMDL
MODEL 2
REMARK VINA RESULT:      -6.2      3.482      4.950
REMARK  4 active torsions:
REMARK  status: ('A' for Active; 'I' for Inactive)
REMARK    1  A    between atoms: O_1  and  C_14 
REMARK    2  A    between atoms: N_3  and  C_8 
REMARK       I    between atoms: N_3  and  C_16 
REMARK    3  A    between atoms: C_4  and  C_5 
REMARK    4  A    between atoms: C_5  and  C_8 
ROOT
HETATM    1  C   UNK N   1      25.995  27.282  -5.546  0.00  0.00    -0.045 A 
HETATM    2  C   UNK N   1      27.024  27.969  -6.249  0.00  0.00    -0.017 A 
HETATM    3  C   UNK N   1      27.555  29.166  -5.699  0.00  0.00    -0.025 A 
HETATM    4  C   UNK N   1      25.537  27.807  -4.333  0.00  0.00     0.008 A 
HETATM    5  C   UNK N   1      27.538  27.507  -7.471  0.00  0.00     0.049 A 
HETATM    6  C   UNK N   1      27.073  29.659  -4.486  0.00  0.00     0.012 A 
HETATM    7  C   UNK N   1      28.565  29.861  -6.364  0.00  0.00     0.015 A 
HETATM    8  C   UNK N   1      26.067  28.981  -3.806  0.00  0.00     0.001 A 
HETATM    9  C   UNK N   1      28.550  28.204  -8.139  0.00  0.00     0.069 A 
HETATM   10  C   UNK N   1      29.062  29.386  -7.578  0.00  0.00     0.037 A 
ENDROOT
BRANCH   1  11
HETATM   11  C   UNK N   1      25.320  26.007  -5.980  0.00  0.00     0.059 C 
BRANCH  11  12
HETATM   12  C   UNK N   1      25.549  24.706  -5.219  0.00  0.00     0.127 C 
BRANCH  12  13
HETATM   13  N   UNK N   1      26.944  24.459  -4.868  0.00  0.00    -0.361 N 
HETATM   14  C   UNK N   1      27.462  24.227  -3.628  0.00  0.00     0.213 C 
HETATM   15  O   UNK N   1      26.754  24.204  -2.631  0.00  0.00    -0.274 OA
HETATM   16  C   UNK N   1      28.922  23.996  -3.476  0.00  0.00     0.117 C 
HETATM   17  H   UNK N   1      27.587  24.460  -5.614  0.00  0.00     0.162 HD
ENDBRANCH  12  13
ENDBRANCH  11  12
ENDBRANCH   1  11
BRANCH   9  18
HETATM   18  O   UNK N   1      29.014  27.720  -9.316  0.00  0.00    -0.356 OA
HETATM   19  C   UNK N   1      29.961  28.368 -10.076  0.00  0.00     0.210 C 
ENDBRANCH   9  18
TORSDOF 4
ENDMDL
MODEL 3
REMARK VINA RESULT:      -6.2     19.622     23.254
REMARK  4 active torsions:
REMARK  status: ('A' for Active; 'I' for Inactive)
REMARK    1  A    between atoms: O_1  and  C_14 
REMARK    2  A    between atoms: N_3  and  C_8 
REMARK       I    between atoms: N_3  and  C_16 
REMARK    3  A    between atoms: C_4  and  C_5 
REMARK    4  A    between atoms: C_5  and  C_8 
ROOT
HETATM    1  C   UNK N   1      35.508  11.712  12.648  0.00  0.00    -0.045 A 
HETATM    2  C   UNK N   1      35.610  12.351  13.915  0.00  0.00    -0.017 A 
HETATM    3  C   UNK N   1      34.719  11.970  14.954  0.00  0.00    -0.025 A 
HETATM    4  C   UNK N   1      34.532  10.728  12.462  0.00  0.00     0.008 A 
HETATM    5  C   UNK N   1      36.562  13.348  14.180  0.00  0.00     0.049 A 
HETATM    6  C   UNK N   1      33.758  10.984  14.732  0.00  0.00     0.012 A 
HETATM    7  C   UNK N   1      34.794  12.578  16.207  0.00  0.00     0.015 A 
HETATM    8  C   UNK N   1      33.665  10.364  13.490  0.00  0.00     0.001 A 
HETATM    9  C   UNK N   1      36.638  13.958  15.437  0.00  0.00     0.069 A 
HETATM   10  C   UNK N   1      35.748  13.567  16.450  0.00  0.00     0.037 A 
ENDROOT
BRANCH   1  11
HETATM   11  C   UNK N   1      36.365  11.989  11.441  0.00  0.00     0.059 C 
BRANCH  11  12
HETATM   12  C   UNK N   1      35.813  12.770  10.254  0.00  0.00     0.127 C 
BRANCH  12  13
HETATM   13  N   UNK N   1      35.951  14.218  10.378  0.00  0.00    -0.361 N 
HETATM   14  C   UNK N   1      35.094  15.087  10.986  0.00  0.00     0.213 C 
HETATM   15  O   UNK N   1      34.061  14.704  11.518  0.00  0.00    -0.274 OA
HETATM   16  C   UNK N   1      35.415  16.538  11.006  0.00  0.00     0.117 C 
HETATM   17  H   UNK N   1      36.758  14.614   9.975  0.00  0.00     0.162 HD
ENDBRANCH  12  13
ENDBRANCH  11  12
ENDBRANCH   1  11
BRANCH   9  18
HETATM   18  O   UNK N   1      37.573  14.915  15.646  0.00  0.00    -0.356 OA
HETATM   19  C   UNK N   1      37.395  15.963  16.521  0.00  0.00     0.210 C 
ENDBRANCH   9  18
TORSDOF 4
ENDMDL
MODEL 4
REMARK VINA RESULT:      -6.2      3.058      5.137
REMARK  4 active torsions:
REMARK  status: ('A' for Active; 'I' for Inactive)
REMARK    1  A    between atoms: O_1  and  C_14 
REMARK    2  A    between atoms: N_3  and  C_8 
REMARK       I    between atoms: N_3  and  C_16 
REMARK    3  A    between atoms: C_4  and  C_5 
REMARK    4  A    between atoms: C_5  and  C_8 
ROOT
HETATM    1  C   UNK N   1      26.570  28.099  -5.575  0.00  0.00    -0.045 A 
HETATM    2  C   UNK N   1      26.649  27.219  -6.690  0.00  0.00    -0.017 A 
HETATM    3  C   UNK N   1      27.595  27.487  -7.715  0.00  0.00    -0.025 A 
HETATM    4  C   UNK N   1      27.429  29.202  -5.520  0.00  0.00     0.008 A 
HETATM    5  C   UNK N   1      25.823  26.092  -6.818  0.00  0.00     0.049 A 
HETATM    6  C   UNK N   1      28.435  28.597  -7.626  0.00  0.00     0.012 A 
HETATM    7  C   UNK N   1      27.696  26.643  -8.821  0.00  0.00     0.015 A 
HETATM    8  C   UNK N   1      28.352  29.452  -6.532  0.00  0.00     0.001 A 
HETATM    9  C   UNK N   1      25.923  25.245  -7.927  0.00  0.00     0.069 A 
HETATM   10  C   UNK N   1      26.866  25.527  -8.929  0.00  0.00     0.037 A 
ENDROOT
BRANCH   1  11
HETATM   11  C   UNK N   1      25.631  27.969  -4.404  0.00  0.00     0.059 C 
BRANCH  11  12
HETATM   12  C   UNK N   1      26.032  27.173  -3.167  0.00  0.00     0.127 C 
BRANCH  12  13
HETATM   13  N   UNK N   1      27.146  26.255  -3.385  0.00  0.00    -0.361 N 
HETATM   14  C   UNK N   1      27.090  24.905  -3.558  0.00  0.00     0.213 C 
HETATM   15  O   UNK N   1      26.028  24.298  -3.546  0.00  0.00    -0.274 OA
HETATM   16  C   UNK N   1      28.349  24.141  -3.768  0.00  0.00     0.117 C 
HETATM   17  H   UNK N   1      28.044  26.660  -3.410  0.00  0.00     0.162 HD
ENDBRANCH  12  13
ENDBRANCH  11  12
ENDBRANCH   1  11
BRANCH   9  18
HETATM   18  O   UNK N   1      25.105  24.168  -8.008  0.00  0.00    -0.356 OA
HETATM   19  C   UNK N   1      25.489  22.970  -8.564  0.00  0.00     0.210 C 
ENDBRANCH   9  18
TORSDOF 4
ENDMDL
MODEL 5
REMARK VINA RESULT:      -6.2     13.351     15.337
REMARK  4 active torsions:
REMARK  status: ('A' for Active; 'I' for Inactive)
REMARK    1  A    between atoms: O_1  and  C_14 
REMARK    2  A    between atoms: N_3  and  C_8 
REMARK       I    between atoms: N_3  and  C_16 
REMARK    3  A    between atoms: C_4  and  C_5 
REMARK    4  A    between atoms: C_5  and  C_8 
ROOT
HETATM    1  C   UNK N   1      32.597  17.527   7.008  0.00  0.00    -0.045 A 
HETATM    2  C   UNK N   1      31.251  17.315   6.598  0.00  0.00    -0.017 A 
HETATM    3  C   UNK N   1      30.975  17.098   5.222  0.00  0.00    -0.025 A 
HETATM    4  C   UNK N   1      33.609  17.514   6.043  0.00  0.00     0.008 A 
HETATM    5  C   UNK N   1      30.180  17.313   7.505  0.00  0.00     0.049 A 
HETATM    6  C   UNK N   1      32.010  17.092   4.287  0.00  0.00     0.012 A 
HETATM    7  C   UNK N   1      29.665  16.887   4.789  0.00  0.00     0.015 A 
HETATM    8  C   UNK N   1      33.323  17.300   4.697  0.00  0.00     0.001 A 
HETATM    9  C   UNK N   1      28.867  17.102   7.072  0.00  0.00     0.069 A 
HETATM   10  C   UNK N   1      28.615  16.889   5.707  0.00  0.00     0.037 A 
ENDROOT
BRANCH   1  11
HETATM   11  C   UNK N   1      33.069  17.771   8.417  0.00  0.00     0.059 C 
BRANCH  11  12
HETATM   12  C   UNK N   1      34.441  17.290   8.875  0.00  0.00     0.127 C 
BRANCH  12  13
HETATM   13  N   UNK N   1      34.399  16.324   9.969  0.00  0.00    -0.361 N 
HETATM   14  C   UNK N   1      35.417  15.964  10.800  0.00  0.00     0.213 C 
HETATM   15  O   UNK N   1      36.534  16.451  10.697  0.00  0.00    -0.274 OA
HETATM   16  C   UNK N   1      35.172  14.953  11.862  0.00  0.00     0.117 C 
HETATM   17  H   UNK N   1      33.534  15.881  10.124  0.00  0.00     0.162 HD
ENDBRANCH  12  13
ENDBRANCH  11  12
ENDBRANCH   1  11
BRANCH   9  18
HETATM   18  O   UNK N   1      27.865  17.108   7.984  0.00  0.00    -0.356 OA
HETATM   19  C   UNK N   1      28.038  17.507   9.290  0.00  0.00     0.210 C 
ENDBRANCH   9  18
TORSDOF 4
ENDMDL
MODEL 6
REMARK VINA RESULT:      -6.1     11.405     14.183
REMARK  4 active torsions:
REMARK  status: ('A' for Active; 'I' for Inactive)
REMARK    1  A    between atoms: O_1  and  C_14 
REMARK    2  A    between atoms: N_3  and  C_8 
REMARK       I    between atoms: N_3  and  C_16 
REMARK    3  A    between atoms: C_4  and  C_5 
REMARK    4  A    between atoms: C_5  and  C_8 
ROOT
HETATM    1  C   UNK N   1      30.761  17.447   7.367  0.00  0.00    -0.045 A 
HETATM    2  C   UNK N   1      31.249  17.252   6.045  0.00  0.00    -0.017 A 
HETATM    3  C   UNK N   1      32.642  17.379   5.798  0.00  0.00    -0.025 A 
HETATM    4  C   UNK N   1      31.668  17.758   8.385  0.00  0.00     0.008 A 
HETATM    5  C   UNK N   1      30.403  16.939   4.969  0.00  0.00     0.049 A 
HETATM    6  C   UNK N   1      33.517  17.689   6.838  0.00  0.00     0.012 A 
HETATM    7  C   UNK N   1      33.151  17.193   4.512  0.00  0.00     0.015 A 
HETATM    8  C   UNK N   1      33.032  17.878   8.128  0.00  0.00     0.001 A 
HETATM    9  C   UNK N   1      30.913  16.753   3.680  0.00  0.00     0.069 A 
HETATM   10  C   UNK N   1      32.294  16.882   3.457  0.00  0.00     0.037 A 
ENDROOT
BRANCH   1  11
HETATM   11  C   UNK N   1      29.323  17.353   7.807  0.00  0.00     0.059 C 
BRANCH  11  12
HETATM   12  C   UNK N   1      28.478  18.609   7.985  0.00  0.00     0.127 C 
BRANCH  12  13
HETATM   13  N   UNK N   1      27.482  18.809   6.937  0.00  0.00    -0.361 N 
HETATM   14  C   UNK N   1      27.214  19.956   6.251  0.00  0.00     0.213 C 
HETATM   15  O   UNK N   1      27.827  20.992   6.467  0.00  0.00    -0.274 OA
HETATM   16  C   UNK N   1      26.151  19.957   5.212  0.00  0.00     0.117 C 
HETATM   17  H   UNK N   1      26.939  18.023   6.698  0.00  0.00     0.162 HD
ENDBRANCH  12  13
ENDBRANCH  11  12
ENDBRANCH   1  11
BRANCH   9  18
HETATM   18  O   UNK N   1      30.058  16.452   2.673  0.00  0.00    -0.356 OA
HETATM   19  C   UNK N   1      28.803  15.929   2.882  0.00  0.00     0.210 C 
ENDBRANCH   9  18
TORSDOF 4
ENDMDL
MODEL 7
REMARK VINA RESULT:      -6.1     11.336     14.539
REMARK  4 active torsions:
REMARK  status: ('A' for Active; 'I' for Inactive)
REMARK    1  A    between atoms: O_1  and  C_14 
REMARK    2  A    between atoms: N_3  and  C_8 
REMARK       I    between atoms: N_3  and  C_16 
REMARK    3  A    between atoms: C_4  and  C_5 
REMARK    4  A    between atoms: C_5  and  C_8 
ROOT
HETATM    1  C   UNK N   1      28.547  17.279   7.481  0.00  0.00    -0.045 A 
HETATM    2  C   UNK N   1      29.934  17.276   7.164  0.00  0.00    -0.017 A 
HETATM    3  C   UNK N   1      30.859  17.796   8.108  0.00  0.00    -0.025 A 
HETATM    4  C   UNK N   1      28.135  17.795   8.714  0.00  0.00     0.008 A 
HETATM    5  C   UNK N   1      30.427  16.775   5.949  0.00  0.00     0.049 A 
HETATM    6  C   UNK N   1      30.411  18.303   9.328  0.00  0.00     0.012 A 
HETATM    7  C   UNK N   1      32.225  17.806   7.826  0.00  0.00     0.015 A 
HETATM    8  C   UNK N   1      29.053  18.302   9.630  0.00  0.00     0.001 A 
HETATM    9  C   UNK N   1      31.796  16.785   5.665  0.00  0.00     0.069 A 
HETATM   10  C   UNK N   1      32.694  17.304   6.612  0.00  0.00     0.037 A 
ENDROOT
BRANCH   1  11
HETATM   11  C   UNK N   1      27.433  16.770   6.604  0.00  0.00     0.059 C 
BRANCH  11  12
HETATM   12  C   UNK N   1      26.823  17.656   5.524  0.00  0.00     0.127 C 
BRANCH  12  13
HETATM   13  N   UNK N   1      26.653  19.050   5.924  0.00  0.00    -0.361 N 
HETATM   14  C   UNK N   1      27.374  20.129   5.507  0.00  0.00     0.213 C 
HETATM   15  O   UNK N   1      28.291  20.019   4.705  0.00  0.00    -0.274 OA
HETATM   16  C   UNK N   1      27.043  21.479   6.035  0.00  0.00     0.117 C 
HETATM   17  H   UNK N   1      25.933  19.232   6.571  0.00  0.00     0.162 HD
ENDBRANCH  12  13
ENDBRANCH  11  12
ENDBRANCH   1  11
BRANCH   9  18
HETATM   18  O   UNK N   1      32.225  16.292   4.479  0.00  0.00    -0.356 OA
HETATM   19  C   UNK N   1      32.724  17.084   3.470  0.00  0.00     0.210 C 
ENDBRANCH   9  18
TORSDOF 4
ENDMDL
MODEL 8
REMARK VINA RESULT:      -6.1     20.936     25.118
REMARK  4 active torsions:
REMARK  status: ('A' for Active; 'I' for Inactive)
REMARK    1  A    between atoms: O_1  and  C_14 
REMARK    2  A    between atoms: N_3  and  C_8 
REMARK       I    between atoms: N_3  and  C_16 
REMARK    3  A    between atoms: C_4  and  C_5 
REMARK    4  A    between atoms: C_5  and  C_8 
ROOT
HETATM    1  C   UNK N   1      35.164  11.781  15.136  0.00  0.00    -0.045 A 
HETATM    2  C   UNK N   1      35.207  12.109  16.520  0.00  0.00    -0.017 A 
HETATM    3  C   UNK N   1      35.223  11.060  17.477  0.00  0.00    -0.025 A 
HETATM    4  C   UNK N   1      35.140  10.434  14.759  0.00  0.00     0.008 A 
HETATM    5  C   UNK N   1      35.234  13.435  16.978  0.00  0.00     0.049 A 
HETATM    6  C   UNK N   1      35.198   9.728  17.064  0.00  0.00     0.012 A 
HETATM    7  C   UNK N   1      35.265  11.350  18.841  0.00  0.00     0.015 A 
HETATM    8  C   UNK N   1      35.156   9.416  15.709  0.00  0.00     0.001 A 
HETATM    9  C   UNK N   1      35.276  13.727  18.346  0.00  0.00     0.069 A 
HETATM   10  C   UNK N   1      35.292  12.675  19.276  0.00  0.00     0.037 A 
ENDROOT
BRANCH   1  11
HETATM   11  C   UNK N   1      35.142  12.760  13.991  0.00  0.00     0.059 C 
BRANCH  11  12
HETATM   12  C   UNK N   1      36.423  13.437  13.519  0.00  0.00     0.127 C 
BRANCH  12  13
HETATM   13  N   UNK N   1      36.208  14.717  12.850  0.00  0.00    -0.361 N 
HETATM   14  C   UNK N   1      35.867  14.928  11.547  0.00  0.00     0.213 C 
HETATM   15  O   UNK N   1      35.699  14.000  10.768  0.00  0.00    -0.274 OA
HETATM   16  C   UNK N   1      35.692  16.319  11.052  0.00  0.00     0.117 C 
HETATM   17  H   UNK N   1      36.322  15.522  13.405  0.00  0.00     0.162 HD
ENDBRANCH  12  13
ENDBRANCH  11  12
ENDBRANCH   1  11
BRANCH   9  18
HETATM   18  O   UNK N   1      35.301  15.022  18.741  0.00  0.00    -0.356 OA
HETATM   19  C   UNK N   1      36.080  15.980  18.134  0.00  0.00     0.210 C 
ENDBRANCH   9  18
TORSDOF 4
ENDMDL
MODEL 9
REMARK VINA RESULT:      -6.0     11.325     13.993
REMARK  4 active torsions:
REMARK  status: ('A' for Active; 'I' for Inactive)
REMARK    1  A    between atoms: O_1  and  C_14 
REMARK    2  A    between atoms: N_3  and  C_8 
REMARK       I    between atoms: N_3  and  C_16 
REMARK    3  A    between atoms: C_4  and  C_5 
REMARK    4  A    between atoms: C_5  and  C_8 
ROOT
HETATM    1  C   UNK N   1      30.617  16.649   4.623  0.00  0.00    -0.045 A 
HETATM    2  C   UNK N   1      31.084  17.024   5.913  0.00  0.00    -0.017 A 
HETATM    3  C   UNK N   1      32.442  17.409   6.070  0.00  0.00    -0.025 A 
HETATM    4  C   UNK N   1      31.509  16.670   3.546  0.00  0.00     0.008 A 
HETATM    5  C   UNK N   1      30.250  17.029   7.043  0.00  0.00     0.049 A 
HETATM    6  C   UNK N   1      33.303  17.418   4.973  0.00  0.00     0.012 A 
HETATM    7  C   UNK N   1      32.929  17.782   7.323  0.00  0.00     0.015 A 
HETATM    8  C   UNK N   1      32.838  17.049   3.715  0.00  0.00     0.001 A 
HETATM    9  C   UNK N   1      30.739  17.403   8.299  0.00  0.00     0.069 A 
HETATM   10  C   UNK N   1      32.085  17.780   8.433  0.00  0.00     0.037 A 
ENDROOT
BRANCH   1  11
HETATM   11  C   UNK N   1      29.216  16.215   4.275  0.00  0.00     0.059 C 
BRANCH  11  12
HETATM   12  C   UNK N   1      28.282  17.140   3.504  0.00  0.00     0.127 C 
BRANCH  12  13
HETATM   13  N   UNK N   1      28.289  18.522   3.977  0.00  0.00    -0.361 N 
HETATM   14  C   UNK N   1      27.608  19.042   5.037  0.00  0.00     0.213 C 
HETATM   15  O   UNK N   1      26.881  18.350   5.735  0.00  0.00    -0.274 OA
HETATM   16  C   UNK N   1      27.748  20.487   5.359  0.00  0.00     0.117 C 
HETATM   17  H   UNK N   1      28.851  19.152   3.470  0.00  0.00     0.162 HD
ENDBRANCH  12  13
ENDBRANCH  11  12
ENDBRANCH   1  11
BRANCH   9  18
HETATM   18  O   UNK N   1      29.897  17.392   9.360  0.00  0.00    -0.356 OA
HETATM   19  C   UNK N   1      28.530  17.484   9.238  0.00  0.00     0.210 C 
ENDBRANCH   9  18
TORSDOF 4
ENDMDL
