MODEL 1
REMARK VINA RESULT:      -7.8      0.000      0.000
REMARK  17 active torsions:
REMARK  status: ('A' for Active; 'I' for Inactive)
REMARK    1  A    between atoms: C_3  and  O_50 
REMARK    2  A    between atoms: C_5  and  O_40 
REMARK    3  A    between atoms: C_7  and  O_20 
REMARK    4  A    between atoms: C_11  and  O_23 
REMARK    5  A    between atoms: C_13  and  O_27 
REMARK    6  A    between atoms: C_16  and  O_31 
REMARK    7  A    between atoms: O_27  and  C_28 
REMARK    8  A    between atoms: C_38  and  O_31 
REMARK    9  A    between atoms: C_37  and  C_38 
REMARK   10  A    between atoms: C_47  and  C_45 
REMARK   11  A    between atoms: C_47  and  C_48 
REMARK   12  A    between atoms: C_47  and  N_53 
REMARK   13  A    between atoms: C_48  and  C_49 
REMARK   14  A    between atoms: C_48  and  O_52 
REMARK   15  A    between atoms: C_49  and  O_50 
REMARK       I    between atoms: N_53  and  C_54 
REMARK   16  A    between atoms: C_54  and  O_55 
REMARK   17  A    between atoms: O_55  and  C_56 
ROOT
HETATM    1  C   UNK N   1      25.320  14.158   3.715  0.00  0.00    -0.029 C 
HETATM    2  C   UNK N   1      24.844  15.099   2.851  0.00  0.00    -0.048 C 
HETATM    3  C   UNK N   1      24.622  16.512   3.335  0.00  0.00     0.164 C 
HETATM    4  C   UNK N   1      25.831  16.905   4.179  0.00  0.00     0.078 C 
HETATM    5  C   UNK N   1      26.332  15.829   5.202  0.00  0.00     0.098 C 
HETATM    6  C   UNK N   1      25.452  14.550   5.180  0.00  0.00     0.013 C 
HETATM    7  C   UNK N   1      25.832  12.843   3.192  0.00  0.00     0.221 C 
HETATM    8  C   UNK N   1      28.430  13.067   4.051  0.00  0.00     0.055 C 
HETATM    9  C   UNK N   1      27.030  12.353   3.993  0.00  0.00     0.171 C 
HETATM   10  C   UNK N   1      24.716  14.837   1.376  0.00  0.00     0.046 C 
HETATM   11  C   UNK N   1      29.443  11.917   4.465  0.00  0.00     0.139 C 
HETATM   12  C   UNK N   1      28.669  14.302   5.090  0.00  0.00     0.076 C 
HETATM   13  C   UNK N   1      30.213  14.655   5.229  0.00  0.00     0.125 C 
HETATM   14  C   UNK N   1      31.264  13.561   5.127  0.00  0.00     0.161 C 
HETATM   15  C   UNK N   1      30.899  12.313   4.357  0.00  0.00     0.068 C 
HETATM   16  C   UNK N   1      27.878  15.691   4.854  0.00  0.00     0.176 C 
HETATM   17  C   UNK N   1      25.957  13.521   6.186  0.00  0.00     0.023 C 
HETATM   18  C   UNK N   1      24.053  14.779   5.750  0.00  0.00     0.023 C 
HETATM   19  O   UNK N   1      26.886  11.281   4.569  0.00  0.00    -0.294 OA
HETATM   20  C   UNK N   1      28.764  13.547   2.635  0.00  0.00     0.027 C 
HETATM   21  O   UNK N   1      32.018  14.324   4.214  0.00  0.00    -0.380 OA
HETATM   22  C   UNK N   1      30.951  15.236   4.048  0.00  0.00     0.210 C 
ENDROOT
BRANCH   3  23
HETATM   23  O   UNK N   1      23.492  16.711   4.107  0.00  0.00    -0.309 OA
BRANCH  23  24
HETATM   24  C   UNK N   1      22.575  17.688   3.867  0.00  0.00     0.290 C 
HETATM   25  O   UNK N   1      22.856  18.845   4.149  0.00  0.00    -0.262 OA
BRANCH  24  26
HETATM   26  C   UNK N   1      21.197  17.349   3.329  0.00  0.00     0.244 C 
BRANCH  26  27
HETATM   27  C   UNK N   1      20.688  16.011   3.902  0.00  0.00     0.158 C 
BRANCH  27  28
HETATM   28  C   UNK N   1      20.943  14.833   2.983  0.00  0.00    -0.032 A 
HETATM   29  C   UNK N   1      21.158  13.546   3.507  0.00  0.00     0.009 A 
HETATM   30  C   UNK N   1      21.379  12.461   2.655  0.00  0.00     0.001 A 
HETATM   31  C   UNK N   1      21.370  12.647   1.272  0.00  0.00     0.000 A 
HETATM   32  C   UNK N   1      21.154  13.919   0.738  0.00  0.00     0.001 A 
HETATM   33  C   UNK N   1      20.951  15.010   1.590  0.00  0.00     0.009 A 
ENDBRANCH  27  28
BRANCH  27  34
HETATM   34  N   UNK N   1      19.283  16.115   4.249  0.00  0.00    -0.325 N 
HETATM   35  C   UNK N   1      18.841  15.794   5.481  0.00  0.00     0.361 C 
HETATM   36  O   UNK N   1      17.644  15.928   5.731  0.00  0.00    -0.238 OA
HETATM   37  H   UNK N   1      18.640  16.426   3.571  0.00  0.00     0.165 HD
BRANCH  35  38
HETATM   38  O   UNK N   1      19.703  15.367   6.442  0.00  0.00    -0.294 OA
BRANCH  38  39
HETATM   39  C   UNK N   1      20.161  16.112   7.519  0.00  0.00     0.061 C 
HETATM   40  C   UNK N   1      18.999  16.474   8.427  0.00  0.00     0.046 C 
HETATM   41  C   UNK N   1      21.129  15.270   8.321  0.00  0.00     0.046 C 
HETATM   42  C   UNK N   1      20.882  17.382   7.088  0.00  0.00     0.046 C 
ENDBRANCH  38  39
ENDBRANCH  35  38
ENDBRANCH  27  34
ENDBRANCH  26  27
BRANCH  26  43
HETATM   43  O   UNK N   1      20.285  18.358   3.647  0.00  0.00    -0.383 OA
HETATM   44  H   UNK N   1      19.600  18.967   3.329  0.00  0.00     0.210 HD
ENDBRANCH  26  43
ENDBRANCH  24  26
ENDBRANCH  23  24
ENDBRANCH   3  23
BRANCH   5  45
HETATM   45  O   UNK N   1      26.196  16.365   6.492  0.00  0.00    -0.386 OA
HETATM   46  H   UNK N   1      26.700  16.671   7.263  0.00  0.00     0.210 HD
ENDBRANCH   5  45
BRANCH   7  47
HETATM   47  O   UNK N   1      24.788  11.885   3.245  0.00  0.00    -0.379 OA
HETATM   48  C   UNK N   1      24.760  11.163   2.040  0.00  0.00     0.202 C 
ENDBRANCH   7  47
BRANCH  16  49
HETATM   49  O   UNK N   1      28.448  16.723   5.611  0.00  0.00    -0.308 OA
BRANCH  49  50
HETATM   50  C   UNK N   1      28.795  17.973   5.193  0.00  0.00     0.293 C 
HETATM   51  O   UNK N   1      29.820  18.133   4.552  0.00  0.00    -0.259 OA
BRANCH  50  52
HETATM   52  C   UNK N   1      28.016  19.159   5.628  0.00  0.00     0.039 A 
HETATM   53  C   UNK N   1      27.831  19.424   6.993  0.00  0.00     0.017 A 
HETATM   54  C   UNK N   1      27.130  20.561   7.405  0.00  0.00     0.001 A 
HETATM   55  C   UNK N   1      26.626  21.451   6.456  0.00  0.00     0.000 A 
HETATM   56  C   UNK N   1      26.798  21.193   5.095  0.00  0.00     0.001 A 
HETATM   57  C   UNK N   1      27.475  20.044   4.687  0.00  0.00     0.017 A 
ENDBRANCH  50  52
ENDBRANCH  49  50
ENDBRANCH  16  49
BRANCH  13  58
HETATM   58  O   UNK N   1      30.410  15.425   6.385  0.00  0.00    -0.305 OA
BRANCH  58  59
HETATM   59  C   UNK N   1      31.540  15.781   7.071  0.00  0.00     0.255 C 
HETATM   60  O   UNK N   1      31.902  15.081   8.002  0.00  0.00    -0.266 OA
HETATM   61  C   UNK N   1      32.340  17.005   6.758  0.00  0.00     0.126 C 
ENDBRANCH  58  59
ENDBRANCH  13  58
BRANCH  11  62
HETATM   62  O   UNK N   1      29.241  10.672   3.802  0.00  0.00    -0.389 OA
HETATM   63  C   UNK N   1      30.422  10.209   3.198  0.00  0.00     0.202 C 
ENDBRANCH  11  62
TORSDOF 17
ENDMDL
MODEL 2
REMARK VINA RESULT:      -7.6      2.377      8.759
REMARK  17 active torsions:
REMARK  status: ('A' for Active; 'I' for Inactive)
REMARK    1  A    between atoms: C_3  and  O_50 
REMARK    2  A    between atoms: C_5  and  O_40 
REMARK    3  A    between atoms: C_7  and  O_20 
REMARK    4  A    between atoms: C_11  and  O_23 
REMARK    5  A    between atoms: C_13  and  O_27 
REMARK    6  A    between atoms: C_16  and  O_31 
REMARK    7  A    between atoms: O_27  and  C_28 
REMARK    8  A    between atoms: C_38  and  O_31 
REMARK    9  A    between atoms: C_37  and  C_38 
REMARK   10  A    between atoms: C_47  and  C_45 
REMARK   11  A    between atoms: C_47  and  C_48 
REMARK   12  A    between atoms: C_47  and  N_53 
REMARK   13  A    between atoms: C_48  and  C_49 
REMARK   14  A    between atoms: C_48  and  O_52 
REMARK   15  A    between atoms: C_49  and  O_50 
REMARK       I    between atoms: N_53  and  C_54 
REMARK   16  A    between atoms: C_54  and  O_55 
REMARK   17  A    between atoms: O_55  and  C_56 
ROOT
HETATM    1  C   UNK N   1      25.437  13.529   3.150  0.00  0.00    -0.029 C 
HETATM    2  C   UNK N   1      25.989  13.431   4.393  0.00  0.00    -0.048 C 
HETATM    3  C   UNK N   1      26.239  14.683   5.199  0.00  0.00     0.164 C 
HETATM    4  C   UNK N   1      25.006  15.572   5.066  0.00  0.00     0.078 C 
HETATM    5  C   UNK N   1      24.415  15.712   3.620  0.00  0.00     0.098 C 
HETATM    6  C   UNK N   1      25.248  14.926   2.572  0.00  0.00     0.013 C 
HETATM    7  C   UNK N   1      24.903  12.303   2.462  0.00  0.00     0.221 C 
HETATM    8  C   UNK N   1      22.276  13.076   2.268  0.00  0.00     0.055 C 
HETATM    9  C   UNK N   1      23.650  12.615   1.657  0.00  0.00     0.171 C 
HETATM   10  C   UNK N   1      26.179  12.108   5.079  0.00  0.00     0.046 C 
HETATM   11  C   UNK N   1      21.203  12.682   1.167  0.00  0.00     0.139 C 
HETATM   12  C   UNK N   1      22.033  14.650   2.621  0.00  0.00     0.076 C 
HETATM   13  C   UNK N   1      20.497  14.952   2.907  0.00  0.00     0.125 C 
HETATM   14  C   UNK N   1      19.413  14.183   2.168  0.00  0.00     0.161 C 
HETATM   15  C   UNK N   1      19.769  12.816   1.632  0.00  0.00     0.068 C 
HETATM   16  C   UNK N   1      22.884  15.328   3.815  0.00  0.00     0.176 C 
HETATM   17  C   UNK N   1      24.657  15.081   1.175  0.00  0.00     0.023 C 
HETATM   18  C   UNK N   1      26.625  15.539   2.322  0.00  0.00     0.023 C 
HETATM   19  O   UNK N   1      23.725  12.416   0.450  0.00  0.00    -0.294 OA
HETATM   20  C   UNK N   1      22.030  12.246   3.532  0.00  0.00     0.027 C 
HETATM   21  O   UNK N   1      18.733  13.917   3.373  0.00  0.00    -0.380 OA
HETATM   22  C   UNK N   1      19.840  14.363   4.131  0.00  0.00     0.210 C 
ENDROOT
BRANCH   3  23
HETATM   23  O   UNK N   1      27.336  15.433   4.817  0.00  0.00    -0.309 OA
BRANCH  23  24
HETATM   24  C   UNK N   1      28.479  15.530   5.551  0.00  0.00     0.290 C 
HETATM   25  O   UNK N   1      29.265  14.592   5.548  0.00  0.00    -0.262 OA
BRANCH  24  26
HETATM   26  C   UNK N   1      28.748  16.745   6.420  0.00  0.00     0.244 C 
BRANCH  26  27
HETATM   27  C   UNK N   1      29.255  17.932   5.577  0.00  0.00     0.158 C 
BRANCH  27  28
HETATM   28  C   UNK N   1      28.161  18.917   5.214  0.00  0.00    -0.032 A 
HETATM   29  C   UNK N   1      27.465  18.801   3.998  0.00  0.00     0.009 A 
HETATM   30  C   UNK N   1      26.448  19.704   3.674  0.00  0.00     0.001 A 
HETATM   31  C   UNK N   1      26.104  20.718   4.569  0.00  0.00     0.000 A 
HETATM   32  C   UNK N   1      26.785  20.841   5.783  0.00  0.00     0.001 A 
HETATM   33  C   UNK N   1      27.817  19.951   6.100  0.00  0.00     0.009 A 
ENDBRANCH  27  28
BRANCH  27  34
HETATM   34  N   UNK N   1      29.946  17.451   4.396  0.00  0.00    -0.325 N 
HETATM   35  C   UNK N   1      31.290  17.364   4.356  0.00  0.00     0.361 C 
HETATM   36  O   UNK N   1      31.822  16.922   3.341  0.00  0.00    -0.238 OA
HETATM   37  H   UNK N   1      29.422  17.183   3.606  0.00  0.00     0.165 HD
BRANCH  35  38
HETATM   38  O   UNK N   1      32.042  17.720   5.432  0.00  0.00    -0.294 OA
BRANCH  38  39
HETATM   39  C   UNK N   1      32.660  16.853   6.322  0.00  0.00     0.061 C 
HETATM   40  C   UNK N   1      34.166  17.029   6.253  0.00  0.00     0.046 C 
HETATM   41  C   UNK N   1      32.217  17.197   7.727  0.00  0.00     0.046 C 
HETATM   42  C   UNK N   1      32.306  15.395   6.058  0.00  0.00     0.046 C 
ENDBRANCH  38  39
ENDBRANCH  35  38
ENDBRANCH  27  34
ENDBRANCH  26  27
BRANCH  26  43
HETATM   43  O   UNK N   1      27.588  17.129   7.098  0.00  0.00    -0.383 OA
HETATM   44  H   UNK N   1      27.184  17.725   7.747  0.00  0.00     0.210 HD
ENDBRANCH  26  43
ENDBRANCH  24  26
ENDBRANCH  23  24
ENDBRANCH   3  23
BRANCH   5  45
HETATM   45  O   UNK N   1      24.508  17.062   3.247  0.00  0.00    -0.386 OA
HETATM   46  H   UNK N   1      24.060  17.920   3.318  0.00  0.00     0.210 HD
ENDBRANCH   5  45
BRANCH   7  47
HETATM   47  O   UNK N   1      25.907  11.774   1.612  0.00  0.00    -0.379 OA
HETATM   48  C   UNK N   1      26.056  10.400   1.869  0.00  0.00     0.202 C 
ENDBRANCH   7  47
BRANCH  16  49
HETATM   49  O   UNK N   1      22.317  16.549   4.201  0.00  0.00    -0.308 OA
BRANCH  49  50
HETATM   50  C   UNK N   1      22.316  17.116   5.440  0.00  0.00     0.293 C 
HETATM   51  O   UNK N   1      22.942  18.145   5.634  0.00  0.00    -0.259 OA
BRANCH  50  52
HETATM   52  C   UNK N   1      21.683  16.423   6.590  0.00  0.00     0.039 A 
HETATM   53  C   UNK N   1      22.172  15.183   7.026  0.00  0.00     0.017 A 
HETATM   54  C   UNK N   1      21.601  14.546   8.131  0.00  0.00     0.001 A 
HETATM   55  C   UNK N   1      20.550  15.153   8.820  0.00  0.00     0.000 A 
HETATM   56  C   UNK N   1      20.051  16.383   8.389  0.00  0.00     0.001 A 
HETATM   57  C   UNK N   1      20.606  17.003   7.270  0.00  0.00     0.017 A 
ENDBRANCH  50  52
ENDBRANCH  49  50
ENDBRANCH  16  49
BRANCH  13  58
HETATM   58  O   UNK N   1      20.272  16.333   2.820  0.00  0.00    -0.305 OA
BRANCH  58  59
HETATM   59  C   UNK N   1      20.184  17.186   1.753  0.00  0.00     0.255 C 
HETATM   60  O   UNK N   1      20.322  18.382   1.947  0.00  0.00    -0.266 OA
HETATM   61  C   UNK N   1      19.896  16.728   0.359  0.00  0.00     0.126 C 
ENDBRANCH  58  59
ENDBRANCH  13  58
BRANCH  11  62
HETATM   62  O   UNK N   1      21.391  11.398   0.578  0.00  0.00    -0.389 OA
HETATM   63  C   UNK N   1      20.229  10.613   0.666  0.00  0.00     0.202 C 
ENDBRANCH  11  62
TORSDOF 17
ENDMDL
MODEL 3
REMARK VINA RESULT:      -7.5      2.622      8.866
REMARK  17 active torsions:
REMARK  status: ('A' for Active; 'I' for Inactive)
REMARK    1  A    between atoms: C_3  and  O_50 
REMARK    2  A    between atoms: C_5  and  O_40 
REMARK    3  A    between atoms: C_7  and  O_20 
REMARK    4  A    between atoms: C_11  and  O_23 
REMARK    5  A    between atoms: C_13  and  O_27 
REMARK    6  A    between atoms: C_16  and  O_31 
REMARK    7  A    between atoms: O_27  and  C_28 
REMARK    8  A    between atoms: C_38  and  O_31 
REMARK    9  A    between atoms: C_37  and  C_38 
REMARK   10  A    between atoms: C_47  and  C_45 
REMARK   11  A    between atoms: C_47  and  C_48 
REMARK   12  A    between atoms: C_47  and  N_53 
REMARK   13  A    between atoms: C_48  and  C_49 
REMARK   14  A    between atoms: C_48  and  O_52 
REMARK   15  A    between atoms: C_49  and  O_50 
REMARK       I    between atoms: N_53  and  C_54 
REMARK   16  A    between atoms: C_54  and  O_55 
REMARK   17  A    between atoms: O_55  and  C_56 
ROOT
HETATM    1  C   UNK N   1      25.127  13.238   3.541  0.00  0.00    -0.029 C 
HETATM    2  C   UNK N   1      25.880  13.171   4.675  0.00  0.00    -0.048 C 
HETATM    3  C   UNK N   1      26.869  14.271   4.981  0.00  0.00     0.164 C 
HETATM    4  C   UNK N   1      26.181  15.602   4.693  0.00  0.00     0.078 C 
HETATM    5  C   UNK N   1      25.361  15.676   3.360  0.00  0.00     0.098 C 
HETATM    6  C   UNK N   1      25.443  14.353   2.551  0.00  0.00     0.013 C 
HETATM    7  C   UNK N   1      23.939  12.332   3.368  0.00  0.00     0.221 C 
HETATM    8  C   UNK N   1      21.994  14.263   3.216  0.00  0.00     0.055 C 
HETATM    9  C   UNK N   1      22.799  13.038   2.648  0.00  0.00     0.171 C 
HETATM   10  C   UNK N   1      25.627  12.142   5.741  0.00  0.00     0.046 C 
HETATM   11  C   UNK N   1      20.612  14.223   2.437  0.00  0.00     0.139 C 
HETATM   12  C   UNK N   1      22.587  15.774   3.044  0.00  0.00     0.076 C 
HETATM   13  C   UNK N   1      21.487  16.873   3.379  0.00  0.00     0.125 C 
HETATM   14  C   UNK N   1      20.022  16.614   3.066  0.00  0.00     0.161 C 
HETATM   15  C   UNK N   1      19.570  15.174   2.984  0.00  0.00     0.068 C 
HETATM   16  C   UNK N   1      23.932  16.184   3.839  0.00  0.00     0.176 C 
HETATM   17  C   UNK N   1      24.642  14.451   1.257  0.00  0.00     0.023 C 
HETATM   18  C   UNK N   1      26.828  14.099   1.960  0.00  0.00     0.023 C 
HETATM   19  O   UNK N   1      22.457  12.548   1.578  0.00  0.00    -0.294 OA
HETATM   20  C   UNK N   1      21.742  14.002   4.704  0.00  0.00     0.027 C 
HETATM   21  O   UNK N   1      19.638  17.026   4.357  0.00  0.00    -0.380 OA
HETATM   22  C   UNK N   1      20.982  17.011   4.794  0.00  0.00     0.210 C 
ENDROOT
BRANCH   3  23
HETATM   23  O   UNK N   1      28.043  14.242   4.251  0.00  0.00    -0.309 OA
BRANCH  23  24
HETATM   24  C   UNK N   1      29.212  14.795   4.676  0.00  0.00     0.290 C 
HETATM   25  O   UNK N   1      30.103  14.058   5.078  0.00  0.00    -0.262 OA
BRANCH  24  26
HETATM   26  C   UNK N   1      29.391  16.302   4.725  0.00  0.00     0.244 C 
BRANCH  26  27
HETATM   27  C   UNK N   1      30.468  16.703   5.752  0.00  0.00     0.158 C 
BRANCH  27  28
HETATM   28  C   UNK N   1      29.893  17.328   7.007  0.00  0.00    -0.032 A 
HETATM   29  C   UNK N   1      28.503  17.416   7.193  0.00  0.00     0.009 A 
HETATM   30  C   UNK N   1      27.978  17.981   8.359  0.00  0.00     0.001 A 
HETATM   31  C   UNK N   1      28.836  18.447   9.357  0.00  0.00     0.000 A 
HETATM   32  C   UNK N   1      30.220  18.360   9.185  0.00  0.00     0.001 A 
HETATM   33  C   UNK N   1      30.747  17.813   8.011  0.00  0.00     0.009 A 
ENDBRANCH  27  28
BRANCH  27  34
HETATM   34  N   UNK N   1      31.454  17.570   5.133  0.00  0.00    -0.325 N 
HETATM   35  C   UNK N   1      32.754  17.223   5.076  0.00  0.00     0.361 C 
HETATM   36  O   UNK N   1      33.542  17.982   4.515  0.00  0.00    -0.238 OA
HETATM   37  H   UNK N   1      31.166  18.430   4.748  0.00  0.00     0.165 HD
BRANCH  35  38
HETATM   38  O   UNK N   1      33.183  16.040   5.592  0.00  0.00    -0.294 OA
BRANCH  38  39
HETATM   39  C   UNK N   1      33.985  15.880   6.713  0.00  0.00     0.061 C 
HETATM   40  C   UNK N   1      33.325  14.922   7.687  0.00  0.00     0.046 C 
HETATM   41  C   UNK N   1      35.304  15.271   6.288  0.00  0.00     0.046 C 
HETATM   42  C   UNK N   1      34.277  17.199   7.417  0.00  0.00     0.046 C 
ENDBRANCH  38  39
ENDBRANCH  35  38
ENDBRANCH  27  34
ENDBRANCH  26  27
BRANCH  26  43
HETATM   43  O   UNK N   1      29.752  16.792   3.468  0.00  0.00    -0.383 OA
HETATM   44  H   UNK N   1      29.530  17.378   2.728  0.00  0.00     0.210 HD
ENDBRANCH  26  43
ENDBRANCH  24  26
ENDBRANCH  23  24
ENDBRANCH   3  23
BRANCH   5  45
HETATM   45  O   UNK N   1      25.950  16.657   2.546  0.00  0.00    -0.386 OA
HETATM   46  H   UNK N   1      26.795  16.949   2.170  0.00  0.00     0.210 HD
ENDBRANCH   5  45
BRANCH   7  47
HETATM   47  O   UNK N   1      24.335  11.182   2.640  0.00  0.00    -0.379 OA
HETATM   48  C   UNK N   1      23.930  10.030   3.337  0.00  0.00     0.202 C 
ENDBRANCH   7  47
BRANCH  16  49
HETATM   49  O   UNK N   1      24.099  17.575   3.853  0.00  0.00    -0.308 OA
BRANCH  49  50
HETATM   50  C   UNK N   1      24.316  18.381   4.930  0.00  0.00     0.293 C 
HETATM   51  O   UNK N   1      23.434  18.533   5.758  0.00  0.00    -0.259 OA
BRANCH  50  52
HETATM   52  C   UNK N   1      25.559  19.186   5.034  0.00  0.00     0.039 A 
HETATM   53  C   UNK N   1      25.749  20.059   6.116  0.00  0.00     0.017 A 
HETATM   54  C   UNK N   1      26.934  20.790   6.235  0.00  0.00     0.001 A 
HETATM   55  C   UNK N   1      27.946  20.639   5.286  0.00  0.00     0.000 A 
HETATM   56  C   UNK N   1      27.763  19.779   4.202  0.00  0.00     0.001 A 
HETATM   57  C   UNK N   1      26.569  19.071   4.072  0.00  0.00     0.017 A 
ENDBRANCH  50  52
ENDBRANCH  49  50
ENDBRANCH  16  49
BRANCH  13  58
HETATM   58  O   UNK N   1      21.894  18.110   2.858  0.00  0.00    -0.305 OA
BRANCH  58  59
HETATM   59  C   UNK N   1      21.267  19.324   2.775  0.00  0.00     0.255 C 
HETATM   60  O   UNK N   1      21.159  19.996   3.787  0.00  0.00    -0.266 OA
HETATM   61  C   UNK N   1      20.677  19.857   1.510  0.00  0.00     0.126 C 
ENDBRANCH  58  59
ENDBRANCH  13  58
BRANCH  11  62
HETATM   62  O   UNK N   1      20.039  12.925   2.296  0.00  0.00    -0.389 OA
HETATM   63  C   UNK N   1      18.824  12.969   1.592  0.00  0.00     0.202 C 
ENDBRANCH  11  62
TORSDOF 17
ENDMDL
MODEL 4
REMARK VINA RESULT:      -7.5      1.957      3.072
REMARK  17 active torsions:
REMARK  status: ('A' for Active; 'I' for Inactive)
REMARK    1  A    between atoms: C_3  and  O_50 
REMARK    2  A    between atoms: C_5  and  O_40 
REMARK    3  A    between atoms: C_7  and  O_20 
REMARK    4  A    between atoms: C_11  and  O_23 
REMARK    5  A    between atoms: C_13  and  O_27 
REMARK    6  A    between atoms: C_16  and  O_31 
REMARK    7  A    between atoms: O_27  and  C_28 
REMARK    8  A    between atoms: C_38  and  O_31 
REMARK    9  A    between atoms: C_37  and  C_38 
REMARK   10  A    between atoms: C_47  and  C_45 
REMARK   11  A    between atoms: C_47  and  C_48 
REMARK   12  A    between atoms: C_47  and  N_53 
REMARK   13  A    between atoms: C_48  and  C_49 
REMARK   14  A    between atoms: C_48  and  O_52 
REMARK   15  A    between atoms: C_49  and  O_50 
REMARK       I    between atoms: N_53  and  C_54 
REMARK   16  A    between atoms: C_54  and  O_55 
REMARK   17  A    between atoms: O_55  and  C_56 
ROOT
HETATM    1  C   UNK N   1      26.218  14.469   3.419  0.00  0.00    -0.029 C 
HETATM    2  C   UNK N   1      26.154  15.649   2.739  0.00  0.00    -0.048 C 
HETATM    3  C   UNK N   1      26.575  16.928   3.423  0.00  0.00     0.164 C 
HETATM    4  C   UNK N   1      27.868  16.642   4.180  0.00  0.00     0.078 C 
HETATM    5  C   UNK N   1      27.904  15.305   4.996  0.00  0.00     0.098 C 
HETATM    6  C   UNK N   1      26.562  14.529   4.901  0.00  0.00     0.013 C 
HETATM    7  C   UNK N   1      26.099  13.165   2.679  0.00  0.00     0.221 C 
HETATM    8  C   UNK N   1      28.577  12.148   3.282  0.00  0.00     0.055 C 
HETATM    9  C   UNK N   1      27.005  12.099   3.279  0.00  0.00     0.171 C 
HETATM   10  C   UNK N   1      25.867  15.706   1.265  0.00  0.00     0.046 C 
HETATM   11  C   UNK N   1      29.019  10.631   3.435  0.00  0.00     0.139 C 
HETATM   12  C   UNK N   1      29.360  12.986   4.443  0.00  0.00     0.076 C 
HETATM   13  C   UNK N   1      30.912  12.638   4.464  0.00  0.00     0.125 C 
HETATM   14  C   UNK N   1      31.392  11.240   4.110  0.00  0.00     0.161 C 
HETATM   15  C   UNK N   1      30.499  10.399   3.227  0.00  0.00     0.068 C 
HETATM   16  C   UNK N   1      29.228  14.595   4.473  0.00  0.00     0.176 C 
HETATM   17  C   UNK N   1      26.621  13.235   5.706  0.00  0.00     0.023 C 
HETATM   18  C   UNK N   1      25.419  15.222   5.639  0.00  0.00     0.023 C 
HETATM   19  O   UNK N   1      26.442  11.105   3.723  0.00  0.00    -0.294 OA
HETATM   20  C   UNK N   1      29.026  12.668   1.913  0.00  0.00     0.027 C 
HETATM   21  O   UNK N   1      32.362  11.758   3.230  0.00  0.00    -0.380 OA
HETATM   22  C   UNK N   1      31.780  13.044   3.297  0.00  0.00     0.210 C 
ENDROOT
BRANCH   3  23
HETATM   23  O   UNK N   1      25.669  17.450   4.328  0.00  0.00    -0.309 OA
BRANCH  23  24
HETATM   24  C   UNK N   1      25.071  18.665   4.186  0.00  0.00     0.290 C 
HETATM   25  O   UNK N   1      25.671  19.666   4.555  0.00  0.00    -0.262 OA
BRANCH  24  26
HETATM   26  C   UNK N   1      23.656  18.780   3.648  0.00  0.00     0.244 C 
BRANCH  26  27
HETATM   27  C   UNK N   1      22.696  17.834   4.397  0.00  0.00     0.158 C 
BRANCH  27  28
HETATM   28  C   UNK N   1      21.926  16.911   3.474  0.00  0.00    -0.032 A 
HETATM   29  C   UNK N   1      20.784  17.367   2.792  0.00  0.00     0.009 A 
HETATM   30  C   UNK N   1      20.085  16.516   1.932  0.00  0.00     0.001 A 
HETATM   31  C   UNK N   1      20.530  15.209   1.729  0.00  0.00     0.000 A 
HETATM   32  C   UNK N   1      21.666  14.746   2.397  0.00  0.00     0.001 A 
HETATM   33  C   UNK N   1      22.356  15.589   3.274  0.00  0.00     0.009 A 
ENDBRANCH  27  28
BRANCH  27  34
HETATM   34  N   UNK N   1      21.803  18.596   5.248  0.00  0.00    -0.325 N 
HETATM   35  C   UNK N   1      21.438  18.144   6.464  0.00  0.00     0.361 C 
HETATM   36  O   UNK N   1      20.701  18.844   7.156  0.00  0.00    -0.238 OA
HETATM   37  H   UNK N   1      21.455  19.461   4.931  0.00  0.00     0.165 HD
BRANCH  35  38
HETATM   38  O   UNK N   1      21.905  16.957   6.935  0.00  0.00    -0.294 OA
BRANCH  38  39
HETATM   39  C   UNK N   1      21.155  15.808   7.146  0.00  0.00     0.061 C 
HETATM   40  C   UNK N   1      22.009  14.581   6.888  0.00  0.00     0.046 C 
HETATM   41  C   UNK N   1      20.716  15.770   8.593  0.00  0.00     0.046 C 
HETATM   42  C   UNK N   1      19.910  15.754   6.271  0.00  0.00     0.046 C 
ENDBRANCH  38  39
ENDBRANCH  35  38
ENDBRANCH  27  34
ENDBRANCH  26  27
BRANCH  26  43
HETATM   43  O   UNK N   1      23.192  20.091   3.768  0.00  0.00    -0.383 OA
HETATM   44  H   UNK N   1      22.566  20.698   4.194  0.00  0.00     0.210 HD
ENDBRANCH  26  43
ENDBRANCH  24  26
ENDBRANCH  23  24
ENDBRANCH   3  23
BRANCH   5  45
HETATM   45  O   UNK N   1      28.061  15.632   6.352  0.00  0.00    -0.386 OA
HETATM   46  H   UNK N   1      27.729  15.433   7.242  0.00  0.00     0.210 HD
ENDBRANCH   5  45
BRANCH   7  47
HETATM   47  O   UNK N   1      24.750  12.731   2.716  0.00  0.00    -0.379 OA
HETATM   48  C   UNK N   1      24.332  12.402   1.415  0.00  0.00     0.202 C 
ENDBRANCH   7  47
BRANCH  16  49
HETATM   49  O   UNK N   1      30.214  15.161   5.294  0.00  0.00    -0.308 OA
BRANCH  49  50
HETATM   50  C   UNK N   1      31.054  16.193   5.001  0.00  0.00     0.293 C 
HETATM   51  O   UNK N   1      31.251  16.500   3.837  0.00  0.00    -0.259 OA
BRANCH  50  52
HETATM   52  C   UNK N   1      31.842  16.854   6.071  0.00  0.00     0.039 A 
HETATM   53  C   UNK N   1      33.170  17.240   5.837  0.00  0.00     0.017 A 
HETATM   54  C   UNK N   1      33.902  17.896   6.831  0.00  0.00     0.001 A 
HETATM   55  C   UNK N   1      33.305  18.188   8.059  0.00  0.00     0.000 A 
HETATM   56  C   UNK N   1      31.987  17.801   8.304  0.00  0.00     0.001 A 
HETATM   57  C   UNK N   1      31.268  17.123   7.319  0.00  0.00     0.017 A 
ENDBRANCH  50  52
ENDBRANCH  49  50
ENDBRANCH  16  49
BRANCH  13  58
HETATM   58  O   UNK N   1      31.465  13.059   5.682  0.00  0.00    -0.305 OA
BRANCH  58  59
HETATM   59  C   UNK N   1      32.693  12.858   6.253  0.00  0.00     0.255 C 
HETATM   60  O   UNK N   1      32.806  11.995   7.106  0.00  0.00    -0.266 OA
HETATM   61  C   UNK N   1      33.901  13.668   5.906  0.00  0.00     0.126 C 
ENDBRANCH  58  59
ENDBRANCH  13  58
BRANCH  11  62
HETATM   62  O   UNK N   1      28.279   9.707   2.641  0.00  0.00    -0.389 OA
HETATM   63  C   UNK N   1      29.126   8.897   1.866  0.00  0.00     0.202 C 
ENDBRANCH  11  62
TORSDOF 17
ENDMDL
MODEL 5
REMARK VINA RESULT:      -7.4      2.746      9.027
REMARK  17 active torsions:
REMARK  status: ('A' for Active; 'I' for Inactive)
REMARK    1  A    between atoms: C_3  and  O_50 
REMARK    2  A    between atoms: C_5  and  O_40 
REMARK    3  A    between atoms: C_7  and  O_20 
REMARK    4  A    between atoms: C_11  and  O_23 
REMARK    5  A    between atoms: C_13  and  O_27 
REMARK    6  A    between atoms: C_16  and  O_31 
REMARK    7  A    between atoms: O_27  and  C_28 
REMARK    8  A    between atoms: C_38  and  O_31 
REMARK    9  A    between atoms: C_37  and  C_38 
REMARK   10  A    between atoms: C_47  and  C_45 
REMARK   11  A    between atoms: C_47  and  C_48 
REMARK   12  A    between atoms: C_47  and  N_53 
REMARK   13  A    between atoms: C_48  and  C_49 
REMARK   14  A    between atoms: C_48  and  O_52 
REMARK   15  A    between atoms: C_49  and  O_50 
REMARK       I    between atoms: N_53  and  C_54 
REMARK   16  A    between atoms: C_54  and  O_55 
REMARK   17  A    between atoms: O_55  and  C_56 
ROOT
HETATM    1  C   UNK N   1      25.102  14.131   2.541  0.00  0.00    -0.029 C 
HETATM    2  C   UNK N   1      26.113  13.250   2.789  0.00  0.00    -0.048 C 
HETATM    3  C   UNK N   1      27.134  13.567   3.856  0.00  0.00     0.164 C 
HETATM    4  C   UNK N   1      26.382  14.105   5.069  0.00  0.00     0.078 C 
HETATM    5  C   UNK N   1      25.256  15.154   4.768  0.00  0.00     0.098 C 
HETATM    6  C   UNK N   1      25.151  15.476   3.252  0.00  0.00     0.013 C 
HETATM    7  C   UNK N   1      23.919  13.708   1.714  0.00  0.00     0.221 C 
HETATM    8  C   UNK N   1      21.974  14.022   3.627  0.00  0.00     0.055 C 
HETATM    9  C   UNK N   1      22.628  14.328   2.230  0.00  0.00     0.171 C 
HETATM   10  C   UNK N   1      26.143  11.877   2.178  0.00  0.00     0.046 C 
HETATM   11  C   UNK N   1      20.443  14.392   3.436  0.00  0.00     0.139 C 
HETATM   12  C   UNK N   1      22.490  14.817   4.956  0.00  0.00     0.076 C 
HETATM   13  C   UNK N   1      21.494  14.611   6.179  0.00  0.00     0.125 C 
HETATM   14  C   UNK N   1      20.000  14.465   5.938  0.00  0.00     0.161 C 
HETATM   15  C   UNK N   1      19.558  13.958   4.584  0.00  0.00     0.068 C 
HETATM   16  C   UNK N   1      23.985  14.544   5.503  0.00  0.00     0.176 C 
HETATM   17  C   UNK N   1      24.054  16.502   2.986  0.00  0.00     0.023 C 
HETATM   18  C   UNK N   1      26.350  16.262   2.725  0.00  0.00     0.023 C 
HETATM   19  O   UNK N   1      22.038  15.064   1.447  0.00  0.00    -0.294 OA
HETATM   20  C   UNK N   1      22.101  12.516   3.877  0.00  0.00     0.027 C 
HETATM   21  O   UNK N   1      19.942  13.329   6.769  0.00  0.00    -0.380 OA
HETATM   22  C   UNK N   1      21.353  13.243   6.800  0.00  0.00     0.210 C 
ENDROOT
BRANCH   3  23
HETATM   23  O   UNK N   1      28.091  14.503   3.510  0.00  0.00    -0.309 OA
BRANCH  23  24
HETATM   24  C   UNK N   1      29.333  14.557   4.067  0.00  0.00     0.290 C 
HETATM   25  O   UNK N   1      29.664  13.684   4.859  0.00  0.00    -0.262 OA
BRANCH  24  26
HETATM   26  C   UNK N   1      30.270  15.714   3.773  0.00  0.00     0.244 C 
BRANCH  26  27
HETATM   27  C   UNK N   1      30.679  16.443   5.069  0.00  0.00     0.158 C 
BRANCH  27  28
HETATM   28  C   UNK N   1      29.599  17.365   5.601  0.00  0.00    -0.032 A 
HETATM   29  C   UNK N   1      28.918  18.244   4.741  0.00  0.00     0.009 A 
HETATM   30  C   UNK N   1      27.914  19.082   5.234  0.00  0.00     0.001 A 
HETATM   31  C   UNK N   1      27.569  19.037   6.586  0.00  0.00     0.000 A 
HETATM   32  C   UNK N   1      28.236  18.165   7.449  0.00  0.00     0.001 A 
HETATM   33  C   UNK N   1      29.254  17.339   6.962  0.00  0.00     0.009 A 
ENDBRANCH  27  28
BRANCH  27  34
HETATM   34  N   UNK N   1      31.930  17.152   4.874  0.00  0.00    -0.325 N 
HETATM   35  C   UNK N   1      32.959  17.005   5.731  0.00  0.00     0.361 C 
HETATM   36  O   UNK N   1      34.006  17.607   5.502  0.00  0.00    -0.238 OA
HETATM   37  H   UNK N   1      32.028  17.753   4.100  0.00  0.00     0.165 HD
BRANCH  35  38
HETATM   38  O   UNK N   1      32.858  16.179   6.806  0.00  0.00    -0.294 OA
BRANCH  38  39
HETATM   39  C   UNK N   1      32.957  16.554   8.138  0.00  0.00     0.061 C 
HETATM   40  C   UNK N   1      32.502  17.992   8.305  0.00  0.00     0.046 C 
HETATM   41  C   UNK N   1      32.038  15.679   8.962  0.00  0.00     0.046 C 
HETATM   42  C   UNK N   1      34.371  16.402   8.685  0.00  0.00     0.046 C 
ENDBRANCH  38  39
ENDBRANCH  35  38
ENDBRANCH  27  34
ENDBRANCH  26  27
BRANCH  26  43
HETATM   43  O   UNK N   1      31.420  15.260   3.123  0.00  0.00    -0.383 OA
HETATM   44  H   UNK N   1      31.925  14.498   2.798  0.00  0.00     0.210 HD
ENDBRANCH  26  43
ENDBRANCH  24  26
ENDBRANCH  23  24
ENDBRANCH   3  23
BRANCH   5  45
HETATM   45  O   UNK N   1      25.614  16.360   5.391  0.00  0.00    -0.386 OA
HETATM   46  H   UNK N   1      25.719  16.785   6.257  0.00  0.00     0.210 HD
ENDBRANCH   5  45
BRANCH   7  47
HETATM   47  O   UNK N   1      24.136  14.089   0.366  0.00  0.00    -0.379 OA
HETATM   48  C   UNK N   1      23.735  13.042  -0.482  0.00  0.00     0.202 C 
ENDBRANCH   7  47
BRANCH  16  49
HETATM   49  O   UNK N   1      24.134  15.029   6.809  0.00  0.00    -0.308 OA
BRANCH  49  50
HETATM   50  C   UNK N   1      24.779  14.436   7.853  0.00  0.00     0.293 C 
HETATM   51  O   UNK N   1      25.921  14.769   8.125  0.00  0.00    -0.259 OA
BRANCH  50  52
HETATM   52  C   UNK N   1      24.164  13.293   8.572  0.00  0.00     0.039 A 
HETATM   53  C   UNK N   1      23.398  13.512   9.726  0.00  0.00     0.017 A 
HETATM   54  C   UNK N   1      22.786  12.440  10.384  0.00  0.00     0.001 A 
HETATM   55  C   UNK N   1      22.920  11.145   9.880  0.00  0.00     0.000 A 
HETATM   56  C   UNK N   1      23.686  10.916   8.737  0.00  0.00     0.001 A 
HETATM   57  C   UNK N   1      24.317  11.984   8.099  0.00  0.00     0.017 A 
ENDBRANCH  50  52
ENDBRANCH  49  50
ENDBRANCH  16  49
BRANCH  13  58
HETATM   58  O   UNK N   1      21.746  15.591   7.151  0.00  0.00    -0.305 OA
BRANCH  58  59
HETATM   59  C   UNK N   1      21.188  16.818   7.385  0.00  0.00     0.255 C 
HETATM   60  O   UNK N   1      20.588  16.997   8.432  0.00  0.00    -0.266 OA
HETATM   61  C   UNK N   1      21.247  17.947   6.407  0.00  0.00     0.126 C 
ENDBRANCH  58  59
ENDBRANCH  13  58
BRANCH  11  62
HETATM   62  O   UNK N   1      19.869  13.958   2.206  0.00  0.00    -0.389 OA
HETATM   63  C   UNK N   1      18.854  13.009   2.415  0.00  0.00     0.202 C 
ENDBRANCH  11  62
TORSDOF 17
ENDMDL
MODEL 6
REMARK VINA RESULT:      -7.3      2.664      8.802
REMARK  17 active torsions:
REMARK  status: ('A' for Active; 'I' for Inactive)
REMARK    1  A    between atoms: C_3  and  O_50 
REMARK    2  A    between atoms: C_5  and  O_40 
REMARK    3  A    between atoms: C_7  and  O_20 
REMARK    4  A    between atoms: C_11  and  O_23 
REMARK    5  A    between atoms: C_13  and  O_27 
REMARK    6  A    between atoms: C_16  and  O_31 
REMARK    7  A    between atoms: O_27  and  C_28 
REMARK    8  A    between atoms: C_38  and  O_31 
REMARK    9  A    between atoms: C_37  and  C_38 
REMARK   10  A    between atoms: C_47  and  C_45 
REMARK   11  A    between atoms: C_47  and  C_48 
REMARK   12  A    between atoms: C_47  and  N_53 
REMARK   13  A    between atoms: C_48  and  C_49 
REMARK   14  A    between atoms: C_48  and  O_52 
REMARK   15  A    between atoms: C_49  and  O_50 
REMARK       I    between atoms: N_53  and  C_54 
REMARK   16  A    between atoms: C_54  and  O_55 
REMARK   17  A    between atoms: O_55  and  C_56 
ROOT
HETATM    1  C   UNK N   1      24.399  12.531   6.051  0.00  0.00    -0.029 C 
HETATM    2  C   UNK N   1      24.865  13.201   7.144  0.00  0.00    -0.048 C 
HETATM    3  C   UNK N   1      25.427  14.593   6.983  0.00  0.00     0.164 C 
HETATM    4  C   UNK N   1      24.493  15.363   6.054  0.00  0.00     0.078 C 
HETATM    5  C   UNK N   1      24.009  14.594   4.777  0.00  0.00     0.098 C 
HETATM    6  C   UNK N   1      24.623  13.170   4.687  0.00  0.00     0.013 C 
HETATM    7  C   UNK N   1      23.568  11.290   6.224  0.00  0.00     0.221 C 
HETATM    8  C   UNK N   1      21.265  12.193   5.033  0.00  0.00     0.055 C 
HETATM    9  C   UNK N   1      22.476  11.198   5.168  0.00  0.00     0.171 C 
HETATM   10  C   UNK N   1      24.660  12.687   8.541  0.00  0.00     0.046 C 
HETATM   11  C   UNK N   1      20.159  11.365   4.252  0.00  0.00     0.139 C 
HETATM   12  C   UNK N   1      21.457  13.599   4.228  0.00  0.00     0.076 C 
HETATM   13  C   UNK N   1      20.057  14.290   3.922  0.00  0.00     0.125 C 
HETATM   14  C   UNK N   1      18.825  13.442   3.647  0.00  0.00     0.161 C 
HETATM   15  C   UNK N   1      18.805  12.039   4.208  0.00  0.00     0.068 C 
HETATM   16  C   UNK N   1      22.426  14.733   4.848  0.00  0.00     0.176 C 
HETATM   17  C   UNK N   1      24.141  12.445   3.435  0.00  0.00     0.023 C 
HETATM   18  C   UNK N   1      26.122  13.184   4.396  0.00  0.00     0.023 C 
HETATM   19  O   UNK N   1      22.530  10.225   4.424  0.00  0.00    -0.294 OA
HETATM   20  C   UNK N   1      20.760  12.502   6.446  0.00  0.00     0.027 C 
HETATM   21  O   UNK N   1      18.062  14.193   4.562  0.00  0.00    -0.380 OA
HETATM   22  C   UNK N   1      19.226  14.820   5.064  0.00  0.00     0.210 C 
ENDROOT
BRANCH   3  23
HETATM   23  O   UNK N   1      26.700  14.667   6.449  0.00  0.00    -0.309 OA
BRANCH  23  24
HETATM   24  C   UNK N   1      27.431  15.814   6.391  0.00  0.00     0.290 C 
HETATM   25  O   UNK N   1      27.635  16.438   7.425  0.00  0.00    -0.262 OA
BRANCH  24  26
HETATM   26  C   UNK N   1      27.927  16.358   5.064  0.00  0.00     0.244 C 
BRANCH  26  27
HETATM   27  C   UNK N   1      28.840  17.584   5.269  0.00  0.00     0.158 C 
BRANCH  27  28
HETATM   28  C   UNK N   1      28.084  18.898   5.265  0.00  0.00    -0.032 A 
HETATM   29  C   UNK N   1      27.425  19.344   4.106  0.00  0.00     0.009 A 
HETATM   30  C   UNK N   1      26.719  20.550   4.112  0.00  0.00     0.001 A 
HETATM   31  C   UNK N   1      26.648  21.312   5.279  0.00  0.00     0.000 A 
HETATM   32  C   UNK N   1      27.295  20.877   6.438  0.00  0.00     0.001 A 
HETATM   33  C   UNK N   1      28.019  19.680   6.429  0.00  0.00     0.009 A 
ENDBRANCH  27  28
BRANCH  27  34
HETATM   34  N   UNK N   1      29.907  17.585   4.286  0.00  0.00    -0.325 N 
HETATM   35  C   UNK N   1      31.202  17.579   4.659  0.00  0.00     0.361 C 
HETATM   36  O   UNK N   1      32.066  17.551   3.785  0.00  0.00    -0.238 OA
HETATM   37  H   UNK N   1      29.681  17.592   3.328  0.00  0.00     0.165 HD
BRANCH  35  38
HETATM   38  O   UNK N   1      31.548  17.563   5.974  0.00  0.00    -0.294 OA
BRANCH  38  39
HETATM   39  C   UNK N   1      32.112  16.496   6.659  0.00  0.00     0.061 C 
HETATM   40  C   UNK N   1      33.626  16.599   6.618  0.00  0.00     0.046 C 
HETATM   41  C   UNK N   1      31.683  16.563   8.108  0.00  0.00     0.046 C 
HETATM   42  C   UNK N   1      31.680  15.147   6.098  0.00  0.00     0.046 C 
ENDBRANCH  38  39
ENDBRANCH  35  38
ENDBRANCH  27  34
ENDBRANCH  26  27
BRANCH  26  43
HETATM   43  O   UNK N   1      28.631  15.376   4.364  0.00  0.00    -0.383 OA
HETATM   44  H   UNK N   1      28.987  15.080   3.512  0.00  0.00     0.210 HD
ENDBRANCH  26  43
ENDBRANCH  24  26
ENDBRANCH  23  24
ENDBRANCH   3  23
BRANCH   5  45
HETATM   45  O   UNK N   1      24.483  15.286   3.652  0.00  0.00    -0.386 OA
HETATM   46  H   UNK N   1      24.391  16.113   3.154  0.00  0.00     0.210 HD
ENDBRANCH   5  45
BRANCH   7  47
HETATM   47  O   UNK N   1      24.411  10.153   6.149  0.00  0.00    -0.379 OA
HETATM   48  C   UNK N   1      24.063   9.249   7.168  0.00  0.00     0.202 C 
ENDBRANCH   7  47
BRANCH  16  49
HETATM   49  O   UNK N   1      22.208  15.970   4.226  0.00  0.00    -0.308 OA
BRANCH  49  50
HETATM   50  C   UNK N   1      21.974  17.174   4.819  0.00  0.00     0.293 C 
HETATM   51  O   UNK N   1      21.652  17.216   5.995  0.00  0.00    -0.259 OA
BRANCH  50  52
HETATM   52  C   UNK N   1      21.967  18.424   4.018  0.00  0.00     0.039 A 
HETATM   53  C   UNK N   1      23.155  19.141   3.813  0.00  0.00     0.017 A 
HETATM   54  C   UNK N   1      23.157  20.297   3.028  0.00  0.00     0.001 A 
HETATM   55  C   UNK N   1      21.976  20.734   2.427  0.00  0.00     0.000 A 
HETATM   56  C   UNK N   1      20.787  20.032   2.631  0.00  0.00     0.001 A 
HETATM   57  C   UNK N   1      20.783  18.894   3.436  0.00  0.00     0.017 A 
ENDBRANCH  50  52
ENDBRANCH  49  50
ENDBRANCH  16  49
BRANCH  13  58
HETATM   58  O   UNK N   1      20.227  15.258   2.921  0.00  0.00    -0.305 OA
BRANCH  58  59
HETATM   59  C   UNK N   1      20.261  15.172   1.555  0.00  0.00     0.255 C 
HETATM   60  O   UNK N   1      20.600  14.119   1.044  0.00  0.00    -0.266 OA
HETATM   61  C   UNK N   1      19.933  16.319   0.653  0.00  0.00     0.126 C 
ENDBRANCH  58  59
ENDBRANCH  13  58
BRANCH  11  62
HETATM   62  O   UNK N   1      20.002  10.017   4.685  0.00  0.00    -0.389 OA
HETATM   63  C   UNK N   1      19.207   9.276   3.794  0.00  0.00     0.202 C 
ENDBRANCH  11  62
TORSDOF 17
ENDMDL
MODEL 7
REMARK VINA RESULT:      -7.3      2.690      7.048
REMARK  17 active torsions:
REMARK  status: ('A' for Active; 'I' for Inactive)
REMARK    1  A    between atoms: C_3  and  O_50 
REMARK    2  A    between atoms: C_5  and  O_40 
REMARK    3  A    between atoms: C_7  and  O_20 
REMARK    4  A    between atoms: C_11  and  O_23 
REMARK    5  A    between atoms: C_13  and  O_27 
REMARK    6  A    between atoms: C_16  and  O_31 
REMARK    7  A    between atoms: O_27  and  C_28 
REMARK    8  A    between atoms: C_38  and  O_31 
REMARK    9  A    between atoms: C_37  and  C_38 
REMARK   10  A    between atoms: C_47  and  C_45 
REMARK   11  A    between atoms: C_47  and  C_48 
REMARK   12  A    between atoms: C_47  and  N_53 
REMARK   13  A    between atoms: C_48  and  C_49 
REMARK   14  A    between atoms: C_48  and  O_52 
REMARK   15  A    between atoms: C_49  and  O_50 
REMARK       I    between atoms: N_53  and  C_54 
REMARK   16  A    between atoms: C_54  and  O_55 
REMARK   17  A    between atoms: O_55  and  C_56 
ROOT
HETATM    1  C   UNK N   1      32.348  16.645   6.123  0.00  0.00    -0.029 C 
HETATM    2  C   UNK N   1      31.217  16.910   6.837  0.00  0.00    -0.048 C 
HETATM    3  C   UNK N   1      29.872  16.862   6.151  0.00  0.00     0.164 C 
HETATM    4  C   UNK N   1      29.849  15.618   5.269  0.00  0.00     0.078 C 
HETATM    5  C   UNK N   1      31.139  15.357   4.417  0.00  0.00     0.098 C 
HETATM    6  C   UNK N   1      32.204  16.470   4.617  0.00  0.00     0.013 C 
HETATM    7  C   UNK N   1      33.648  16.389   6.835  0.00  0.00     0.221 C 
HETATM    8  C   UNK N   1      34.064  13.815   5.974  0.00  0.00     0.055 C 
HETATM    9  C   UNK N   1      34.473  15.327   6.124  0.00  0.00     0.171 C 
HETATM   10  C   UNK N   1      31.234  17.057   8.333  0.00  0.00     0.046 C 
HETATM   11  C   UNK N   1      35.437  13.055   5.740  0.00  0.00     0.139 C 
HETATM   12  C   UNK N   1      33.063  13.362   4.768  0.00  0.00     0.076 C 
HETATM   13  C   UNK N   1      33.043  11.781   4.592  0.00  0.00     0.125 C 
HETATM   14  C   UNK N   1      34.295  10.962   4.861  0.00  0.00     0.161 C 
HETATM   15  C   UNK N   1      35.323  11.548   5.801  0.00  0.00     0.068 C 
HETATM   16  C   UNK N   1      31.526  13.861   4.794  0.00  0.00     0.176 C 
HETATM   17  C   UNK N   1      33.446  16.196   3.775  0.00  0.00     0.023 C 
HETATM   18  C   UNK N   1      31.789  17.808   4.009  0.00  0.00     0.023 C 
HETATM   19  O   UNK N   1      35.568  15.688   5.708  0.00  0.00    -0.294 OA
HETATM   20  C   UNK N   1      33.460  13.365   7.308  0.00  0.00     0.027 C 
HETATM   21  O   UNK N   1      33.572  10.055   5.660  0.00  0.00    -0.380 OA
HETATM   22  C   UNK N   1      32.453  10.920   5.682  0.00  0.00     0.210 C 
ENDROOT
BRANCH   3  23
HETATM   23  O   UNK N   1      29.569  17.947   5.349  0.00  0.00    -0.309 OA
BRANCH  23  24
HETATM   24  C   UNK N   1      28.329  18.503   5.266  0.00  0.00     0.290 C 
HETATM   25  O   UNK N   1      27.811  18.948   6.282  0.00  0.00    -0.262 OA
BRANCH  24  26
HETATM   26  C   UNK N   1      27.564  18.510   3.955  0.00  0.00     0.244 C 
BRANCH  26  27
HETATM   27  C   UNK N   1      26.160  17.896   4.125  0.00  0.00     0.158 C 
BRANCH  27  28
HETATM   28  C   UNK N   1      26.066  16.471   3.617  0.00  0.00    -0.032 A 
HETATM   29  C   UNK N   1      26.088  15.387   4.512  0.00  0.00     0.009 A 
HETATM   30  C   UNK N   1      25.988  14.075   4.039  0.00  0.00     0.001 A 
HETATM   31  C   UNK N   1      25.845  13.835   2.672  0.00  0.00     0.000 A 
HETATM   32  C   UNK N   1      25.817  14.904   1.773  0.00  0.00     0.001 A 
HETATM   33  C   UNK N   1      25.938  16.216   2.242  0.00  0.00     0.009 A 
ENDBRANCH  27  28
BRANCH  27  34
HETATM   34  N   UNK N   1      25.162  18.745   3.504  0.00  0.00    -0.325 N 
HETATM   35  C   UNK N   1      23.906  18.819   3.987  0.00  0.00     0.361 C 
HETATM   36  O   UNK N   1      23.108  19.577   3.439  0.00  0.00    -0.238 OA
HETATM   37  H   UNK N   1      25.406  19.277   2.711  0.00  0.00     0.165 HD
BRANCH  35  38
HETATM   38  O   UNK N   1      23.538  18.102   5.082  0.00  0.00    -0.294 OA
BRANCH  38  39
HETATM   39  C   UNK N   1      22.577  17.102   5.120  0.00  0.00     0.061 C 
HETATM   40  C   UNK N   1      22.947  16.071   6.171  0.00  0.00     0.046 C 
HETATM   41  C   UNK N   1      21.251  17.712   5.517  0.00  0.00     0.046 C 
HETATM   42  C   UNK N   1      22.398  16.412   3.773  0.00  0.00     0.046 C 
ENDBRANCH  38  39
ENDBRANCH  35  38
ENDBRANCH  27  34
ENDBRANCH  26  27
BRANCH  26  43
HETATM   43  O   UNK N   1      27.437  19.813   3.469  0.00  0.00    -0.383 OA
HETATM   44  H   UNK N   1      26.859  20.479   3.064  0.00  0.00     0.210 HD
ENDBRANCH  26  43
ENDBRANCH  24  26
ENDBRANCH  23  24
ENDBRANCH   3  23
BRANCH   5  45
HETATM   45  O   UNK N   1      30.778  15.412   3.062  0.00  0.00    -0.386 OA
HETATM   46  H   UNK N   1      30.581  16.025   2.335  0.00  0.00     0.210 HD
ENDBRANCH   5  45
BRANCH   7  47
HETATM   47  O   UNK N   1      34.380  17.601   6.913  0.00  0.00    -0.379 OA
HETATM   48  C   UNK N   1      34.562  17.946   8.263  0.00  0.00     0.202 C 
ENDBRANCH   7  47
BRANCH  16  49
HETATM   49  O   UNK N   1      30.745  13.116   3.900  0.00  0.00    -0.308 OA
BRANCH  49  50
HETATM   50  C   UNK N   1      29.585  12.449   4.158  0.00  0.00     0.293 C 
HETATM   51  O   UNK N   1      29.228  12.284   5.313  0.00  0.00    -0.259 OA
BRANCH  50  52
HETATM   52  C   UNK N   1      28.826  11.799   3.061  0.00  0.00     0.039 A 
HETATM   53  C   UNK N   1      27.826  10.859   3.352  0.00  0.00     0.017 A 
HETATM   54  C   UNK N   1      27.085  10.273   2.322  0.00  0.00     0.001 A 
HETATM   55  C   UNK N   1      27.324  10.637   0.996  0.00  0.00     0.000 A 
HETATM   56  C   UNK N   1      28.321  11.565   0.696  0.00  0.00     0.001 A 
HETATM   57  C   UNK N   1      29.077  12.128   1.724  0.00  0.00     0.017 A 
ENDBRANCH  50  52
ENDBRANCH  49  50
ENDBRANCH  16  49
BRANCH  13  58
HETATM   58  O   UNK N   1      32.500  11.461   3.338  0.00  0.00    -0.305 OA
BRANCH  58  59
HETATM   59  C   UNK N   1      33.039  11.447   2.080  0.00  0.00     0.255 C 
HETATM   60  O   UNK N   1      33.292  10.372   1.564  0.00  0.00    -0.266 OA
HETATM   61  C   UNK N   1      33.364  12.689   1.313  0.00  0.00     0.126 C 
ENDBRANCH  58  59
ENDBRANCH  13  58
BRANCH  11  62
HETATM   62  O   UNK N   1      36.510  13.483   6.575  0.00  0.00    -0.389 OA
HETATM   63  C   UNK N   1      37.071  12.409   7.287  0.00  0.00     0.202 C 
ENDBRANCH  11  62
TORSDOF 17
ENDMDL
MODEL 8
REMARK VINA RESULT:      -7.3      2.628      9.048
REMARK  17 active torsions:
REMARK  status: ('A' for Active; 'I' for Inactive)
REMARK    1  A    between atoms: C_3  and  O_50 
REMARK    2  A    between atoms: C_5  and  O_40 
REMARK    3  A    between atoms: C_7  and  O_20 
REMARK    4  A    between atoms: C_11  and  O_23 
REMARK    5  A    between atoms: C_13  and  O_27 
REMARK    6  A    between atoms: C_16  and  O_31 
REMARK    7  A    between atoms: O_27  and  C_28 
REMARK    8  A    between atoms: C_38  and  O_31 
REMARK    9  A    between atoms: C_37  and  C_38 
REMARK   10  A    between atoms: C_47  and  C_45 
REMARK   11  A    between atoms: C_47  and  C_48 
REMARK   12  A    between atoms: C_47  and  N_53 
REMARK   13  A    between atoms: C_48  and  C_49 
REMARK   14  A    between atoms: C_48  and  O_52 
REMARK   15  A    between atoms: C_49  and  O_50 
REMARK       I    between atoms: N_53  and  C_54 
REMARK   16  A    between atoms: C_54  and  O_55 
REMARK   17  A    between atoms: O_55  and  C_56 
ROOT
HETATM    1  C   UNK N   1      26.059  13.993   3.626  0.00  0.00    -0.029 C 
HETATM    2  C   UNK N   1      26.437  13.946   4.935  0.00  0.00    -0.048 C 
HETATM    3  C   UNK N   1      26.563  15.229   5.722  0.00  0.00     0.164 C 
HETATM    4  C   UNK N   1      25.352  16.094   5.389  0.00  0.00     0.078 C 
HETATM    5  C   UNK N   1      24.963  16.176   3.873  0.00  0.00     0.098 C 
HETATM    6  C   UNK N   1      25.939  15.365   2.977  0.00  0.00     0.013 C 
HETATM    7  C   UNK N   1      25.636  12.736   2.917  0.00  0.00     0.221 C 
HETATM    8  C   UNK N   1      23.053  13.464   2.339  0.00  0.00     0.055 C 
HETATM    9  C   UNK N   1      24.502  13.002   1.938  0.00  0.00     0.171 C 
HETATM   10  C   UNK N   1      26.544  12.650   5.689  0.00  0.00     0.046 C 
HETATM   11  C   UNK N   1      22.144  13.017   1.117  0.00  0.00     0.139 C 
HETATM   12  C   UNK N   1      22.749  15.047   2.598  0.00  0.00     0.076 C 
HETATM   13  C   UNK N   1      21.186  15.336   2.660  0.00  0.00     0.125 C 
HETATM   14  C   UNK N   1      20.220  14.528   1.809  0.00  0.00     0.161 C 
HETATM   15  C   UNK N   1      20.659  13.147   1.376  0.00  0.00     0.068 C 
HETATM   16  C   UNK N   1      23.423  15.777   3.871  0.00  0.00     0.176 C 
HETATM   17  C   UNK N   1      25.542  15.464   1.508  0.00  0.00     0.023 C 
HETATM   18  C   UNK N   1      27.331  15.988   2.895  0.00  0.00     0.023 C 
HETATM   19  O   UNK N   1      24.743  12.762   0.760  0.00  0.00    -0.294 OA
HETATM   20  C   UNK N   1      22.644  12.676   3.587  0.00  0.00     0.027 C 
HETATM   21  O   UNK N   1      19.384  14.294   2.919  0.00  0.00    -0.380 OA
HETATM   22  C   UNK N   1      20.373  14.782   3.804  0.00  0.00     0.210 C 
ENDROOT
BRANCH   3  23
HETATM   23  O   UNK N   1      27.695  15.980   5.466  0.00  0.00    -0.309 OA
BRANCH  23  24
HETATM   24  C   UNK N   1      28.278  16.805   6.379  0.00  0.00     0.290 C 
HETATM   25  O   UNK N   1      27.883  16.778   7.538  0.00  0.00    -0.262 OA
BRANCH  24  26
HETATM   26  C   UNK N   1      29.348  17.798   5.963  0.00  0.00     0.244 C 
BRANCH  26  27
HETATM   27  C   UNK N   1      30.756  17.285   6.325  0.00  0.00     0.158 C 
BRANCH  27  28
HETATM   28  C   UNK N   1      31.500  16.697   5.142  0.00  0.00    -0.032 A 
HETATM   29  C   UNK N   1      31.272  15.370   4.738  0.00  0.00     0.009 A 
HETATM   30  C   UNK N   1      31.950  14.838   3.638  0.00  0.00     0.001 A 
HETATM   31  C   UNK N   1      32.848  15.630   2.921  0.00  0.00     0.000 A 
HETATM   32  C   UNK N   1      33.079  16.952   3.310  0.00  0.00     0.001 A 
HETATM   33  C   UNK N   1      32.416  17.481   4.422  0.00  0.00     0.009 A 
ENDBRANCH  27  28
BRANCH  27  34
HETATM   34  N   UNK N   1      30.679  16.340   7.423  0.00  0.00    -0.325 N 
HETATM   35  C   UNK N   1      31.540  16.398   8.458  0.00  0.00     0.361 C 
HETATM   36  O   UNK N   1      31.412  15.591   9.377  0.00  0.00    -0.238 OA
HETATM   37  H   UNK N   1      29.985  15.642   7.411  0.00  0.00     0.165 HD
BRANCH  35  38
HETATM   38  O   UNK N   1      32.507  17.354   8.508  0.00  0.00    -0.294 OA
BRANCH  38  39
HETATM   39  C   UNK N   1      33.875  17.138   8.431  0.00  0.00     0.061 C 
HETATM   40  C   UNK N   1      34.169  16.051   7.413  0.00  0.00     0.046 C 
HETATM   41  C   UNK N   1      34.544  18.409   7.957  0.00  0.00     0.046 C 
HETATM   42  C   UNK N   1      34.483  16.754   9.773  0.00  0.00     0.046 C 
ENDBRANCH  38  39
ENDBRANCH  35  38
ENDBRANCH  27  34
ENDBRANCH  26  27
BRANCH  26  43
HETATM   43  O   UNK N   1      29.287  18.035   4.588  0.00  0.00    -0.383 OA
HETATM   44  H   UNK N   1      29.714  17.927   3.723  0.00  0.00     0.210 HD
ENDBRANCH  26  43
ENDBRANCH  24  26
ENDBRANCH  23  24
ENDBRANCH   3  23
BRANCH   5  45
HETATM   45  O   UNK N   1      25.093  17.513   3.466  0.00  0.00    -0.386 OA
HETATM   46  H   UNK N   1      25.215  18.079   2.688  0.00  0.00     0.210 HD
ENDBRANCH   5  45
BRANCH   7  47
HETATM   47  O   UNK N   1      26.751  12.191   2.232  0.00  0.00    -0.379 OA
HETATM   48  C   UNK N   1      26.932  10.855   2.627  0.00  0.00     0.202 C 
ENDBRANCH   7  47
BRANCH  16  49
HETATM   49  O   UNK N   1      22.797  17.004   4.131  0.00  0.00    -0.308 OA
BRANCH  49  50
HETATM   50  C   UNK N   1      22.596  17.600   5.340  0.00  0.00     0.293 C 
HETATM   51  O   UNK N   1      23.105  18.684   5.571  0.00  0.00    -0.259 OA
BRANCH  50  52
HETATM   52  C   UNK N   1      21.887  16.883   6.429  0.00  0.00     0.039 A 
HETATM   53  C   UNK N   1      20.767  17.461   7.046  0.00  0.00     0.017 A 
HETATM   54  C   UNK N   1      20.075  16.772   8.046  0.00  0.00     0.001 A 
HETATM   55  C   UNK N   1      20.485  15.491   8.422  0.00  0.00     0.000 A 
HETATM   56  C   UNK N   1      21.601  14.910   7.819  0.00  0.00     0.001 A 
HETATM   57  C   UNK N   1      22.306  15.612   6.841  0.00  0.00     0.017 A 
ENDBRANCH  50  52
ENDBRANCH  49  50
ENDBRANCH  16  49
BRANCH  13  58
HETATM   58  O   UNK N   1      20.962  16.711   2.493  0.00  0.00    -0.305 OA
BRANCH  58  59
HETATM   59  C   UNK N   1      20.086  17.412   1.710  0.00  0.00     0.255 C 
HETATM   60  O   UNK N   1      19.306  18.179   2.247  0.00  0.00    -0.266 OA
HETATM   61  C   UNK N   1      20.012  17.261   0.224  0.00  0.00     0.126 C 
ENDBRANCH  58  59
ENDBRANCH  13  58
BRANCH  11  62
HETATM   62  O   UNK N   1      22.422  11.717   0.606  0.00  0.00    -0.389 OA
HETATM   63  C   UNK N   1      21.273  10.908   0.593  0.00  0.00     0.202 C 
ENDBRANCH  11  62
TORSDOF 17
ENDMDL
MODEL 9
REMARK VINA RESULT:      -7.3      3.408      7.775
REMARK  17 active torsions:
REMARK  status: ('A' for Active; 'I' for Inactive)
REMARK    1  A    between atoms: C_3  and  O_50 
REMARK    2  A    between atoms: C_5  and  O_40 
REMARK    3  A    between atoms: C_7  and  O_20 
REMARK    4  A    between atoms: C_11  and  O_23 
REMARK    5  A    between atoms: C_13  and  O_27 
REMARK    6  A    between atoms: C_16  and  O_31 
REMARK    7  A    between atoms: O_27  and  C_28 
REMARK    8  A    between atoms: C_38  and  O_31 
REMARK    9  A    between atoms: C_37  and  C_38 
REMARK   10  A    between atoms: C_47  and  C_45 
REMARK   11  A    between atoms: C_47  and  C_48 
REMARK   12  A    between atoms: C_47  and  N_53 
REMARK   13  A    between atoms: C_48  and  C_49 
REMARK   14  A    between atoms: C_48  and  O_52 
REMARK   15  A    between atoms: C_49  and  O_50 
REMARK       I    between atoms: N_53  and  C_54 
REMARK   16  A    between atoms: C_54  and  O_55 
REMARK   17  A    between atoms: O_55  and  C_56 
ROOT
HETATM    1  C   UNK N   1      32.433  16.280   6.400  0.00  0.00    -0.029 C 
HETATM    2  C   UNK N   1      31.342  16.299   7.217  0.00  0.00    -0.048 C 
HETATM    3  C   UNK N   1      29.958  16.227   6.615  0.00  0.00     0.164 C 
HETATM    4  C   UNK N   1      29.983  15.158   5.528  0.00  0.00     0.078 C 
HETATM    5  C   UNK N   1      31.221  15.185   4.567  0.00  0.00     0.098 C 
HETATM    6  C   UNK N   1      32.190  16.352   4.898  0.00  0.00     0.013 C 
HETATM    7  C   UNK N   1      33.803  16.044   6.975  0.00  0.00     0.221 C 
HETATM    8  C   UNK N   1      34.389  13.715   5.645  0.00  0.00     0.055 C 
HETATM    9  C   UNK N   1      34.666  15.213   6.037  0.00  0.00     0.171 C 
HETATM   10  C   UNK N   1      31.462  16.186   8.710  0.00  0.00     0.046 C 
HETATM   11  C   UNK N   1      35.805  13.156   5.196  0.00  0.00     0.139 C 
HETATM   12  C   UNK N   1      33.343  13.373   4.439  0.00  0.00     0.076 C 
HETATM   13  C   UNK N   1      33.457  11.853   3.985  0.00  0.00     0.125 C 
HETATM   14  C   UNK N   1      34.798  11.136   4.027  0.00  0.00     0.161 C 
HETATM   15  C   UNK N   1      35.837  11.657   4.993  0.00  0.00     0.068 C 
HETATM   16  C   UNK N   1      31.774  13.695   4.646  0.00  0.00     0.176 C 
HETATM   17  C   UNK N   1      33.382  16.360   3.948  0.00  0.00     0.023 C 
HETATM   18  C   UNK N   1      31.606  17.724   4.565  0.00  0.00     0.023 C 
HETATM   19  O   UNK N   1      35.687  15.754   5.627  0.00  0.00    -0.294 OA
HETATM   20  C   UNK N   1      33.935  12.981   6.910  0.00  0.00     0.027 C 
HETATM   21  O   UNK N   1      34.226  10.034   4.693  0.00  0.00    -0.380 OA
HETATM   22  C   UNK N   1      33.037  10.760   4.937  0.00  0.00     0.210 C 
ENDROOT
BRANCH   3  23
HETATM   23  O   UNK N   1      29.494  17.396   6.040  0.00  0.00    -0.309 OA
BRANCH  23  24
HETATM   24  C   UNK N   1      28.607  18.235   6.643  0.00  0.00     0.290 C 
HETATM   25  O   UNK N   1      28.560  18.267   7.865  0.00  0.00    -0.262 OA
BRANCH  24  26
HETATM   26  C   UNK N   1      27.638  19.066   5.821  0.00  0.00     0.244 C 
BRANCH  26  27
HETATM   27  C   UNK N   1      26.701  18.169   4.988  0.00  0.00     0.158 C 
BRANCH  27  28
HETATM   28  C   UNK N   1      25.628  18.948   4.252  0.00  0.00    -0.032 A 
HETATM   29  C   UNK N   1      25.974  19.920   3.298  0.00  0.00     0.009 A 
HETATM   30  C   UNK N   1      24.981  20.625   2.613  0.00  0.00     0.001 A 
HETATM   31  C   UNK N   1      23.634  20.353   2.860  0.00  0.00     0.000 A 
HETATM   32  C   UNK N   1      23.278  19.385   3.803  0.00  0.00     0.001 A 
HETATM   33  C   UNK N   1      24.270  18.693   4.504  0.00  0.00     0.009 A 
ENDBRANCH  27  28
BRANCH  27  34
HETATM   34  N   UNK N   1      26.123  17.134   5.824  0.00  0.00    -0.325 N 
HETATM   35  C   UNK N   1      26.240  15.830   5.507  0.00  0.00     0.361 C 
HETATM   36  O   UNK N   1      25.756  14.993   6.266  0.00  0.00    -0.238 OA
HETATM   37  H   UNK N   1      25.633  17.390   6.640  0.00  0.00     0.165 HD
BRANCH  35  38
HETATM   38  O   UNK N   1      26.915  15.443   4.391  0.00  0.00    -0.294 OA
BRANCH  38  39
HETATM   39  C   UNK N   1      26.357  14.885   3.250  0.00  0.00     0.061 C 
HETATM   40  C   UNK N   1      27.299  15.064   2.074  0.00  0.00     0.046 C 
HETATM   41  C   UNK N   1      26.170  13.400   3.472  0.00  0.00     0.046 C 
HETATM   42  C   UNK N   1      25.000  15.487   2.909  0.00  0.00     0.046 C 
ENDBRANCH  38  39
ENDBRANCH  35  38
ENDBRANCH  27  34
ENDBRANCH  26  27
BRANCH  26  43
HETATM   43  O   UNK N   1      26.869  19.885   6.652  0.00  0.00    -0.383 OA
HETATM   44  H   UNK N   1      26.565  20.783   6.855  0.00  0.00     0.210 HD
ENDBRANCH  26  43
ENDBRANCH  24  26
ENDBRANCH  23  24
ENDBRANCH   3  23
BRANCH   5  45
HETATM   45  O   UNK N   1      30.753  15.434   3.268  0.00  0.00    -0.386 OA
HETATM   46  H   UNK N   1      30.413  15.001   2.468  0.00  0.00     0.210 HD
ENDBRANCH   5  45
BRANCH   7  47
HETATM   47  O   UNK N   1      34.423  17.295   7.224  0.00  0.00    -0.379 OA
HETATM   48  C   UNK N   1      34.647  17.434   8.605  0.00  0.00     0.202 C 
ENDBRANCH   7  47
BRANCH  16  49
HETATM   49  O   UNK N   1      30.999  13.037   3.682  0.00  0.00    -0.308 OA
BRANCH  49  50
HETATM   50  C   UNK N   1      29.969  12.169   3.888  0.00  0.00     0.293 C 
HETATM   51  O   UNK N   1      29.701  11.808   5.022  0.00  0.00    -0.259 OA
BRANCH  50  52
HETATM   52  C   UNK N   1      29.264  11.546   2.740  0.00  0.00     0.039 A 
HETATM   53  C   UNK N   1      29.510  11.989   1.432  0.00  0.00     0.017 A 
HETATM   54  C   UNK N   1      28.875  11.379   0.346  0.00  0.00     0.001 A 
HETATM   55  C   UNK N   1      28.004  10.309   0.559  0.00  0.00     0.000 A 
HETATM   56  C   UNK N   1      27.747   9.866   1.857  0.00  0.00     0.001 A 
HETATM   57  C   UNK N   1      28.362  10.494   2.940  0.00  0.00     0.017 A 
ENDBRANCH  50  52
ENDBRANCH  49  50
ENDBRANCH  16  49
BRANCH  13  58
HETATM   58  O   UNK N   1      32.851  11.698   2.729  0.00  0.00    -0.305 OA
BRANCH  58  59
HETATM   59  C   UNK N   1      33.308  11.907   1.456  0.00  0.00     0.255 C 
HETATM   60  O   UNK N   1      33.400  13.052   1.049  0.00  0.00    -0.266 OA
HETATM   61  C   UNK N   1      33.670  10.797   0.522  0.00  0.00     0.126 C 
ENDBRANCH  58  59
ENDBRANCH  13  58
BRANCH  11  62
HETATM   62  O   UNK N   1      36.895  13.544   6.028  0.00  0.00    -0.389 OA
HETATM   63  C   UNK N   1      37.619  12.430   6.485  0.00  0.00     0.202 C 
ENDBRANCH  11  62
TORSDOF 17
ENDMDL
