REMARK  10 active torsions:
REMARK  status: ('A' for Active; 'I' for Inactive)
REMARK    1  A    between atoms: O_1  and  C_21 
REMARK    2  A    between atoms: O_3  and  C_31 
REMARK    3  A    between atoms: N_5  and  C_15 
REMARK       I    between atoms: N_6  and  C_20 
REMARK    4  A    between atoms: N_6  and  C_27 
REMARK    5  A    between atoms: C_7  and  C_12 
REMARK    6  A    between atoms: C_15  and  C_16 
REMARK    7  A    between atoms: C_16  and  C_19 
REMARK    8  A    between atoms: C_16  and  C_20 
REMARK    9  A    between atoms: C_19  and  C_24 
REMARK   10  A    between atoms: C_27  and  C_31 
ROOT
HETATM    1  C   UNK N   1       3.401  -0.548   1.034  0.00  0.00     0.286 C 
ENDROOT
BRANCH   1   2
HETATM    2  N   UNK N   1       2.497   0.288   0.229  0.00  0.00     0.089 N 
HETATM    3  C   UNK N   1       2.041   1.335   1.160  0.00  0.00     0.277 C 
HETATM    4  C   UNK N   1       1.162   2.399   0.476  0.00  0.00     0.022 C 
HETATM    5  C   UNK N   1       1.933   3.060  -0.695  0.00  0.00    -0.010 C 
HETATM    6  C   UNK N   1      -0.151   1.751   0.047  0.00  0.00     0.012 C 
HETATM    7  C   UNK N   1       2.420   1.939  -1.625  0.00  0.00     0.044 C 
HETATM    8  C   UNK N   1       1.010   3.957  -1.515  0.00  0.00     0.021 C 
HETATM    9  C   UNK N   1       3.258   0.927  -0.848  0.00  0.00     0.273 C 
BRANCH   5  10
HETATM   10  C   UNK N   1       3.069   3.933  -0.155  0.00  0.00    -0.047 A 
HETATM   11  C   UNK N   1       4.421   3.631  -0.410  0.00  0.00     0.044 A 
HETATM   12  C   UNK N   1       5.442   4.434   0.104  0.00  0.00     0.066 A 
HETATM   13  C   UNK N   1       5.127   5.566   0.859  0.00  0.00     0.036 A 
HETATM   14  C   UNK N   1       3.792   5.887   1.111  0.00  0.00     0.003 A 
HETATM   15  C   UNK N   1       2.769   5.070   0.618  0.00  0.00     0.008 A 
BRANCH  12  16
HETATM   16  O   UNK N   1       6.726   4.113  -0.123  0.00  0.00    -0.361 OA
HETATM   17  H   UNK N   1       6.980   3.225  -0.281  0.00  0.00     0.217 HD
ENDBRANCH  12  16
ENDBRANCH   5  10
ENDBRANCH   1   2
BRANCH   1  18
HETATM   18  C   UNK N   1       4.215  -1.648   0.306  0.00  0.00     0.110 C 
BRANCH  18  19
HETATM   19  C   UNK N   1       5.139  -1.174  -0.812  0.00  0.00     0.054 C 
BRANCH  19  20
HETATM   20  C   UNK N   1       6.554  -1.136  -0.351  0.00  0.00    -0.057 A 
HETATM   21  C   UNK N   1       7.245   0.079  -0.331  0.00  0.00     0.007 A 
HETATM   22  C   UNK N   1       8.578   0.118   0.089  0.00  0.00     0.001 A 
HETATM   23  C   UNK N   1       9.221  -1.059   0.488  0.00  0.00     0.000 A 
HETATM   24  C   UNK N   1       8.531  -2.275   0.466  0.00  0.00     0.001 A 
HETATM   25  C   UNK N   1       7.200  -2.314   0.044  0.00  0.00     0.007 A 
ENDBRANCH  19  20
ENDBRANCH  18  19
BRANCH  18  26
HETATM   26  C   UNK N   1       3.607  -2.993   0.010  0.00  0.00     0.224 C 
HETATM   27  O   UNK N   1       4.357  -3.907  -0.311  0.00  0.00    -0.273 OA
HETATM   28  N   UNK N   1       2.276  -3.221   0.115  0.00  0.00    -0.351 N 
HETATM   29  H   UNK N   1       1.668  -2.490   0.370  0.00  0.00     0.163 HD
BRANCH  28  30
HETATM   30  C   UNK N   1       1.751  -4.546  -0.149  0.00  0.00     0.232 C 
BRANCH  30  31
HETATM   31  C   UNK N   1       0.268  -4.633   0.014  0.00  0.00     0.158 C 
HETATM   32  O   UNK N   1      -0.390  -3.648   0.309  0.00  0.00    -0.649 OA
BRANCH  31  33
HETATM   33  O   UNK N   1      -0.345  -5.817  -0.168  0.00  0.00    -0.775 OA
HETATM   34  H   UNK N   1      -1.272  -5.860  -0.295  0.00  0.00     0.167 HD
ENDBRANCH  31  33
ENDBRANCH  30  31
ENDBRANCH  28  30
ENDBRANCH  18  26
ENDBRANCH   1  18
TORSDOF 10
