MODEL 1
REMARK VINA RESULT:      -6.8      0.000      0.000
REMARK  1 active torsions:
REMARK  status: ('A' for Active; 'I' for Inactive)
REMARK    1  A    between atoms: C_14  and  O_20 
ROOT
HETATM    1  C   UNK N   1      35.429  12.290  13.672  0.00  0.00     0.154 C 
HETATM    2  C   UNK N   1      36.778  13.075  13.635  0.00  0.00     0.305 C 
HETATM    3  C   UNK N   1      35.109  11.906  15.144  0.00  0.00     0.037 C 
HETATM    4  C   UNK N   1      35.559  11.034  12.734  0.00  0.00     0.033 C 
HETATM    5  O   UNK N   1      34.370  13.110  13.179  0.00  0.00    -0.221 OA
HETATM    6  O   UNK N   1      37.075  13.484  12.316  0.00  0.00    -0.320 OA
HETATM    7  O   UNK N   1      36.705  14.220  14.460  0.00  0.00    -0.328 OA
HETATM    8  C   UNK N   1      35.296  13.122  16.070  0.00  0.00     0.044 C 
HETATM    9  C   UNK N   1      35.943  10.685  15.545  0.00  0.00     0.009 C 
HETATM   10  C   UNK N   1      34.862   9.815  13.362  0.00  0.00    -0.011 C 
HETATM   11  C   UNK N   1      34.988  11.343  11.336  0.00  0.00     0.014 C 
HETATM   12  O   UNK N   1      34.822  14.151  12.461  0.00  0.00    -0.200 OA
HETATM   13  C   UNK N   1      35.893  13.780  11.588  0.00  0.00     0.196 C 
HETATM   14  C   UNK N   1      36.638  13.817  15.810  0.00  0.00     0.266 C 
HETATM   15  C   UNK N   1      35.119  12.749  17.537  0.00  0.00     0.015 C 
HETATM   16  C   UNK N   1      35.545   9.458  14.698  0.00  0.00     0.005 C 
HETATM   17  C   UNK N   1      34.899   8.592  12.458  0.00  0.00     0.010 C 
HETATM   18  C   UNK N   1      35.546  12.603  10.655  0.00  0.00     0.071 C 
HETATM   19  C   UNK N   1      36.193  14.974  10.707  0.00  0.00     0.082 C 
ENDROOT
BRANCH  14  20
HETATM   20  O   UNK N   1      36.742  14.953  16.620  0.00  0.00    -0.366 OA
HETATM   21  C   UNK N   1      37.476  15.874  15.872  0.00  0.00     0.204 C 
ENDBRANCH  14  20
TORSDOF 1
ENDMDL
MODEL 2
REMARK VINA RESULT:      -6.8     21.235     23.979
REMARK  1 active torsions:
REMARK  status: ('A' for Active; 'I' for Inactive)
REMARK    1  A    between atoms: C_14  and  O_20 
ROOT
HETATM    1  C   UNK N   1      27.571  25.160  -4.691  0.00  0.00     0.154 C 
HETATM    2  C   UNK N   1      28.351  26.469  -5.030  0.00  0.00     0.305 C 
HETATM    3  C   UNK N   1      28.592  24.033  -4.369  0.00  0.00     0.037 C 
HETATM    4  C   UNK N   1      26.641  24.805  -5.909  0.00  0.00     0.033 C 
HETATM    5  O   UNK N   1      26.746  25.363  -3.543  0.00  0.00    -0.221 OA
HETATM    6  O   UNK N   1      27.451  27.530  -5.278  0.00  0.00    -0.320 OA
HETATM    7  O   UNK N   1      29.195  26.832  -3.956  0.00  0.00    -0.328 OA
HETATM    8  C   UNK N   1      29.665  24.542  -3.390  0.00  0.00     0.044 C 
HETATM    9  C   UNK N   1      29.160  23.472  -5.677  0.00  0.00     0.009 C 
HETATM   10  C   UNK N   1      26.623  23.286  -6.152  0.00  0.00    -0.011 C 
HETATM   11  C   UNK N   1      25.218  25.350  -5.680  0.00  0.00     0.014 C 
HETATM   12  O   UNK N   1      26.535  26.665  -3.290  0.00  0.00    -0.200 OA
HETATM   13  C   UNK N   1      26.282  27.413  -4.483  0.00  0.00     0.196 C 
HETATM   14  C   UNK N   1      30.239  25.890  -3.846  0.00  0.00     0.266 C 
HETATM   15  C   UNK N   1      30.757  23.505  -3.155  0.00  0.00     0.015 C 
HETATM   16  C   UNK N   1      28.044  22.800  -6.505  0.00  0.00     0.005 C 
HETATM   17  C   UNK N   1      25.681  22.887  -7.278  0.00  0.00     0.010 C 
HETATM   18  C   UNK N   1      25.128  26.844  -5.332  0.00  0.00     0.071 C 
HETATM   19  C   UNK N   1      25.880  28.811  -4.064  0.00  0.00     0.082 C 
ENDROOT
BRANCH  14  20
HETATM   20  O   UNK N   1      31.158  26.352  -2.899  0.00  0.00    -0.366 OA
HETATM   21  C   UNK N   1      31.126  27.743  -3.001  0.00  0.00     0.204 C 
ENDBRANCH  14  20
TORSDOF 1
ENDMDL
MODEL 3
REMARK VINA RESULT:      -6.5      1.507      4.322
REMARK  1 active torsions:
REMARK  status: ('A' for Active; 'I' for Inactive)
REMARK    1  A    between atoms: C_14  and  O_20 
ROOT
HETATM    1  C   UNK N   1      35.931  11.563  14.459  0.00  0.00     0.154 C 
HETATM    2  C   UNK N   1      34.719  12.547  14.423  0.00  0.00     0.305 C 
HETATM    3  C   UNK N   1      36.392  11.276  13.002  0.00  0.00     0.037 C 
HETATM    4  C   UNK N   1      35.491  10.260  15.223  0.00  0.00     0.033 C 
HETATM    5  O   UNK N   1      37.021  12.152  15.169  0.00  0.00    -0.221 OA
HETATM    6  O   UNK N   1      34.306  12.871  15.735  0.00  0.00    -0.320 OA
HETATM    7  O   UNK N   1      35.072  13.740  13.751  0.00  0.00    -0.328 OA
HETATM    8  C   UNK N   1      36.514  12.589  12.208  0.00  0.00     0.044 C 
HETATM    9  C   UNK N   1      35.452  10.249  12.364  0.00  0.00     0.009 C 
HETATM   10  C   UNK N   1      36.083   9.011  14.547  0.00  0.00    -0.011 C 
HETATM   11  C   UNK N   1      35.903  10.338  16.706  0.00  0.00     0.014 C 
HETATM   12  O   UNK N   1      36.631  13.179  15.942  0.00  0.00    -0.200 OA
HETATM   13  C   UNK N   1      35.407  12.902  16.630  0.00  0.00     0.196 C 
HETATM   14  C   UNK N   1      35.265  13.462  12.382  0.00  0.00     0.266 C 
HETATM   15  C   UNK N   1      36.836  12.335  10.740  0.00  0.00     0.015 C 
HETATM   16  C   UNK N   1      35.546   8.898  13.105  0.00  0.00     0.005 C 
HETATM   17  C   UNK N   1      35.742   7.730  15.292  0.00  0.00     0.010 C 
HETATM   18  C   UNK N   1      35.446  11.600  17.455  0.00  0.00     0.071 C 
HETATM   19  C   UNK N   1      35.166  14.038  17.600  0.00  0.00     0.082 C 
ENDROOT
BRANCH  14  20
HETATM   20  O   UNK N   1      35.441  14.672  11.702  0.00  0.00    -0.366 OA
HETATM   21  C   UNK N   1      34.242  14.894  11.026  0.00  0.00     0.204 C 
ENDBRANCH  14  20
TORSDOF 1
ENDMDL
MODEL 4
REMARK VINA RESULT:      -6.5      1.050      1.518
REMARK  1 active torsions:
REMARK  status: ('A' for Active; 'I' for Inactive)
REMARK    1  A    between atoms: C_14  and  O_20 
ROOT
HETATM    1  C   UNK N   1      35.451  11.685  14.953  0.00  0.00     0.154 C 
HETATM    2  C   UNK N   1      36.636  12.646  14.626  0.00  0.00     0.305 C 
HETATM    3  C   UNK N   1      35.246  11.640  16.493  0.00  0.00     0.037 C 
HETATM    4  C   UNK N   1      35.775  10.271  14.344  0.00  0.00     0.033 C 
HETATM    5  O   UNK N   1      34.248  12.165  14.351  0.00  0.00    -0.221 OA
HETATM    6  O   UNK N   1      36.818  12.750  13.229  0.00  0.00    -0.320 OA
HETATM    7  O   UNK N   1      36.384  13.936  15.147  0.00  0.00    -0.328 OA
HETATM    8  C   UNK N   1      35.240  13.066  17.076  0.00  0.00     0.044 C 
HETATM    9  C   UNK N   1      36.296  10.718  17.120  0.00  0.00     0.009 C 
HETATM   10  C   UNK N   1      35.325   9.154  15.301  0.00  0.00    -0.011 C 
HETATM   11  C   UNK N   1      35.119  10.115  12.959  0.00  0.00     0.014 C 
HETATM   12  O   UNK N   1      34.487  13.050  13.369  0.00  0.00    -0.200 OA
HETATM   13  C   UNK N   1      35.581  12.651  12.539  0.00  0.00     0.196 C 
HETATM   14  C   UNK N   1      36.428  13.884  16.557  0.00  0.00     0.266 C 
HETATM   15  C   UNK N   1      35.174  13.055  18.599  0.00  0.00     0.015 C 
HETATM   16  C   UNK N   1      36.099   9.266  16.632  0.00  0.00     0.005 C 
HETATM   17  C   UNK N   1      35.554   7.765  14.725  0.00  0.00     0.010 C 
HETATM   18  C   UNK N   1      35.424  11.235  11.951  0.00  0.00     0.071 C 
HETATM   19  C   UNK N   1      35.639  13.614  11.372  0.00  0.00     0.082 C 
ENDROOT
BRANCH  14  20
HETATM   20  O   UNK N   1      36.351  15.189  17.053  0.00  0.00    -0.366 OA
HETATM   21  C   UNK N   1      37.415  15.872  16.463  0.00  0.00     0.204 C 
ENDBRANCH  14  20
TORSDOF 1
ENDMDL
MODEL 5
REMARK VINA RESULT:      -6.4      6.024      8.979
REMARK  1 active torsions:
REMARK  status: ('A' for Active; 'I' for Inactive)
REMARK    1  A    between atoms: C_14  and  O_20 
ROOT
HETATM    1  C   UNK N   1      32.260  16.538   7.148  0.00  0.00     0.154 C 
HETATM    2  C   UNK N   1      32.766  17.772   7.958  0.00  0.00     0.305 C 
HETATM    3  C   UNK N   1      33.482  15.667   6.739  0.00  0.00     0.037 C 
HETATM    4  C   UNK N   1      31.445  17.057   5.908  0.00  0.00     0.033 C 
HETATM    5  O   UNK N   1      31.390  15.743   7.955  0.00  0.00    -0.221 OA
HETATM    6  O   UNK N   1      31.677  18.559   8.391  0.00  0.00    -0.320 OA
HETATM    7  O   UNK N   1      33.500  17.351   9.091  0.00  0.00    -0.328 OA
HETATM    8  C   UNK N   1      34.412  15.443   7.945  0.00  0.00     0.044 C 
HETATM    9  C   UNK N   1      34.176  16.300   5.529  0.00  0.00     0.009 C 
HETATM   10  C   UNK N   1      31.737  16.195   4.668  0.00  0.00    -0.011 C 
HETATM   11  C   UNK N   1      29.937  17.083   6.224  0.00  0.00     0.014 C 
HETATM   12  O   UNK N   1      30.917  16.420   9.014  0.00  0.00    -0.200 OA
HETATM   13  C   UNK N   1      30.540  17.758   8.674  0.00  0.00     0.196 C 
HETATM   14  C   UNK N   1      34.710  16.762   8.669  0.00  0.00     0.266 C 
HETATM   15  C   UNK N   1      35.685  14.706   7.550  0.00  0.00     0.015 C 
HETATM   16  C   UNK N   1      33.234  16.299   4.305  0.00  0.00     0.005 C 
HETATM   17  C   UNK N   1      30.917  16.617   3.458  0.00  0.00     0.010 C 
HETATM   18  C   UNK N   1      29.541  17.837   7.503  0.00  0.00     0.071 C 
HETATM   19  C   UNK N   1      29.857  18.357   9.885  0.00  0.00     0.082 C 
ENDROOT
BRANCH  14  20
HETATM   20  O   UNK N   1      35.500  16.510   9.795  0.00  0.00    -0.366 OA
HETATM   21  C   UNK N   1      34.649  15.892  10.712  0.00  0.00     0.204 C 
ENDBRANCH  14  20
TORSDOF 1
ENDMDL
MODEL 6
REMARK VINA RESULT:      -6.3      7.997     10.129
REMARK  1 active torsions:
REMARK  status: ('A' for Active; 'I' for Inactive)
REMARK    1  A    between atoms: C_14  and  O_20 
ROOT
HETATM    1  C   UNK N   1      31.174  16.830   6.313  0.00  0.00     0.154 C 
HETATM    2  C   UNK N   1      31.774  15.393   6.215  0.00  0.00     0.305 C 
HETATM    3  C   UNK N   1      32.079  17.694   7.237  0.00  0.00     0.037 C 
HETATM    4  C   UNK N   1      29.698  16.719   6.845  0.00  0.00     0.033 C 
HETATM    5  O   UNK N   1      31.140  17.437   5.021  0.00  0.00    -0.221 OA
HETATM    6  O   UNK N   1      31.003  14.594   5.341  0.00  0.00    -0.320 OA
HETATM    7  O   UNK N   1      33.101  15.443   5.732  0.00  0.00    -0.328 OA
HETATM    8  C   UNK N   1      33.560  17.522   6.852  0.00  0.00     0.044 C 
HETATM    9  C   UNK N   1      31.775  17.361   8.701  0.00  0.00     0.009 C 
HETATM   10  C   UNK N   1      29.390  17.859   7.830  0.00  0.00    -0.011 C 
HETATM   11  C   UNK N   1      28.700  16.713   5.671  0.00  0.00     0.014 C 
HETATM   12  O   UNK N   1      31.241  16.536   4.031  0.00  0.00    -0.200 OA
HETATM   13  C   UNK N   1      30.456  15.367   4.283  0.00  0.00     0.196 C 
HETATM   14  C   UNK N   1      33.928  16.040   6.707  0.00  0.00     0.266 C 
HETATM   15  C   UNK N   1      34.485  18.249   7.821  0.00  0.00     0.015 C 
HETATM   16  C   UNK N   1      30.325  17.755   9.054  0.00  0.00     0.005 C 
HETATM   17  C   UNK N   1      27.950  17.834   8.319  0.00  0.00     0.010 C 
HETATM   18  C   UNK N   1      28.973  15.672   4.573  0.00  0.00     0.071 C 
HETATM   19  C   UNK N   1      30.499  14.513   3.034  0.00  0.00     0.082 C 
ENDROOT
BRANCH  14  20
HETATM   20  O   UNK N   1      35.259  15.927   6.291  0.00  0.00    -0.366 OA
HETATM   21  C   UNK N   1      35.651  14.638   6.655  0.00  0.00     0.204 C 
ENDBRANCH  14  20
TORSDOF 1
ENDMDL
MODEL 7
REMARK VINA RESULT:      -6.2      7.764     10.992
REMARK  1 active torsions:
REMARK  status: ('A' for Active; 'I' for Inactive)
REMARK    1  A    between atoms: C_14  and  O_20 
ROOT
HETATM    1  C   UNK N   1      30.990  16.677   6.317  0.00  0.00     0.154 C 
HETATM    2  C   UNK N   1      32.265  17.435   5.831  0.00  0.00     0.305 C 
HETATM    3  C   UNK N   1      29.957  16.630   5.156  0.00  0.00     0.037 C 
HETATM    4  C   UNK N   1      30.433  17.408   7.593  0.00  0.00     0.033 C 
HETATM    5  O   UNK N   1      31.323  15.337   6.679  0.00  0.00    -0.221 OA
HETATM    6  O   UNK N   1      33.247  17.451   6.847  0.00  0.00    -0.320 OA
HETATM    7  O   UNK N   1      32.807  16.805   4.687  0.00  0.00    -0.328 OA
HETATM    8  C   UNK N   1      30.639  16.191   3.847  0.00  0.00     0.044 C 
HETATM    9  C   UNK N   1      29.238  17.980   5.059  0.00  0.00     0.009 C 
HETATM   10  C   UNK N   1      28.895  17.446   7.568  0.00  0.00    -0.011 C 
HETATM   11  C   UNK N   1      30.952  16.729   8.875  0.00  0.00     0.014 C 
HETATM   12  O   UNK N   1      32.639  15.178   6.894  0.00  0.00    -0.200 OA
HETATM   13  C   UNK N   1      33.201  16.268   7.629  0.00  0.00     0.196 C 
HETATM   14  C   UNK N   1      31.928  16.984   3.598  0.00  0.00     0.266 C 
HETATM   15  C   UNK N   1      29.685  16.261   2.660  0.00  0.00     0.015 C 
HETATM   16  C   UNK N   1      28.416  18.245   6.338  0.00  0.00     0.005 C 
HETATM   17  C   UNK N   1      28.307  18.083   8.818  0.00  0.00     0.010 C 
HETATM   18  C   UNK N   1      32.476  16.551   8.960  0.00  0.00     0.071 C 
HETATM   19  C   UNK N   1      34.629  15.897   7.969  0.00  0.00     0.082 C 
ENDROOT
BRANCH  14  20
HETATM   20  O   UNK N   1      32.552  16.510   2.440  0.00  0.00    -0.366 OA
HETATM   21  C   UNK N   1      33.413  15.501   2.870  0.00  0.00     0.204 C 
ENDBRANCH  14  20
TORSDOF 1
ENDMDL
MODEL 8
REMARK VINA RESULT:      -6.2     10.627     13.145
REMARK  1 active torsions:
REMARK  status: ('A' for Active; 'I' for Inactive)
REMARK    1  A    between atoms: C_14  and  O_20 
ROOT
HETATM    1  C   UNK N   1      28.316  17.241   4.585  0.00  0.00     0.154 C 
HETATM    2  C   UNK N   1      28.001  17.556   6.081  0.00  0.00     0.305 C 
HETATM    3  C   UNK N   1      27.442  18.155   3.682  0.00  0.00     0.037 C 
HETATM    4  C   UNK N   1      28.053  15.710   4.333  0.00  0.00     0.033 C 
HETATM    5  O   UNK N   1      29.690  17.511   4.305  0.00  0.00    -0.221 OA
HETATM    6  O   UNK N   1      28.817  16.777   6.932  0.00  0.00    -0.320 OA
HETATM    7  O   UNK N   1      28.233  18.922   6.357  0.00  0.00    -0.328 OA
HETATM    8  C   UNK N   1      27.504  19.614   4.171  0.00  0.00     0.044 C 
HETATM    9  C   UNK N   1      26.021  17.586   3.604  0.00  0.00     0.009 C 
HETATM   10  C   UNK N   1      27.399  15.493   2.958  0.00  0.00    -0.011 C 
HETATM   11  C   UNK N   1      29.363  14.909   4.460  0.00  0.00     0.014 C 
HETATM   12  O   UNK N   1      30.435  17.575   5.420  0.00  0.00    -0.200 OA
HETATM   13  C   UNK N   1      30.094  16.549   6.357  0.00  0.00     0.196 C 
HETATM   14  C   UNK N   1      27.268  19.702   5.684  0.00  0.00     0.266 C 
HETATM   15  C   UNK N   1      26.555  20.514   3.390  0.00  0.00     0.015 C 
HETATM   16  C   UNK N   1      26.031  16.205   2.915  0.00  0.00     0.005 C 
HETATM   17  C   UNK N   1      27.189  14.021   2.638  0.00  0.00     0.010 C 
HETATM   18  C   UNK N   1      30.151  15.128   5.761  0.00  0.00     0.071 C 
HETATM   19  C   UNK N   1      31.109  16.603   7.478  0.00  0.00     0.082 C 
ENDROOT
BRANCH  14  20
HETATM   20  O   UNK N   1      27.400  21.031   6.102  0.00  0.00    -0.366 OA
HETATM   21  C   UNK N   1      26.405  21.216   7.062  0.00  0.00     0.204 C 
ENDBRANCH  14  20
TORSDOF 1
ENDMDL
MODEL 9
REMARK VINA RESULT:      -6.2     16.559     17.809
REMARK  1 active torsions:
REMARK  status: ('A' for Active; 'I' for Inactive)
REMARK    1  A    between atoms: C_14  and  O_20 
ROOT
HETATM    1  C   UNK N   1      42.271  22.520   1.136  0.00  0.00     0.154 C 
HETATM    2  C   UNK N   1      43.089  23.663   0.457  0.00  0.00     0.305 C 
HETATM    3  C   UNK N   1      43.199  21.747   2.115  0.00  0.00     0.037 C 
HETATM    4  C   UNK N   1      41.677  21.597   0.010  0.00  0.00     0.033 C 
HETATM    5  O   UNK N   1      41.186  23.070   1.883  0.00  0.00    -0.221 OA
HETATM    6  O   UNK N   1      42.262  24.420  -0.402  0.00  0.00    -0.320 OA
HETATM    7  O   UNK N   1      43.637  24.525   1.435  0.00  0.00    -0.328 OA
HETATM    8  C   UNK N   1      43.990  22.731   2.997  0.00  0.00     0.044 C 
HETATM    9  C   UNK N   1      44.081  20.778   1.322  0.00  0.00     0.009 C 
HETATM   10  C   UNK N   1      41.743  20.119   0.430  0.00  0.00    -0.011 C 
HETATM   11  C   UNK N   1      40.232  22.016  -0.326  0.00  0.00     0.014 C 
HETATM   12  O   UNK N   1      40.898  24.329   1.514  0.00  0.00    -0.200 OA
HETATM   13  C   UNK N   1      40.935  24.497   0.094  0.00  0.00     0.196 C 
HETATM   14  C   UNK N   1      44.636  23.837   2.154  0.00  0.00     0.266 C 
HETATM   15  C   UNK N   1      45.006  22.013   3.877  0.00  0.00     0.015 C 
HETATM   16  C   UNK N   1      43.215  19.702   0.632  0.00  0.00     0.005 C 
HETATM   17  C   UNK N   1      41.115  19.192  -0.599  0.00  0.00     0.010 C 
HETATM   18  C   UNK N   1      40.035  23.502  -0.666  0.00  0.00     0.071 C 
HETATM   19  C   UNK N   1      40.420  25.887  -0.212  0.00  0.00     0.082 C 
ENDROOT
BRANCH  14  20
HETATM   20  O   UNK N   1      45.286  24.747   2.995  0.00  0.00    -0.366 OA
HETATM   21  C   UNK N   1      45.946  25.631   2.141  0.00  0.00     0.204 C 
ENDBRANCH  14  20
TORSDOF 1
ENDMDL
