REMARK  14 active torsions:
REMARK  status: ('A' for Active; 'I' for Inactive)
REMARK    1  A    between atoms: C_1  and  C_2 
REMARK    2  A    between atoms: C_7  and  O_13 
REMARK    3  A    between atoms: C_20  and  N_23 
REMARK    4  A    between atoms: C_21  and  N_25 
REMARK       I    between atoms: N_23  and  C_28 
REMARK       I    between atoms: N_25  and  C_31 
REMARK    5  A    between atoms: C_26  and  C_33 
REMARK       I    between atoms: C_28  and  N_34 
REMARK    6  A    between atoms: C_31  and  C_37 
REMARK    7  A    between atoms: C_33  and  O_40 
REMARK    8  A    between atoms: C_36  and  C_41 
REMARK    9  A    between atoms: C_37  and  C_42 
REMARK   10  A    between atoms: C_42  and  C_45 
REMARK   11  A    between atoms: C_42  and  N_46 
REMARK   12  A    between atoms: C_45  and  C_47 
REMARK   13  A    between atoms: C_47  and  C_48 
REMARK   14  A    between atoms: C_48  and  N_49 
ROOT
HETATM    1  C   UNK N   1       7.391  -5.988   0.084  0.00  0.00     0.199 C 
HETATM    2  O   UNK N   1       7.447  -6.196  -1.295  0.00  0.00    -0.398 OA
HETATM    3  H   UNK N   1       7.341  -6.302  -2.254  0.00  0.00     0.209 HD
ENDROOT
BRANCH   1   4
HETATM    4  C   UNK N   1       7.604  -7.290   0.849  0.00  0.00     0.200 C 
HETATM    5  N   UNK N   1       6.576  -8.259   0.526  0.00  0.00    -0.344 N 
HETATM    6  C   UNK N   1       6.468  -9.416   1.221  0.00  0.00     0.242 C 
HETATM    7  H   UNK N   1       5.947  -8.073  -0.209  0.00  0.00     0.163 HD
HETATM    8  C   UNK N   1       5.469 -10.466   0.832  0.00  0.00     0.194 C 
HETATM    9  O   UNK N   1       7.242  -9.656   2.139  0.00  0.00    -0.271 OA
HETATM   10  C   UNK N   1       5.523 -11.845   1.457  0.00  0.00     0.157 C 
HETATM   11  N   UNK N   1       6.720 -12.587   1.105  0.00  0.00    -0.357 N 
HETATM   12  C   UNK N   1       7.670 -12.280   0.168  0.00  0.00     0.242 C 
HETATM   13  H   UNK N   1       6.868 -13.423   1.605  0.00  0.00     0.162 HD
HETATM   14  C   UNK N   1       8.859 -13.170   0.033  0.00  0.00     0.200 C 
HETATM   15  O   UNK N   1       7.582 -11.292  -0.545  0.00  0.00    -0.271 OA
HETATM   16  N   UNK N   1       9.433 -13.384   1.351  0.00  0.00    -0.340 N 
HETATM   17  C   UNK N   1      10.660 -12.950   1.740  0.00  0.00     0.270 C 
HETATM   18  H   UNK N   1       8.893 -13.878   2.009  0.00  0.00     0.163 HD
HETATM   19  C   UNK N   1      11.456 -11.998   0.928  0.00  0.00     0.118 C 
HETATM   20  O   UNK N   1      11.156 -13.428   2.749  0.00  0.00    -0.266 OA
HETATM   21  N   UNK N   1      10.904 -10.723   0.557  0.00  0.00    -0.320 N 
HETATM   22  C   UNK N   1      12.737 -12.316   0.678  0.00  0.00     0.128 C 
HETATM   23  C   UNK N   1      11.047 -10.146  -0.667  0.00  0.00     0.247 C 
HETATM   24  H   UNK N   1      10.387 -10.233   1.237  0.00  0.00     0.169 HD
HETATM   25  C   UNK N   1      10.792  -8.671  -0.872  0.00  0.00     0.200 C 
HETATM   26  O   UNK N   1      11.443 -10.806  -1.616  0.00  0.00    -0.271 OA
HETATM   27  N   UNK N   1       9.437  -8.224  -0.576  0.00  0.00    -0.344 N 
HETATM   28  C   UNK N   1       8.997  -7.853   0.661  0.00  0.00     0.243 C 
HETATM   29  H   UNK N   1       8.795  -8.186  -1.321  0.00  0.00     0.163 HD
HETATM   30  O   UNK N   1       9.728  -7.947   1.635  0.00  0.00    -0.271 OA
BRANCH   8  31
HETATM   31  N   UNK N   1       4.345 -10.189  -0.028  0.00  0.00    -0.346 N 
HETATM   32  C   UNK N   1       4.053 -10.973  -1.100  0.00  0.00     0.220 C 
HETATM   33  O   UNK N   1       4.796 -11.886  -1.431  0.00  0.00    -0.274 OA
HETATM   34  H   UNK N   1       3.775  -9.411   0.165  0.00  0.00     0.163 HD
BRANCH  32  35
HETATM   35  C   UNK N   1       2.758 -10.790  -1.830  0.00  0.00     0.127 C 
BRANCH  35  36
HETATM   36  C   UNK N   1       1.548 -11.059  -0.926  0.00  0.00     0.082 C 
BRANCH  36  37
HETATM   37  C   UNK N   1       1.389  -9.950   0.113  0.00  0.00     0.026 C 
BRANCH  37  38
HETATM   38  C   UNK N   1       0.194 -10.163   1.034  0.00  0.00     0.021 C 
BRANCH  38  39
HETATM   39  C   UNK N   1      -1.121  -9.958   0.301  0.00  0.00     0.111 C 
BRANCH  39  40
HETATM   40  N   UNK N   1      -1.515 -11.190  -0.360  0.00  0.00    -0.430 N 
HETATM   41  H   UNK N   1      -2.403 -11.382  -0.824  0.00  0.00     0.149 HD
HETATM   42  H   UNK N   1      -0.829 -11.945  -0.360  0.00  0.00     0.149 HD
ENDBRANCH  39  40
ENDBRANCH  38  39
ENDBRANCH  37  38
ENDBRANCH  36  37
BRANCH  36  43
HETATM   43  N   UNK N   1       1.667 -12.361  -0.280  0.00  0.00    -0.426 N 
HETATM   44  H   UNK N   1       0.919 -12.888   0.171  0.00  0.00     0.150 HD
HETATM   45  H   UNK N   1       2.593 -12.788  -0.280  0.00  0.00     0.150 HD
ENDBRANCH  36  43
ENDBRANCH  35  36
ENDBRANCH  32  35
ENDBRANCH   8  31
BRANCH  14  46
HETATM   46  C   UNK N   1       8.470 -14.516  -0.617  0.00  0.00     0.135 C 
HETATM   47  C   UNK N   1       7.255 -15.186   0.041  0.00  0.00     0.082 C 
HETATM   48  C   UNK N   1       6.926 -16.461  -0.724  0.00  0.00     0.237 C 
HETATM   49  N   UNK N   1       8.061 -17.355  -0.698  0.00  0.00    -0.200 N 
HETATM   50  C   UNK N   1       9.385 -16.838  -0.685  0.00  0.00     0.669 C 
HETATM   51  H   UNK N   1       7.916 -18.329  -0.689  0.00  0.00     0.180 HD
HETATM   52  N   UNK N   1       9.594 -15.433  -0.602  0.00  0.00    -0.220 N 
HETATM   53  N   UNK N   1      10.381 -17.639  -0.613  0.00  0.00    -0.235 N 
HETATM   54  H   UNK N   1      10.511 -15.080  -0.535  0.00  0.00     0.178 HD
HETATM   55  H   UNK N   1      10.231 -18.610  -0.558  0.00  0.00     0.174 HD
ATOM     56  HN  UNK N   1      11.332 -17.270  -0.613  1.00  0.00     0.174 HD
BRANCH  48  57
HETATM   57  O   UNK N   1       5.817 -17.082  -0.154  0.00  0.00    -0.376 OA
HETATM   58  H   UNK N   1       5.056 -16.629   0.242  0.00  0.00     0.212 HD
ENDBRANCH  48  57
ENDBRANCH  14  46
BRANCH  25  59
HETATM   59  C   UNK N   1      11.852  -7.788  -0.209  0.00  0.00     0.199 C 
BRANCH  59  60
HETATM   60  O   UNK N   1      13.127  -8.130  -0.662  0.00  0.00    -0.398 OA
HETATM   61  H   UNK N   1      13.365  -9.016  -0.976  0.00  0.00     0.209 HD
ENDBRANCH  59  60
ENDBRANCH  25  59
BRANCH  22  62
HETATM   62  N   UNK N   1      13.623 -11.458  -0.018  0.00  0.00    -0.317 N 
HETATM   63  C   UNK N   1      14.768 -11.924  -0.570  0.00  0.00     0.317 C 
HETATM   64  N   UNK N   1      15.587 -11.081  -1.221  0.00  0.00    -0.352 N 
HETATM   65  O   UNK N   1      15.054 -13.113  -0.500  0.00  0.00    -0.247 OA
HETATM   66  H   UNK N   1      16.422 -11.292  -1.698  0.00  0.00     0.160 HD
HETATM   67  H   UNK N   1      15.319 -10.134  -1.221  0.00  0.00     0.160 HD
HETATM   68  H   UNK N   1      13.401 -10.503  -0.103  0.00  0.00     0.170 HD
ENDBRANCH  22  62
ENDBRANCH   1   4
TORSDOF 14
