MODEL 1
REMARK VINA RESULT:      -5.9      0.000      0.000
REMARK  4 active torsions:
REMARK  status: ('A' for Active; 'I' for Inactive)
REMARK    1  A    between atoms: N_1  and  C_2 
REMARK    2  A    between atoms: C_5  and  S_8 
REMARK    3  A    between atoms: S_8  and  N_11 
REMARK    4  A    between atoms: N_11  and  C_12 
ROOT
HETATM    1  S   UNK N   1      35.753  12.224  14.496  0.00  0.00     0.264 S 
HETATM    2  O   UNK N   1      35.724  10.743  14.091  0.00  0.00    -0.200 OA
HETATM    3  O   UNK N   1      34.447  12.696  13.838  0.00  0.00    -0.200 OA
ENDROOT
BRANCH   1   4
HETATM    4  C   UNK N   1      35.631  12.448  16.271  0.00  0.00     0.080 A 
HETATM    5  C   UNK N   1      35.481  13.736  16.798  0.00  0.00     0.027 A 
HETATM    6  C   UNK N   1      35.274  13.914  18.169  0.00  0.00     0.030 A 
HETATM    7  C   UNK N   1      35.205  12.803  19.015  0.00  0.00     0.025 A 
HETATM    8  C   UNK N   1      35.358  11.515  18.491  0.00  0.00     0.030 A 
HETATM    9  C   UNK N   1      35.566  11.336  17.119  0.00  0.00     0.027 A 
BRANCH   7  10
HETATM   10  N   UNK N   1      34.971  12.982  20.392  0.00  0.00    -0.399 N 
HETATM   11  H   UNK N   1      34.361  12.383  20.878  0.00  0.00     0.156 HD
HETATM   12  H   UNK N   1      35.422  13.714  20.873  0.00  0.00     0.156 HD
ENDBRANCH   7  10
ENDBRANCH   1   4
BRANCH   1  13
HETATM   13  N   UNK N   1      36.989  12.987  13.503  0.00  0.00    -0.260 N 
HETATM   14  H   UNK N   1      37.934  12.799  13.703  0.00  0.00     0.181 HD
BRANCH  13  15
HETATM   15  C   UNK N   1      36.686  13.861  12.428  0.00  0.00     0.158 A 
HETATM   16  N   UNK N   1      36.200  15.110  12.604  0.00  0.00    -0.345 N 
HETATM   17  C   UNK N   1      35.932  15.738  11.403  0.00  0.00     0.097 A 
ATOM     18  HN  UNK N   1      36.049  15.539  13.516  1.00  0.00     0.167 HD
HETATM   19  C   UNK N   1      36.217  14.980  10.250  0.00  0.00     0.070 A 
HETATM   20  S   UNK N   1      36.793  13.532  10.818  0.00  0.00    -0.064 SA
ENDBRANCH  13  15
ENDBRANCH   1  13
TORSDOF 4
ENDMDL
MODEL 2
REMARK VINA RESULT:      -5.9      6.472      9.578
REMARK  4 active torsions:
REMARK  status: ('A' for Active; 'I' for Inactive)
REMARK    1  A    between atoms: N_1  and  C_2 
REMARK    2  A    between atoms: C_5  and  S_8 
REMARK    3  A    between atoms: S_8  and  N_11 
REMARK    4  A    between atoms: N_11  and  C_12 
ROOT
HETATM    1  S   UNK N   1      33.726  17.468   7.242  0.00  0.00     0.264 S 
HETATM    2  O   UNK N   1      34.101  17.711   5.773  0.00  0.00    -0.200 OA
HETATM    3  O   UNK N   1      34.429  18.670   7.891  0.00  0.00    -0.200 OA
ENDROOT
BRANCH   1   4
HETATM    4  C   UNK N   1      31.961  17.596   7.525  0.00  0.00     0.080 A 
HETATM    5  C   UNK N   1      31.070  17.002   6.624  0.00  0.00     0.027 A 
HETATM    6  C   UNK N   1      29.697  16.998   6.892  0.00  0.00     0.030 A 
HETATM    7  C   UNK N   1      29.214  17.581   8.066  0.00  0.00     0.025 A 
HETATM    8  C   UNK N   1      30.102  18.178   8.967  0.00  0.00     0.030 A 
HETATM    9  C   UNK N   1      31.476  18.182   8.700  0.00  0.00     0.027 A 
BRANCH   7  10
HETATM   10  N   UNK N   1      27.834  17.556   8.348  0.00  0.00    -0.399 N 
HETATM   11  H   UNK N   1      27.182  17.356   7.638  0.00  0.00     0.156 HD
HETATM   12  H   UNK N   1      27.519  17.739   9.263  0.00  0.00     0.156 HD
ENDBRANCH   7  10
ENDBRANCH   1   4
BRANCH   1  13
HETATM   13  N   UNK N   1      34.701  16.106   7.784  0.00  0.00    -0.260 N 
HETATM   14  H   UNK N   1      34.978  15.433   7.121  0.00  0.00     0.181 HD
BRANCH  13  15
HETATM   15  C   UNK N   1      35.104  15.932   9.132  0.00  0.00     0.158 A 
HETATM   16  N   UNK N   1      34.785  16.801  10.119  0.00  0.00    -0.345 N 
HETATM   17  C   UNK N   1      35.344  16.440  11.330  0.00  0.00     0.097 A 
ATOM     18  HN  UNK N   1      34.201  17.625   9.984  1.00  0.00     0.167 HD
HETATM   19  C   UNK N   1      36.115  15.261  11.311  0.00  0.00     0.070 A 
HETATM   20  S   UNK N   1      36.055  14.733   9.740  0.00  0.00    -0.064 SA
ENDBRANCH  13  15
ENDBRANCH   1  13
TORSDOF 4
ENDMDL
MODEL 3
REMARK VINA RESULT:      -5.8      1.568      2.140
REMARK  4 active torsions:
REMARK  status: ('A' for Active; 'I' for Inactive)
REMARK    1  A    between atoms: N_1  and  C_2 
REMARK    2  A    between atoms: C_5  and  S_8 
REMARK    3  A    between atoms: S_8  and  N_11 
REMARK    4  A    between atoms: N_11  and  C_12 
ROOT
HETATM    1  S   UNK N   1      36.147  13.201  14.701  0.00  0.00     0.264 S 
HETATM    2  O   UNK N   1      34.901  13.475  13.846  0.00  0.00    -0.200 OA
HETATM    3  O   UNK N   1      36.752  14.613  14.734  0.00  0.00    -0.200 OA
ENDROOT
BRANCH   1   4
HETATM    4  C   UNK N   1      35.730  12.701  16.372  0.00  0.00     0.080 A 
HETATM    5  C   UNK N   1      35.862  11.359  16.746  0.00  0.00     0.027 A 
HETATM    6  C   UNK N   1      35.648  10.976  18.074  0.00  0.00     0.030 A 
HETATM    7  C   UNK N   1      35.311  11.936  19.032  0.00  0.00     0.025 A 
HETATM    8  C   UNK N   1      35.176  13.278  18.660  0.00  0.00     0.030 A 
HETATM    9  C   UNK N   1      35.390  13.662  17.331  0.00  0.00     0.027 A 
BRANCH   7  10
HETATM   10  N   UNK N   1      35.120  11.553  20.374  0.00  0.00    -0.399 N 
HETATM   11  H   UNK N   1      34.246  11.673  20.809  0.00  0.00     0.156 HD
HETATM   12  H   UNK N   1      35.868  11.162  20.881  0.00  0.00     0.156 HD
ENDBRANCH   7  10
ENDBRANCH   1   4
BRANCH   1  13
HETATM   13  N   UNK N   1      37.270  12.318  13.674  0.00  0.00    -0.260 N 
HETATM   14  H   UNK N   1      37.862  11.650  14.091  0.00  0.00     0.181 HD
BRANCH  13  15
HETATM   15  C   UNK N   1      37.363  12.524  12.275  0.00  0.00     0.158 A 
HETATM   16  N   UNK N   1      37.319  13.749  11.702  0.00  0.00    -0.345 N 
HETATM   17  C   UNK N   1      37.371  13.680  10.323  0.00  0.00     0.097 A 
ATOM     18  HN  UNK N   1      37.255  14.620  12.226  1.00  0.00     0.167 HD
HETATM   19  C   UNK N   1      37.466  12.380   9.787  0.00  0.00     0.070 A 
HETATM   20  S   UNK N   1      37.471  11.371  11.103  0.00  0.00    -0.064 SA
ENDBRANCH  13  15
ENDBRANCH   1  13
TORSDOF 4
ENDMDL
MODEL 4
REMARK VINA RESULT:      -5.6      6.656     10.953
REMARK  4 active torsions:
REMARK  status: ('A' for Active; 'I' for Inactive)
REMARK    1  A    between atoms: N_1  and  C_2 
REMARK    2  A    between atoms: C_5  and  S_8 
REMARK    3  A    between atoms: S_8  and  N_11 
REMARK    4  A    between atoms: N_11  and  C_12 
ROOT
HETATM    1  S   UNK N   1      33.452  17.276   7.335  0.00  0.00     0.264 S 
HETATM    2  O   UNK N   1      34.583  18.305   7.195  0.00  0.00    -0.200 OA
HETATM    3  O   UNK N   1      32.693  17.888   8.522  0.00  0.00    -0.200 OA
ENDROOT
BRANCH   1   4
HETATM    4  C   UNK N   1      32.377  17.246   5.901  0.00  0.00     0.080 A 
HETATM    5  C   UNK N   1      32.927  17.359   4.619  0.00  0.00     0.027 A 
HETATM    6  C   UNK N   1      32.114  17.225   3.491  0.00  0.00     0.030 A 
HETATM    7  C   UNK N   1      30.748  16.967   3.641  0.00  0.00     0.025 A 
HETATM    8  C   UNK N   1      30.195  16.857   4.921  0.00  0.00     0.030 A 
HETATM    9  C   UNK N   1      31.009  16.991   6.051  0.00  0.00     0.027 A 
BRANCH   7  10
HETATM   10  N   UNK N   1      29.934  16.807   2.503  0.00  0.00    -0.399 N 
HETATM   11  H   UNK N   1      30.312  16.897   1.600  0.00  0.00     0.156 HD
HETATM   12  H   UNK N   1      28.976  16.604   2.613  0.00  0.00     0.156 HD
ENDBRANCH   7  10
ENDBRANCH   1   4
BRANCH   1  13
HETATM   13  N   UNK N   1      34.177  15.834   8.037  0.00  0.00    -0.260 N 
HETATM   14  H   UNK N   1      34.135  14.993   7.528  0.00  0.00     0.181 HD
BRANCH  13  15
HETATM   15  C   UNK N   1      34.817  15.828   9.302  0.00  0.00     0.158 A 
HETATM   16  N   UNK N   1      34.728  16.852  10.182  0.00  0.00    -0.345 N 
HETATM   17  C   UNK N   1      35.487  16.630  11.315  0.00  0.00     0.097 A 
ATOM     18  HN  UNK N   1      34.167  17.688  10.027  1.00  0.00     0.167 HD
HETATM   19  C   UNK N   1      36.186  15.407  11.343  0.00  0.00     0.070 A 
HETATM   20  S   UNK N   1      35.809  14.663   9.910  0.00  0.00    -0.064 SA
ENDBRANCH  13  15
ENDBRANCH   1  13
TORSDOF 4
ENDMDL
MODEL 5
REMARK VINA RESULT:      -5.5      6.572      8.449
REMARK  4 active torsions:
REMARK  status: ('A' for Active; 'I' for Inactive)
REMARK    1  A    between atoms: N_1  and  C_2 
REMARK    2  A    between atoms: C_5  and  S_8 
REMARK    3  A    between atoms: S_8  and  N_11 
REMARK    4  A    between atoms: N_11  and  C_12 
ROOT
HETATM    1  S   UNK N   1      33.799  17.313   7.975  0.00  0.00     0.264 S 
HETATM    2  O   UNK N   1      33.694  18.775   8.431  0.00  0.00    -0.200 OA
HETATM    3  O   UNK N   1      34.455  17.517   6.601  0.00  0.00    -0.200 OA
ENDROOT
BRANCH   1   4
HETATM    4  C   UNK N   1      34.900  16.352   9.014  0.00  0.00     0.080 A 
HETATM    5  C   UNK N   1      35.207  16.804  10.303  0.00  0.00     0.027 A 
HETATM    6  C   UNK N   1      35.972  16.011  11.162  0.00  0.00     0.030 A 
HETATM    7  C   UNK N   1      36.425  14.758  10.738  0.00  0.00     0.025 A 
HETATM    8  C   UNK N   1      36.122  14.305   9.450  0.00  0.00     0.030 A 
HETATM    9  C   UNK N   1      35.356  15.099   8.589  0.00  0.00     0.027 A 
BRANCH   7  10
HETATM   10  N   UNK N   1      37.175  13.949  11.613  0.00  0.00    -0.399 N 
HETATM   11  H   UNK N   1      36.870  13.042  11.842  0.00  0.00     0.156 HD
HETATM   12  H   UNK N   1      38.013  14.294  12.000  0.00  0.00     0.156 HD
ENDBRANCH   7  10
ENDBRANCH   1   4
BRANCH   1  13
HETATM   13  N   UNK N   1      32.167  16.804   7.558  0.00  0.00    -0.260 N 
HETATM   14  H   UNK N   1      32.055  16.041   6.945  0.00  0.00     0.181 HD
BRANCH  13  15
HETATM   15  C   UNK N   1      31.006  17.444   8.060  0.00  0.00     0.158 A 
HETATM   16  N   UNK N   1      30.953  18.033   9.277  0.00  0.00    -0.345 N 
HETATM   17  C   UNK N   1      29.696  18.533   9.558  0.00  0.00     0.097 A 
ATOM     18  HN  UNK N   1      31.748  18.101   9.911  1.00  0.00     0.167 HD
HETATM   19  C   UNK N   1      28.732  18.345   8.547  0.00  0.00     0.070 A 
HETATM   20  S   UNK N   1      29.530  17.540   7.336  0.00  0.00    -0.064 SA
ENDBRANCH  13  15
ENDBRANCH   1  13
TORSDOF 4
ENDMDL
MODEL 6
REMARK VINA RESULT:      -5.4      4.013      8.601
REMARK  4 active torsions:
REMARK  status: ('A' for Active; 'I' for Inactive)
REMARK    1  A    between atoms: N_1  and  C_2 
REMARK    2  A    between atoms: C_5  and  S_8 
REMARK    3  A    between atoms: S_8  and  N_11 
REMARK    4  A    between atoms: N_11  and  C_12 
ROOT
HETATM    1  S   UNK N   1      35.304  15.881  10.267  0.00  0.00     0.264 S 
HETATM    2  O   UNK N   1      36.810  15.587  10.193  0.00  0.00    -0.200 OA
HETATM    3  O   UNK N   1      35.327  17.115  11.181  0.00  0.00    -0.200 OA
ENDROOT
BRANCH   1   4
HETATM    4  C   UNK N   1      34.620  16.339   8.675  0.00  0.00     0.080 A 
HETATM    5  C   UNK N   1      33.944  17.557   8.537  0.00  0.00     0.027 A 
HETATM    6  C   UNK N   1      33.504  17.977   7.278  0.00  0.00     0.030 A 
HETATM    7  C   UNK N   1      33.748  17.184   6.153  0.00  0.00     0.025 A 
HETATM    8  C   UNK N   1      34.421  15.966   6.289  0.00  0.00     0.030 A 
HETATM    9  C   UNK N   1      34.861  15.545   7.549  0.00  0.00     0.027 A 
BRANCH   7  10
HETATM   10  N   UNK N   1      33.326  17.620   4.881  0.00  0.00    -0.399 N 
HETATM   11  H   UNK N   1      32.403  17.463   4.579  0.00  0.00     0.156 HD
HETATM   12  H   UNK N   1      33.961  18.085   4.289  0.00  0.00     0.156 HD
ENDBRANCH   7  10
ENDBRANCH   1   4
BRANCH   1  13
HETATM   13  N   UNK N   1      34.608  14.640  11.304  0.00  0.00    -0.260 N 
HETATM   14  H   UNK N   1      33.717  14.287  11.079  0.00  0.00     0.181 HD
BRANCH  13  15
HETATM   15  C   UNK N   1      35.269  14.129  12.448  0.00  0.00     0.158 A 
HETATM   16  N   UNK N   1      36.159  14.845  13.173  0.00  0.00    -0.345 N 
HETATM   17  C   UNK N   1      36.708  14.105  14.202  0.00  0.00     0.097 A 
ATOM     18  HN  UNK N   1      36.396  15.818  12.981  1.00  0.00     0.167 HD
HETATM   19  C   UNK N   1      36.243  12.779  14.305  0.00  0.00     0.070 A 
HETATM   20  S   UNK N   1      35.153  12.606  13.067  0.00  0.00    -0.064 SA
ENDBRANCH  13  15
ENDBRANCH   1  13
TORSDOF 4
ENDMDL
MODEL 7
REMARK VINA RESULT:      -5.4     17.061     19.269
REMARK  4 active torsions:
REMARK  status: ('A' for Active; 'I' for Inactive)
REMARK    1  A    between atoms: N_1  and  C_2 
REMARK    2  A    between atoms: C_5  and  S_8 
REMARK    3  A    between atoms: S_8  and  N_11 
REMARK    4  A    between atoms: N_11  and  C_12 
ROOT
HETATM    1  S   UNK N   1      21.679  19.981   3.051  0.00  0.00     0.264 S 
HETATM    2  O   UNK N   1      20.939  19.873   4.392  0.00  0.00    -0.200 OA
HETATM    3  O   UNK N   1      21.431  21.465   2.738  0.00  0.00    -0.200 OA
ENDROOT
BRANCH   1   4
HETATM    4  C   UNK N   1      23.442  19.702   3.221  0.00  0.00     0.080 A 
HETATM    5  C   UNK N   1      24.345  20.628   2.685  0.00  0.00     0.027 A 
HETATM    6  C   UNK N   1      25.717  20.480   2.907  0.00  0.00     0.030 A 
HETATM    7  C   UNK N   1      26.189  19.412   3.675  0.00  0.00     0.025 A 
HETATM    8  C   UNK N   1      25.289  18.484   4.210  0.00  0.00     0.030 A 
HETATM    9  C   UNK N   1      23.915  18.631   3.987  0.00  0.00     0.027 A 
BRANCH   7  10
HETATM   10  N   UNK N   1      27.570  19.278   3.919  0.00  0.00    -0.399 N 
HETATM   11  H   UNK N   1      28.083  20.019   4.314  0.00  0.00     0.156 HD
HETATM   12  H   UNK N   1      28.026  18.435   3.692  0.00  0.00     0.156 HD
ENDBRANCH   7  10
ENDBRANCH   1   4
BRANCH   1  13
HETATM   13  N   UNK N   1      20.675  19.159   1.862  0.00  0.00    -0.260 N 
HETATM   14  H   UNK N   1      20.298  19.686   1.121  0.00  0.00     0.181 HD
BRANCH  13  15
HETATM   15  C   UNK N   1      20.383  17.773   1.923  0.00  0.00     0.158 A 
HETATM   16  N   UNK N   1      20.449  17.052   3.065  0.00  0.00    -0.345 N 
HETATM   17  C   UNK N   1      20.176  15.714   2.852  0.00  0.00     0.097 A 
ATOM     18  HN  UNK N   1      20.674  17.449   3.977  1.00  0.00     0.167 HD
HETATM   19  C   UNK N   1      19.880  15.364   1.520  0.00  0.00     0.070 A 
HETATM   20  S   UNK N   1      19.987  16.783   0.668  0.00  0.00    -0.064 SA
ENDBRANCH  13  15
ENDBRANCH   1  13
TORSDOF 4
ENDMDL
MODEL 8
REMARK VINA RESULT:      -5.4     10.037     12.387
REMARK  4 active torsions:
REMARK  status: ('A' for Active; 'I' for Inactive)
REMARK    1  A    between atoms: N_1  and  C_2 
REMARK    2  A    between atoms: C_5  and  S_8 
REMARK    3  A    between atoms: S_8  and  N_11 
REMARK    4  A    between atoms: N_11  and  C_12 
ROOT
HETATM    1  S   UNK N   1      28.270  17.849   7.918  0.00  0.00     0.264 S 
HETATM    2  O   UNK N   1      27.437  16.696   7.338  0.00  0.00    -0.200 OA
HETATM    3  O   UNK N   1      27.934  17.686   9.408  0.00  0.00    -0.200 OA
ENDROOT
BRANCH   1   4
HETATM    4  C   UNK N   1      30.030  17.604   7.681  0.00  0.00     0.080 A 
HETATM    5  C   UNK N   1      30.504  17.120   6.457  0.00  0.00     0.027 A 
HETATM    6  C   UNK N   1      31.879  17.031   6.221  0.00  0.00     0.030 A 
HETATM    7  C   UNK N   1      32.783  17.436   7.206  0.00  0.00     0.025 A 
HETATM    8  C   UNK N   1      32.313  17.918   8.432  0.00  0.00     0.030 A 
HETATM    9  C   UNK N   1      30.936  18.007   8.668  0.00  0.00     0.027 A 
BRANCH   7  10
HETATM   10  N   UNK N   1      34.169  17.370   6.959  0.00  0.00    -0.399 N 
HETATM   11  H   UNK N   1      34.667  16.537   7.119  0.00  0.00     0.156 HD
HETATM   12  H   UNK N   1      34.643  18.165   6.622  0.00  0.00     0.156 HD
ENDBRANCH   7  10
ENDBRANCH   1   4
BRANCH   1  13
HETATM   13  N   UNK N   1      27.428  19.334   7.488  0.00  0.00    -0.260 N 
HETATM   14  H   UNK N   1      27.213  19.975   8.203  0.00  0.00     0.181 HD
BRANCH  13  15
HETATM   15  C   UNK N   1      27.045  19.648   6.160  0.00  0.00     0.158 A 
HETATM   16  N   UNK N   1      25.763  19.871   5.791  0.00  0.00    -0.345 N 
HETATM   17  C   UNK N   1      25.644  20.099   4.434  0.00  0.00     0.097 A 
ATOM     18  HN  UNK N   1      24.976  19.870   6.440  1.00  0.00     0.167 HD
HETATM   19  C   UNK N   1      26.851  20.065   3.709  0.00  0.00     0.070 A 
HETATM   20  S   UNK N   1      28.022  19.736   4.836  0.00  0.00    -0.064 SA
ENDBRANCH  13  15
ENDBRANCH   1  13
TORSDOF 4
ENDMDL
MODEL 9
REMARK VINA RESULT:      -5.3     16.364     17.619
REMARK  4 active torsions:
REMARK  status: ('A' for Active; 'I' for Inactive)
REMARK    1  A    between atoms: N_1  and  C_2 
REMARK    2  A    between atoms: C_5  and  S_8 
REMARK    3  A    between atoms: S_8  and  N_11 
REMARK    4  A    between atoms: N_11  and  C_12 
ROOT
HETATM    1  S   UNK N   1      21.385  17.394   6.274  0.00  0.00     0.264 S 
HETATM    2  O   UNK N   1      21.009  18.712   6.968  0.00  0.00    -0.200 OA
HETATM    3  O   UNK N   1      22.811  17.740   5.819  0.00  0.00    -0.200 OA
ENDROOT
BRANCH   1   4
HETATM    4  C   UNK N   1      21.450  16.016   7.419  0.00  0.00     0.080 A 
HETATM    5  C   UNK N   1      20.514  15.931   8.456  0.00  0.00     0.027 A 
HETATM    6  C   UNK N   1      20.485  14.806   9.285  0.00  0.00     0.030 A 
HETATM    7  C   UNK N   1      21.385  13.759   9.073  0.00  0.00     0.025 A 
HETATM    8  C   UNK N   1      22.324  13.842   8.039  0.00  0.00     0.030 A 
HETATM    9  C   UNK N   1      22.354  14.968   7.208  0.00  0.00     0.027 A 
BRANCH   7  10
HETATM   10  N   UNK N   1      21.339  12.615   9.894  0.00  0.00    -0.399 N 
HETATM   11  H   UNK N   1      20.704  11.888   9.703  0.00  0.00     0.156 HD
HETATM   12  H   UNK N   1      21.947  12.542  10.665  0.00  0.00     0.156 HD
ENDBRANCH   7  10
ENDBRANCH   1   4
BRANCH   1  13
HETATM   13  N   UNK N   1      20.489  17.358   4.760  0.00  0.00    -0.260 N 
HETATM   14  H   UNK N   1      19.847  16.627   4.611  0.00  0.00     0.181 HD
BRANCH  13  15
HETATM   15  C   UNK N   1      20.650  18.333   3.743  0.00  0.00     0.158 A 
HETATM   16  N   UNK N   1      21.180  19.557   3.967  0.00  0.00    -0.345 N 
HETATM   17  C   UNK N   1      21.175  20.342   2.830  0.00  0.00     0.097 A 
ATOM     18  HN  UNK N   1      21.540  19.864   4.870  1.00  0.00     0.167 HD
HETATM   19  C   UNK N   1      20.640  19.732   1.679  0.00  0.00     0.070 A 
HETATM   20  S   UNK N   1      20.188  18.213   2.167  0.00  0.00    -0.064 SA
ENDBRANCH  13  15
ENDBRANCH   1  13
TORSDOF 4
ENDMDL
