MODEL 1
REMARK VINA RESULT:      -5.5      0.000      0.000
REMARK  7 active torsions:
REMARK  status: ('A' for Active; 'I' for Inactive)
REMARK    1  A    between atoms: C_1  and  O_2 
REMARK    2  A    between atoms: C_1  and  C_5 
REMARK    3  A    between atoms: C_4  and  C_3 
REMARK    4  A    between atoms: C_3  and  C_10 
REMARK    5  A    between atoms: C_5  and  C_4 
REMARK    6  A    between atoms: C_5  and  N_6 
REMARK       I    between atoms: N_6  and  C_8 
REMARK       I    between atoms: N_9  and  C_8 
REMARK    7  A    between atoms: C_10  and  O_13 
ROOT
HETATM    1  C   UNK N   1      33.228  17.537   8.653  0.00  0.00     0.184 C 
ENDROOT
BRANCH   1   2
HETATM    2  C   UNK N   1      34.283  18.212   7.822  0.00  0.00     0.163 C 
HETATM    3  O   UNK N   1      34.453  17.883   6.659  0.00  0.00    -0.648 OA
BRANCH   2   4
HETATM    4  O   UNK N   1      35.048  19.185   8.356  0.00  0.00    -0.775 OA
HETATM    5  H   UNK N   1      35.968  19.207   8.181  0.00  0.00     0.167 HD
ENDBRANCH   2   4
ENDBRANCH   1   2
BRANCH   1   6
HETATM    6  C   UNK N   1      31.784  18.039   8.453  0.00  0.00     0.046 C 
BRANCH   6   7
HETATM    7  C   UNK N   1      30.643  17.096   8.742  0.00  0.00     0.112 C 
BRANCH   7   8
HETATM    8  C   UNK N   1      29.559  17.712   9.561  0.00  0.00     0.139 C 
HETATM    9  O   UNK N   1      28.440  17.231   9.521  0.00  0.00    -0.650 OA
BRANCH   8  10
HETATM   10  O   UNK N   1      29.800  18.785  10.338  0.00  0.00    -0.776 OA
HETATM   11  H   UNK N   1      30.098  18.668  11.219  0.00  0.00     0.167 HD
ENDBRANCH   8  10
ENDBRANCH   7   8
ENDBRANCH   6   7
ENDBRANCH   1   6
BRANCH   1  12
HETATM   12  N   UNK N   1      33.735  16.488   9.543  0.00  0.00    -0.329 N 
HETATM   13  C   UNK N   1      34.818  16.405  10.364  0.00  0.00     0.314 C 
HETATM   14  N   UNK N   1      35.017  15.279  11.070  0.00  0.00    -0.352 N 
HETATM   15  O   UNK N   1      35.613  17.318  10.480  0.00  0.00    -0.248 OA
HETATM   16  H   UNK N   1      35.795  15.204  11.668  0.00  0.00     0.160 HD
HETATM   17  H   UNK N   1      34.384  14.529  10.990  0.00  0.00     0.160 HD
HETATM   18  H   UNK N   1      33.178  15.677   9.548  0.00  0.00     0.165 HD
ENDBRANCH   1  12
TORSDOF 7
ENDMDL
MODEL 2
REMARK VINA RESULT:      -5.5      2.314      2.695
REMARK  7 active torsions:
REMARK  status: ('A' for Active; 'I' for Inactive)
REMARK    1  A    between atoms: C_1  and  O_2 
REMARK    2  A    between atoms: C_1  and  C_5 
REMARK    3  A    between atoms: C_4  and  C_3 
REMARK    4  A    between atoms: C_3  and  C_10 
REMARK    5  A    between atoms: C_5  and  C_4 
REMARK    6  A    between atoms: C_5  and  N_6 
REMARK       I    between atoms: N_6  and  C_8 
REMARK       I    between atoms: N_9  and  C_8 
REMARK    7  A    between atoms: C_10  and  O_13 
ROOT
HETATM    1  C   UNK N   1      33.893  17.427   9.016  0.00  0.00     0.184 C 
ENDROOT
BRANCH   1   2
HETATM    2  C   UNK N   1      34.614  18.324   8.049  0.00  0.00     0.163 C 
HETATM    3  O   UNK N   1      35.288  19.255   8.460  0.00  0.00    -0.648 OA
BRANCH   2   4
HETATM    4  O   UNK N   1      34.522  18.106   6.722  0.00  0.00    -0.775 OA
HETATM    5  H   UNK N   1      33.854  18.533   6.223  0.00  0.00     0.167 HD
ENDBRANCH   2   4
ENDBRANCH   1   2
BRANCH   1   6
HETATM    6  C   UNK N   1      32.426  17.101   8.671  0.00  0.00     0.046 C 
BRANCH   6   7
HETATM    7  C   UNK N   1      32.095  15.730   8.137  0.00  0.00     0.112 C 
BRANCH   7   8
HETATM    8  C   UNK N   1      32.264  14.646   9.146  0.00  0.00     0.139 C 
HETATM    9  O   UNK N   1      32.406  13.497   8.765  0.00  0.00    -0.650 OA
BRANCH   8  10
HETATM   10  O   UNK N   1      32.261  14.917  10.466  0.00  0.00    -0.776 OA
HETATM   11  H   UNK N   1      32.692  15.685  10.787  0.00  0.00     0.167 HD
ENDBRANCH   8  10
ENDBRANCH   7   8
ENDBRANCH   6   7
ENDBRANCH   1   6
BRANCH   1  12
HETATM   12  N   UNK N   1      34.701  16.990  10.158  0.00  0.00    -0.329 N 
HETATM   13  C   UNK N   1      35.582  15.969  10.339  0.00  0.00     0.314 C 
HETATM   14  N   UNK N   1      36.179  15.827  11.535  0.00  0.00    -0.352 N 
HETATM   15  O   UNK N   1      35.849  15.178   9.454  0.00  0.00    -0.248 OA
HETATM   16  H   UNK N   1      36.819  15.093  11.683  0.00  0.00     0.160 HD
HETATM   17  H   UNK N   1      35.977  16.456  12.265  0.00  0.00     0.160 HD
HETATM   18  H   UNK N   1      34.582  17.551  10.958  0.00  0.00     0.165 HD
ENDBRANCH   1  12
TORSDOF 7
ENDMDL
MODEL 3
REMARK VINA RESULT:      -5.3      2.028      2.177
REMARK  7 active torsions:
REMARK  status: ('A' for Active; 'I' for Inactive)
REMARK    1  A    between atoms: C_1  and  O_2 
REMARK    2  A    between atoms: C_1  and  C_5 
REMARK    3  A    between atoms: C_4  and  C_3 
REMARK    4  A    between atoms: C_3  and  C_10 
REMARK    5  A    between atoms: C_5  and  C_4 
REMARK    6  A    between atoms: C_5  and  N_6 
REMARK       I    between atoms: N_6  and  C_8 
REMARK       I    between atoms: N_9  and  C_8 
REMARK    7  A    between atoms: C_10  and  O_13 
ROOT
HETATM    1  C   UNK N   1      33.336  17.514   8.679  0.00  0.00     0.184 C 
ENDROOT
BRANCH   1   2
HETATM    2  C   UNK N   1      34.376  18.209   7.845  0.00  0.00     0.163 C 
HETATM    3  O   UNK N   1      34.491  17.943   6.659  0.00  0.00    -0.648 OA
BRANCH   2   4
HETATM    4  O   UNK N   1      35.188  19.129   8.401  0.00  0.00    -0.775 OA
HETATM    5  H   UNK N   1      34.847  19.966   8.650  0.00  0.00     0.167 HD
ENDBRANCH   2   4
ENDBRANCH   1   2
BRANCH   1   6
HETATM    6  C   UNK N   1      31.886  18.005   8.500  0.00  0.00     0.046 C 
BRANCH   6   7
HETATM    7  C   UNK N   1      30.856  17.042   7.966  0.00  0.00     0.112 C 
BRANCH   7   8
HETATM    8  C   UNK N   1      31.207  16.484   6.628  0.00  0.00     0.139 C 
HETATM    9  O   UNK N   1      31.055  15.292   6.425  0.00  0.00    -0.650 OA
BRANCH   8  10
HETATM   10  O   UNK N   1      31.687  17.274   5.648  0.00  0.00    -0.776 OA
HETATM   11  H   UNK N   1      32.549  17.633   5.716  0.00  0.00     0.167 HD
ENDBRANCH   8  10
ENDBRANCH   7   8
ENDBRANCH   6   7
ENDBRANCH   1   6
BRANCH   1  12
HETATM   12  N   UNK N   1      33.862  16.459   9.550  0.00  0.00    -0.329 N 
HETATM   13  C   UNK N   1      34.920  16.398  10.405  0.00  0.00     0.314 C 
HETATM   14  N   UNK N   1      35.148  15.257  11.080  0.00  0.00    -0.352 N 
HETATM   15  O   UNK N   1      35.667  17.341  10.580  0.00  0.00    -0.248 OA
HETATM   16  H   UNK N   1      35.909  15.197  11.702  0.00  0.00     0.160 HD
HETATM   17  H   UNK N   1      34.554  14.482  10.953  0.00  0.00     0.160 HD
HETATM   18  H   UNK N   1      33.344  15.624   9.508  0.00  0.00     0.165 HD
ENDBRANCH   1  12
TORSDOF 7
ENDMDL
MODEL 4
REMARK VINA RESULT:      -5.2     11.988     14.345
REMARK  7 active torsions:
REMARK  status: ('A' for Active; 'I' for Inactive)
REMARK    1  A    between atoms: C_1  and  O_2 
REMARK    2  A    between atoms: C_1  and  C_5 
REMARK    3  A    between atoms: C_4  and  C_3 
REMARK    4  A    between atoms: C_3  and  C_10 
REMARK    5  A    between atoms: C_5  and  C_4 
REMARK    6  A    between atoms: C_5  and  N_6 
REMARK       I    between atoms: N_6  and  C_8 
REMARK       I    between atoms: N_9  and  C_8 
REMARK    7  A    between atoms: C_10  and  O_13 
ROOT
HETATM    1  C   UNK N   1      20.367  18.884   2.056  0.00  0.00     0.184 C 
ENDROOT
BRANCH   1   2
HETATM    2  C   UNK N   1      20.855  20.096   1.313  0.00  0.00     0.163 C 
HETATM    3  O   UNK N   1      21.511  20.949   1.890  0.00  0.00    -0.648 OA
BRANCH   2   4
HETATM    4  O   UNK N   1      20.571  20.250   0.004  0.00  0.00    -0.775 OA
HETATM    5  H   UNK N   1      19.820  20.745  -0.257  0.00  0.00     0.167 HD
ENDBRANCH   2   4
ENDBRANCH   1   2
BRANCH   1   6
HETATM    6  C   UNK N   1      20.913  18.701   3.486  0.00  0.00     0.046 C 
BRANCH   6   7
HETATM    7  C   UNK N   1      22.123  17.824   3.692  0.00  0.00     0.112 C 
BRANCH   7   8
HETATM    8  C   UNK N   1      23.272  18.539   4.319  0.00  0.00     0.139 C 
HETATM    9  O   UNK N   1      23.811  19.445   3.708  0.00  0.00    -0.650 OA
BRANCH   8  10
HETATM   10  O   UNK N   1      23.718  18.198   5.544  0.00  0.00    -0.776 OA
HETATM   11  H   UNK N   1      24.032  18.860   6.128  0.00  0.00     0.167 HD
ENDBRANCH   8  10
ENDBRANCH   7   8
ENDBRANCH   6   7
ENDBRANCH   1   6
BRANCH   1  12
HETATM   12  N   UNK N   1      19.431  18.045   1.301  0.00  0.00    -0.329 N 
HETATM   13  C   UNK N   1      19.590  16.939   0.525  0.00  0.00     0.314 C 
HETATM   14  N   UNK N   1      18.508  16.383  -0.048  0.00  0.00    -0.352 N 
HETATM   15  O   UNK N   1      20.680  16.434   0.332  0.00  0.00    -0.248 OA
HETATM   16  H   UNK N   1      18.607  15.582  -0.612  0.00  0.00     0.160 HD
HETATM   17  H   UNK N   1      17.617  16.776   0.096  0.00  0.00     0.160 HD
HETATM   18  H   UNK N   1      18.496  18.344   1.370  0.00  0.00     0.165 HD
ENDBRANCH   1  12
TORSDOF 7
ENDMDL
MODEL 5
REMARK VINA RESULT:      -5.1     11.620     13.585
REMARK  7 active torsions:
REMARK  status: ('A' for Active; 'I' for Inactive)
REMARK    1  A    between atoms: C_1  and  O_2 
REMARK    2  A    between atoms: C_1  and  C_5 
REMARK    3  A    between atoms: C_4  and  C_3 
REMARK    4  A    between atoms: C_3  and  C_10 
REMARK    5  A    between atoms: C_5  and  C_4 
REMARK    6  A    between atoms: C_5  and  N_6 
REMARK       I    between atoms: N_6  and  C_8 
REMARK       I    between atoms: N_9  and  C_8 
REMARK    7  A    between atoms: C_10  and  O_13 
ROOT
HETATM    1  C   UNK N   1      21.230  19.275   2.829  0.00  0.00     0.184 C 
ENDROOT
BRANCH   1   2
HETATM    2  C   UNK N   1      21.442  20.541   2.048  0.00  0.00     0.163 C 
HETATM    3  O   UNK N   1      21.396  20.527   0.829  0.00  0.00    -0.648 OA
BRANCH   2   4
HETATM    4  O   UNK N   1      21.684  21.702   2.689  0.00  0.00    -0.775 OA
HETATM    5  H   UNK N   1      22.001  22.444   2.212  0.00  0.00     0.167 HD
ENDBRANCH   2   4
ENDBRANCH   1   2
BRANCH   1   6
HETATM    6  C   UNK N   1      19.880  18.563   2.612  0.00  0.00     0.046 C 
BRANCH   6   7
HETATM    7  C   UNK N   1      19.883  17.102   2.238  0.00  0.00     0.112 C 
BRANCH   7   8
HETATM    8  C   UNK N   1      20.359  16.850   0.847  0.00  0.00     0.139 C 
HETATM    9  O   UNK N   1      20.832  15.761   0.571  0.00  0.00    -0.650 OA
BRANCH   8  10
HETATM   10  O   UNK N   1      20.274  17.803  -0.101  0.00  0.00    -0.776 OA
HETATM   11  H   UNK N   1      20.166  18.700   0.145  0.00  0.00     0.167 HD
ENDBRANCH   8  10
ENDBRANCH   7   8
ENDBRANCH   6   7
ENDBRANCH   1   6
BRANCH   1  12
HETATM   12  N   UNK N   1      22.353  18.899   3.693  0.00  0.00    -0.329 N 
HETATM   13  C   UNK N   1      22.435  18.471   4.983  0.00  0.00     0.314 C 
HETATM   14  N   UNK N   1      23.643  18.200   5.505  0.00  0.00    -0.352 N 
HETATM   15  O   UNK N   1      21.449  18.325   5.680  0.00  0.00    -0.248 OA
HETATM   16  H   UNK N   1      23.719  17.890   6.437  0.00  0.00     0.160 HD
HETATM   17  H   UNK N   1      24.454  18.312   4.957  0.00  0.00     0.160 HD
HETATM   18  H   UNK N   1      23.229  18.972   3.249  0.00  0.00     0.165 HD
ENDBRANCH   1  12
TORSDOF 7
ENDMDL
MODEL 6
REMARK VINA RESULT:      -5.1      2.077      4.606
REMARK  7 active torsions:
REMARK  status: ('A' for Active; 'I' for Inactive)
REMARK    1  A    between atoms: C_1  and  O_2 
REMARK    2  A    between atoms: C_1  and  C_5 
REMARK    3  A    between atoms: C_4  and  C_3 
REMARK    4  A    between atoms: C_3  and  C_10 
REMARK    5  A    between atoms: C_5  and  C_4 
REMARK    6  A    between atoms: C_5  and  N_6 
REMARK       I    between atoms: N_6  and  C_8 
REMARK       I    between atoms: N_9  and  C_8 
REMARK    7  A    between atoms: C_10  and  O_13 
ROOT
HETATM    1  C   UNK N   1      33.495  17.155   8.567  0.00  0.00     0.184 C 
ENDROOT
BRANCH   1   2
HETATM    2  C   UNK N   1      34.298  18.137   7.761  0.00  0.00     0.163 C 
HETATM    3  O   UNK N   1      34.299  18.077   6.542  0.00  0.00    -0.648 OA
BRANCH   2   4
HETATM    4  O   UNK N   1      35.023  19.090   8.380  0.00  0.00    -0.775 OA
HETATM    5  H   UNK N   1      35.706  19.534   7.917  0.00  0.00     0.167 HD
ENDBRANCH   2   4
ENDBRANCH   1   2
BRANCH   1   6
HETATM    6  C   UNK N   1      34.204  15.835   8.931  0.00  0.00     0.046 C 
BRANCH   6   7
HETATM    7  C   UNK N   1      34.329  15.458  10.386  0.00  0.00     0.112 C 
BRANCH   7   8
HETATM    8  C   UNK N   1      35.484  16.108  11.069  0.00  0.00     0.139 C 
HETATM    9  O   UNK N   1      35.976  15.569  12.045  0.00  0.00    -0.650 OA
BRANCH   8  10
HETATM   10  O   UNK N   1      35.989  17.275  10.624  0.00  0.00    -0.776 OA
HETATM   11  H   UNK N   1      35.875  18.057  11.127  0.00  0.00     0.167 HD
ENDBRANCH   8  10
ENDBRANCH   7   8
ENDBRANCH   6   7
ENDBRANCH   1   6
BRANCH   1  12
HETATM   12  N   UNK N   1      32.137  17.603   8.890  0.00  0.00    -0.329 N 
HETATM   13  C   UNK N   1      30.965  17.599   8.199  0.00  0.00     0.314 C 
HETATM   14  N   UNK N   1      29.860  18.093   8.784  0.00  0.00    -0.352 N 
HETATM   15  O   UNK N   1      30.882  17.164   7.066  0.00  0.00    -0.248 OA
HETATM   16  H   UNK N   1      29.004  18.098   8.297  0.00  0.00     0.160 HD
HETATM   17  H   UNK N   1      29.906  18.451   9.701  0.00  0.00     0.160 HD
HETATM   18  H   UNK N   1      32.057  17.984   9.794  0.00  0.00     0.165 HD
ENDBRANCH   1  12
TORSDOF 7
ENDMDL
MODEL 7
REMARK VINA RESULT:      -5.0      2.810      5.204
REMARK  7 active torsions:
REMARK  status: ('A' for Active; 'I' for Inactive)
REMARK    1  A    between atoms: C_1  and  O_2 
REMARK    2  A    between atoms: C_1  and  C_5 
REMARK    3  A    between atoms: C_4  and  C_3 
REMARK    4  A    between atoms: C_3  and  C_10 
REMARK    5  A    between atoms: C_5  and  C_4 
REMARK    6  A    between atoms: C_5  and  N_6 
REMARK       I    between atoms: N_6  and  C_8 
REMARK       I    between atoms: N_9  and  C_8 
REMARK    7  A    between atoms: C_10  and  O_13 
ROOT
HETATM    1  C   UNK N   1      30.912  17.210   7.311  0.00  0.00     0.184 C 
ENDROOT
BRANCH   1   2
HETATM    2  C   UNK N   1      30.967  17.267   5.810  0.00  0.00     0.163 C 
HETATM    3  O   UNK N   1      32.040  17.370   5.238  0.00  0.00    -0.648 OA
BRANCH   2   4
HETATM    4  O   UNK N   1      29.832  17.204   5.086  0.00  0.00    -0.775 OA
HETATM    5  H   UNK N   1      29.871  17.013   4.170  0.00  0.00     0.167 HD
ENDBRANCH   2   4
ENDBRANCH   1   2
BRANCH   1   6
HETATM    6  C   UNK N   1      32.242  16.901   8.028  0.00  0.00     0.046 C 
BRANCH   6   7
HETATM    7  C   UNK N   1      33.031  18.045   8.614  0.00  0.00     0.112 C 
BRANCH   7   8
HETATM    8  C   UNK N   1      34.305  18.318   7.888  0.00  0.00     0.139 C 
HETATM    9  O   UNK N   1      35.146  19.027   8.412  0.00  0.00    -0.650 OA
BRANCH   8  10
HETATM   10  O   UNK N   1      34.536  17.796   6.668  0.00  0.00    -0.776 OA
HETATM   11  H   UNK N   1      35.351  17.371   6.487  0.00  0.00     0.167 HD
ENDBRANCH   8  10
ENDBRANCH   7   8
ENDBRANCH   6   7
ENDBRANCH   1   6
BRANCH   1  12
HETATM   12  N   UNK N   1      29.584  17.460   7.880  0.00  0.00    -0.329 N 
HETATM   13  C   UNK N   1      29.141  18.231   8.910  0.00  0.00     0.314 C 
HETATM   14  N   UNK N   1      27.827  18.250   9.193  0.00  0.00    -0.352 N 
HETATM   15  O   UNK N   1      29.895  18.906   9.584  0.00  0.00    -0.248 OA
HETATM   16  H   UNK N   1      27.491  18.803   9.935  0.00  0.00     0.160 HD
HETATM   17  H   UNK N   1      27.200  17.711   8.658  0.00  0.00     0.160 HD
HETATM   18  H   UNK N   1      28.865  16.968   7.422  0.00  0.00     0.165 HD
ENDBRANCH   1  12
TORSDOF 7
ENDMDL
MODEL 8
REMARK VINA RESULT:      -4.9      7.508      9.026
REMARK  7 active torsions:
REMARK  status: ('A' for Active; 'I' for Inactive)
REMARK    1  A    between atoms: C_1  and  O_2 
REMARK    2  A    between atoms: C_1  and  C_5 
REMARK    3  A    between atoms: C_4  and  C_3 
REMARK    4  A    between atoms: C_3  and  C_10 
REMARK    5  A    between atoms: C_5  and  C_4 
REMARK    6  A    between atoms: C_5  and  N_6 
REMARK       I    between atoms: N_6  and  C_8 
REMARK       I    between atoms: N_9  and  C_8 
REMARK    7  A    between atoms: C_10  and  O_13 
ROOT
HETATM    1  C   UNK N   1      26.348  19.150   4.826  0.00  0.00     0.184 C 
ENDROOT
BRANCH   1   2
HETATM    2  C   UNK N   1      27.802  18.892   4.543  0.00  0.00     0.163 C 
HETATM    3  O   UNK N   1      28.254  17.762   4.629  0.00  0.00    -0.648 OA
BRANCH   2   4
HETATM    4  O   UNK N   1      28.615  19.908   4.192  0.00  0.00    -0.775 OA
HETATM    5  H   UNK N   1      28.800  20.593   4.804  0.00  0.00     0.167 HD
ENDBRANCH   2   4
ENDBRANCH   1   2
BRANCH   1   6
HETATM    6  C   UNK N   1      25.362  18.777   3.701  0.00  0.00     0.046 C 
BRANCH   6   7
HETATM    7  C   UNK N   1      23.993  19.408   3.700  0.00  0.00     0.112 C 
BRANCH   7   8
HETATM    8  C   UNK N   1      23.906  20.632   2.852  0.00  0.00     0.139 C 
HETATM    9  O   UNK N   1      24.831  20.904   2.107  0.00  0.00    -0.650 OA
BRANCH   8  10
HETATM   10  O   UNK N   1      22.826  21.436   2.900  0.00  0.00    -0.776 OA
HETATM   11  H   UNK N   1      22.772  22.111   3.548  0.00  0.00     0.167 HD
ENDBRANCH   8  10
ENDBRANCH   7   8
ENDBRANCH   6   7
ENDBRANCH   1   6
BRANCH   1  12
HETATM   12  N   UNK N   1      26.080  19.725   6.147  0.00  0.00    -0.329 N 
HETATM   13  C   UNK N   1      26.403  20.911   6.730  0.00  0.00     0.314 C 
HETATM   14  N   UNK N   1      26.001  21.150   7.991  0.00  0.00    -0.352 N 
HETATM   15  O   UNK N   1      27.045  21.765   6.149  0.00  0.00    -0.248 OA
HETATM   16  H   UNK N   1      26.227  22.004   8.427  0.00  0.00     0.160 HD
HETATM   17  H   UNK N   1      25.480  20.472   8.479  0.00  0.00     0.160 HD
HETATM   18  H   UNK N   1      25.559  19.130   6.734  0.00  0.00     0.165 HD
ENDBRANCH   1  12
TORSDOF 7
ENDMDL
MODEL 9
REMARK VINA RESULT:      -4.8      2.275      3.135
REMARK  7 active torsions:
REMARK  status: ('A' for Active; 'I' for Inactive)
REMARK    1  A    between atoms: C_1  and  O_2 
REMARK    2  A    between atoms: C_1  and  C_5 
REMARK    3  A    between atoms: C_4  and  C_3 
REMARK    4  A    between atoms: C_3  and  C_10 
REMARK    5  A    between atoms: C_5  and  C_4 
REMARK    6  A    between atoms: C_5  and  N_6 
REMARK       I    between atoms: N_6  and  C_8 
REMARK       I    between atoms: N_9  and  C_8 
REMARK    7  A    between atoms: C_10  and  O_13 
ROOT
HETATM    1  C   UNK N   1      31.757  16.768   7.615  0.00  0.00     0.184 C 
ENDROOT
BRANCH   1   2
HETATM    2  C   UNK N   1      32.140  15.453   6.995  0.00  0.00     0.163 C 
HETATM    3  O   UNK N   1      31.903  14.407   7.577  0.00  0.00    -0.648 OA
BRANCH   2   4
HETATM    4  O   UNK N   1      32.749  15.421   5.793  0.00  0.00    -0.775 OA
HETATM    5  H   UNK N   1      32.750  14.631   5.289  0.00  0.00     0.167 HD
ENDBRANCH   2   4
ENDBRANCH   1   2
BRANCH   1   6
HETATM    6  C   UNK N   1      30.262  17.140   7.545  0.00  0.00     0.046 C 
BRANCH   6   7
HETATM    7  C   UNK N   1      29.745  18.233   8.446  0.00  0.00     0.112 C 
BRANCH   7   8
HETATM    8  C   UNK N   1      28.733  17.757   9.432  0.00  0.00     0.139 C 
HETATM    9  O   UNK N   1      29.075  16.976  10.302  0.00  0.00    -0.650 OA
BRANCH   8  10
HETATM   10  O   UNK N   1      27.455  18.177   9.374  0.00  0.00    -0.776 OA
HETATM   11  H   UNK N   1      27.138  18.610   8.606  0.00  0.00     0.167 HD
ENDBRANCH   8  10
ENDBRANCH   7   8
ENDBRANCH   6   7
ENDBRANCH   1   6
BRANCH   1  12
HETATM   12  N   UNK N   1      32.876  17.512   8.201  0.00  0.00    -0.329 N 
HETATM   13  C   UNK N   1      34.002  18.068   7.677  0.00  0.00     0.314 C 
HETATM   14  N   UNK N   1      34.859  18.702   8.496  0.00  0.00    -0.352 N 
HETATM   15  O   UNK N   1      34.259  18.013   6.489  0.00  0.00    -0.248 OA
HETATM   16  H   UNK N   1      35.678  19.110   8.132  0.00  0.00     0.160 HD
HETATM   17  H   UNK N   1      34.669  18.758   9.460  0.00  0.00     0.160 HD
HETATM   18  H   UNK N   1      32.796  17.633   9.175  0.00  0.00     0.165 HD
ENDBRANCH   1  12
TORSDOF 7
ENDMDL
