MODEL 1
REMARK VINA RESULT:      -9.7      0.000      0.000
REMARK  26 active torsions:
REMARK  status: ('A' for Active; 'I' for Inactive)
REMARK    1  A    between atoms: C_1  and  O_13 
REMARK    2  A    between atoms: C_4  and  O_74 
REMARK    3  A    between atoms: C_5  and  O_73 
REMARK    4  A    between atoms: C_7  and  O_65 
REMARK    5  A    between atoms: C_10  and  O_75 
REMARK    6  A    between atoms: C_11  and  O_13 
REMARK    7  A    between atoms: C_14  and  O_56 
REMARK    8  A    between atoms: C_17  and  O_69 
REMARK    9  A    between atoms: C_18  and  O_65 
REMARK   10  A    between atoms: C_20  and  O_48 
REMARK   11  A    between atoms: C_23  and  O_68 
REMARK   12  A    between atoms: C_24  and  O_66 
REMARK   13  A    between atoms: C_27  and  O_49 
REMARK   14  A    between atoms: C_28  and  O_48 
REMARK   15  A    between atoms: C_30  and  O_34 
REMARK   16  A    between atoms: C_33  and  O_34 
REMARK   17  A    between atoms: C_35  and  O_60 
REMARK   18  A    between atoms: C_39  and  O_59 
REMARK   19  A    between atoms: C_44  and  O_56 
REMARK   20  A    between atoms: C_45  and  C_52 
REMARK   21  A    between atoms: C_51  and  C_52 
REMARK   22  A    between atoms: C_51  and  C_55 
REMARK   23  A    between atoms: C_52  and  O_57 
REMARK   24  A    between atoms: C_54  and  O_53 
REMARK   25  A    between atoms: C_54  and  C_55 
REMARK   26  A    between atoms: C_55  and  O_61 
ROOT
HETATM    1  C   UNK N   1      26.728  18.795   4.725  0.00  0.00     0.006 A 
HETATM    2  C   UNK N   1      25.818  17.757   4.928  0.00  0.00     0.081 A 
HETATM    3  C   UNK N   1      28.071  18.537   4.585  0.00  0.00     0.088 A 
HETATM    4  C   UNK N   1      28.546  17.219   4.587  0.00  0.00     0.042 A 
HETATM    5  C   UNK N   1      27.658  16.144   4.877  0.00  0.00    -0.017 A 
HETATM    6  C   UNK N   1      26.281  16.422   5.052  0.00  0.00     0.050 A 
HETATM    7  C   UNK N   1      29.874  16.949   4.263  0.00  0.00     0.094 A 
HETATM    8  C   UNK N   1      30.365  15.655   4.273  0.00  0.00     0.053 A 
HETATM    9  C   UNK N   1      29.533  14.574   4.657  0.00  0.00    -0.040 A 
HETATM   10  C   UNK N   1      28.168  14.827   4.936  0.00  0.00     0.020 A 
HETATM   11  C   UNK N   1      31.768  15.411   3.907  0.00  0.00     0.192 C 
HETATM   12  C   UNK N   1      32.389  14.170   4.383  0.00  0.00     0.206 C 
HETATM   13  C   UNK N   1      31.497  12.957   4.068  0.00  0.00     0.063 C 
HETATM   14  C   UNK N   1      30.097  13.153   4.733  0.00  0.00     0.050 C 
HETATM   15  O   UNK N   1      32.432  16.219   3.271  0.00  0.00    -0.289 OA
HETATM   16  C   UNK N   1      26.249  20.201   4.608  0.00  0.00     0.054 C 
ENDROOT
BRANCH  12  17
HETATM   17  O   UNK N   1      33.371  14.220   5.431  0.00  0.00    -0.348 OA
BRANCH  17  18
HETATM   18  C   UNK N   1      32.990  14.996   6.574  0.00  0.00     0.263 C 
HETATM   19  O   UNK N   1      33.892  16.026   6.892  0.00  0.00    -0.354 OA
HETATM   20  C   UNK N   1      33.140  17.021   7.544  0.00  0.00     0.151 C 
HETATM   21  C   UNK N   1      32.426  16.452   8.778  0.00  0.00     0.176 C 
HETATM   22  C   UNK N   1      34.054  18.150   7.963  0.00  0.00     0.042 C 
HETATM   23  C   UNK N   1      32.990  15.059   9.136  0.00  0.00     0.160 C 
HETATM   24  C   UNK N   1      32.894  14.144   7.866  0.00  0.00     0.095 C 
BRANCH  21  25
HETATM   25  O   UNK N   1      31.063  16.342   8.502  0.00  0.00    -0.390 OA
HETATM   26  H   UNK N   1      30.093  16.343   8.528  0.00  0.00     0.210 HD
ENDBRANCH  21  25
BRANCH  23  27
HETATM   27  O   UNK N   1      34.341  15.130   9.582  0.00  0.00    -0.353 OA
BRANCH  27  28
HETATM   28  C   UNK N   1      35.120  13.976   9.256  0.00  0.00     0.263 C 
HETATM   29  O   UNK N   1      36.110  14.298   8.281  0.00  0.00    -0.354 OA
HETATM   30  C   UNK N   1      37.248  13.468   8.370  0.00  0.00     0.151 C 
HETATM   31  C   UNK N   1      37.982  13.651   9.703  0.00  0.00     0.176 C 
HETATM   32  C   UNK N   1      38.184  13.721   7.200  0.00  0.00     0.042 C 
HETATM   33  C   UNK N   1      36.984  13.552  10.862  0.00  0.00     0.160 C 
HETATM   34  C   UNK N   1      35.581  13.110  10.460  0.00  0.00     0.095 C 
BRANCH  31  35
HETATM   35  O   UNK N   1      38.659  14.872   9.771  0.00  0.00    -0.390 OA
HETATM   36  H   UNK N   1      39.170  15.191  10.531  0.00  0.00     0.210 HD
ENDBRANCH  31  35
BRANCH  33  37
HETATM   37  O   UNK N   1      37.449  13.001  12.076  0.00  0.00    -0.353 OA
BRANCH  37  38
HETATM   38  C   UNK N   1      36.452  12.936  13.081  0.00  0.00     0.263 C 
HETATM   39  O   UNK N   1      36.361  14.121  13.865  0.00  0.00    -0.354 OA
HETATM   40  C   UNK N   1      36.807  13.834  15.166  0.00  0.00     0.152 C 
HETATM   41  C   UNK N   1      35.836  12.904  15.912  0.00  0.00     0.180 C 
HETATM   42  C   UNK N   1      37.183  15.086  15.936  0.00  0.00     0.042 C 
HETATM   43  C   UNK N   1      35.249  11.833  14.965  0.00  0.00     0.087 C 
HETATM   44  C   UNK N   1      36.217  11.581  13.808  0.00  0.00     0.101 C 
HETATM   45  C   UNK N   1      35.012  10.553  15.739  0.00  0.00     0.049 C 
BRANCH  41  46
HETATM   46  O   UNK N   1      34.810  13.617  16.544  0.00  0.00    -0.390 OA
HETATM   47  H   UNK N   1      34.762  14.585  16.532  0.00  0.00     0.210 HD
ENDBRANCH  41  46
BRANCH  43  48
HETATM   48  O   UNK N   1      34.032  12.266  14.429  0.00  0.00    -0.387 OA
HETATM   49  H   UNK N   1      33.383  12.038  13.744  0.00  0.00     0.210 HD
ENDBRANCH  43  48
ENDBRANCH  37  38
ENDBRANCH  33  37
ENDBRANCH  27  28
ENDBRANCH  23  27
ENDBRANCH  17  18
ENDBRANCH  12  17
BRANCH  13  50
HETATM   50  C   UNK N   1      31.301  12.962   2.526  0.00  0.00     0.200 C 
BRANCH  50  51
HETATM   51  C   UNK N   1      32.533  12.625   1.720  0.00  0.00     0.186 C 
HETATM   52  O   UNK N   1      32.464  12.639   0.500  0.00  0.00    -0.292 OA
BRANCH  51  53
HETATM   53  C   UNK N   1      33.824  12.258   2.386  0.00  0.00     0.218 C 
BRANCH  53  54
HETATM   54  C   UNK N   1      34.953  13.215   1.995  0.00  0.00     0.150 C 
HETATM   55  C   UNK N   1      35.946  13.349   3.132  0.00  0.00     0.042 C 
BRANCH  54  56
HETATM   56  O   UNK N   1      34.441  14.478   1.703  0.00  0.00    -0.393 OA
HETATM   57  H   UNK N   1      34.198  14.840   0.836  0.00  0.00     0.210 HD
ENDBRANCH  54  56
ENDBRANCH  53  54
BRANCH  53  58
HETATM   58  O   UNK N   1      34.164  10.955   2.010  0.00  0.00    -0.385 OA
HETATM   59  H   UNK N   1      34.919  10.425   2.306  0.00  0.00     0.210 HD
ENDBRANCH  53  58
ENDBRANCH  51  53
ENDBRANCH  50  51
BRANCH  50  60
HETATM   60  O   UNK N   1      30.192  12.230   2.101  0.00  0.00    -0.383 OA
HETATM   61  C   UNK N   1      29.423  13.152   1.384  0.00  0.00     0.202 C 
ENDBRANCH  50  60
ENDBRANCH  13  50
BRANCH   7  62
HETATM   62  O   UNK N   1      30.698  17.959   3.909  0.00  0.00    -0.359 OA
HETATM   63  H   UNK N   1      30.792  18.873   3.725  0.00  0.00     0.217 HD
ENDBRANCH   7  62
BRANCH   3  64
HETATM   64  O   UNK N   1      28.911  19.581   4.413  0.00  0.00    -0.359 OA
HETATM   65  H   UNK N   1      29.022  20.359   3.902  0.00  0.00     0.217 HD
ENDBRANCH   3  64
BRANCH   2  66
HETATM   66  O   UNK N   1      24.510  18.097   4.928  0.00  0.00    -0.320 OA
BRANCH  66  67
HETATM   67  C   UNK N   1      23.526  17.723   4.046  0.00  0.00     0.269 C 
HETATM   68  C   UNK N   1      22.903  16.350   4.379  0.00  0.00     0.096 C 
HETATM   69  C   UNK N   1      21.966  16.398   5.588  0.00  0.00     0.160 C 
HETATM   70  C   UNK N   1      21.218  17.741   5.712  0.00  0.00     0.176 C 
HETATM   71  C   UNK N   1      21.291  18.555   4.416  0.00  0.00     0.151 C 
HETATM   72  O   UNK N   1      22.606  18.814   3.941  0.00  0.00    -0.353 OA
HETATM   73  C   UNK N   1      20.428  17.970   3.313  0.00  0.00     0.042 C 
BRANCH  69  74
HETATM   74  O   UNK N   1      22.637  16.051   6.777  0.00  0.00    -0.353 OA
BRANCH  74  75
HETATM   75  C   UNK N   1      21.899  15.073   7.480  0.00  0.00     0.263 C 
HETATM   76  O   UNK N   1      22.467  13.767   7.446  0.00  0.00    -0.354 OA
HETATM   77  C   UNK N   1      23.181  13.583   8.645  0.00  0.00     0.151 C 
HETATM   78  C   UNK N   1      22.239  13.432   9.853  0.00  0.00     0.175 C 
HETATM   79  C   UNK N   1      24.233  12.496   8.523  0.00  0.00     0.042 C 
HETATM   80  C   UNK N   1      20.969  14.289   9.664  0.00  0.00     0.154 C 
HETATM   81  C   UNK N   1      21.318  15.533   8.840  0.00  0.00     0.095 C 
BRANCH  78  82
HETATM   82  O   UNK N   1      21.896  12.098  10.091  0.00  0.00    -0.390 OA
HETATM   83  H   UNK N   1      22.566  11.413  10.246  0.00  0.00     0.210 HD
ENDBRANCH  78  82
BRANCH  80  84
HETATM   84  O   UNK N   1      19.980  13.562   8.991  0.00  0.00    -0.393 OA
HETATM   85  H   UNK N   1      19.837  13.093   8.155  0.00  0.00     0.210 HD
ENDBRANCH  80  84
ENDBRANCH  74  75
ENDBRANCH  69  74
BRANCH  70  86
HETATM   86  O   UNK N   1      21.681  18.507   6.781  0.00  0.00    -0.390 OA
HETATM   87  H   UNK N   1      22.129  19.168   7.331  0.00  0.00     0.210 HD
ENDBRANCH  70  86
ENDBRANCH  66  67
ENDBRANCH   2  66
TORSDOF 26
ENDMDL
MODEL 2
REMARK VINA RESULT:      -9.6      2.429     12.784
REMARK  26 active torsions:
REMARK  status: ('A' for Active; 'I' for Inactive)
REMARK    1  A    between atoms: C_1  and  O_13 
REMARK    2  A    between atoms: C_4  and  O_74 
REMARK    3  A    between atoms: C_5  and  O_73 
REMARK    4  A    between atoms: C_7  and  O_65 
REMARK    5  A    between atoms: C_10  and  O_75 
REMARK    6  A    between atoms: C_11  and  O_13 
REMARK    7  A    between atoms: C_14  and  O_56 
REMARK    8  A    between atoms: C_17  and  O_69 
REMARK    9  A    between atoms: C_18  and  O_65 
REMARK   10  A    between atoms: C_20  and  O_48 
REMARK   11  A    between atoms: C_23  and  O_68 
REMARK   12  A    between atoms: C_24  and  O_66 
REMARK   13  A    between atoms: C_27  and  O_49 
REMARK   14  A    between atoms: C_28  and  O_48 
REMARK   15  A    between atoms: C_30  and  O_34 
REMARK   16  A    between atoms: C_33  and  O_34 
REMARK   17  A    between atoms: C_35  and  O_60 
REMARK   18  A    between atoms: C_39  and  O_59 
REMARK   19  A    between atoms: C_44  and  O_56 
REMARK   20  A    between atoms: C_45  and  C_52 
REMARK   21  A    between atoms: C_51  and  C_52 
REMARK   22  A    between atoms: C_51  and  C_55 
REMARK   23  A    between atoms: C_52  and  O_57 
REMARK   24  A    between atoms: C_54  and  O_53 
REMARK   25  A    between atoms: C_54  and  C_55 
REMARK   26  A    between atoms: C_55  and  O_61 
ROOT
HETATM    1  C   UNK N   1      32.187  16.836   7.290  0.00  0.00     0.006 A 
HETATM    2  C   UNK N   1      32.800  16.476   6.091  0.00  0.00     0.081 A 
HETATM    3  C   UNK N   1      30.828  17.033   7.356  0.00  0.00     0.088 A 
HETATM    4  C   UNK N   1      30.024  16.822   6.228  0.00  0.00     0.042 A 
HETATM    5  C   UNK N   1      30.626  16.537   4.969  0.00  0.00    -0.017 A 
HETATM    6  C   UNK N   1      32.030  16.368   4.905  0.00  0.00     0.050 A 
HETATM    7  C   UNK N   1      28.635  16.842   6.340  0.00  0.00     0.094 A 
HETATM    8  C   UNK N   1      27.824  16.649   5.235  0.00  0.00     0.053 A 
HETATM    9  C   UNK N   1      28.393  16.466   3.950  0.00  0.00    -0.040 A 
HETATM   10  C   UNK N   1      29.801  16.388   3.830  0.00  0.00     0.020 A 
HETATM   11  C   UNK N   1      26.363  16.660   5.399  0.00  0.00     0.192 C 
HETATM   12  C   UNK N   1      25.548  16.946   4.214  0.00  0.00     0.206 C 
HETATM   13  C   UNK N   1      25.983  16.069   3.027  0.00  0.00     0.063 C 
HETATM   14  C   UNK N   1      27.494  16.320   2.720  0.00  0.00     0.050 C 
HETATM   15  O   UNK N   1      25.822  16.488   6.484  0.00  0.00    -0.289 OA
HETATM   16  C   UNK N   1      32.993  16.965   8.538  0.00  0.00     0.054 C 
ENDROOT
BRANCH  12  17
HETATM   17  O   UNK N   1      24.873  18.209   4.100  0.00  0.00    -0.348 OA
BRANCH  17  18
HETATM   18  C   UNK N   1      23.478  18.118   3.786  0.00  0.00     0.263 C 
HETATM   19  O   UNK N   1      22.813  19.357   3.772  0.00  0.00    -0.354 OA
HETATM   20  C   UNK N   1      21.728  19.211   2.886  0.00  0.00     0.151 C 
HETATM   21  C   UNK N   1      20.819  18.052   3.314  0.00  0.00     0.176 C 
HETATM   22  C   UNK N   1      20.931  20.495   2.851  0.00  0.00     0.042 C 
HETATM   23  C   UNK N   1      21.161  17.596   4.750  0.00  0.00     0.160 C 
HETATM   24  C   UNK N   1      22.692  17.262   4.813  0.00  0.00     0.095 C 
BRANCH  21  25
HETATM   25  O   UNK N   1      21.002  16.984   2.435  0.00  0.00    -0.390 OA
HETATM   26  H   UNK N   1      21.350  16.311   1.830  0.00  0.00     0.210 HD
ENDBRANCH  21  25
BRANCH  23  27
HETATM   27  O   UNK N   1      20.843  18.594   5.716  0.00  0.00    -0.353 OA
BRANCH  27  28
HETATM   28  C   UNK N   1      21.078  18.189   7.067  0.00  0.00     0.263 C 
HETATM   29  O   UNK N   1      20.246  18.924   7.962  0.00  0.00    -0.354 OA
HETATM   30  C   UNK N   1      19.953  18.207   9.142  0.00  0.00     0.151 C 
HETATM   31  C   UNK N   1      19.137  16.942   8.849  0.00  0.00     0.176 C 
HETATM   32  C   UNK N   1      19.231  19.096  10.140  0.00  0.00     0.042 C 
HETATM   33  C   UNK N   1      19.804  16.145   7.724  0.00  0.00     0.160 C 
HETATM   34  C   UNK N   1      21.178  16.658   7.304  0.00  0.00     0.095 C 
BRANCH  31  35
HETATM   35  O   UNK N   1      17.816  17.235   8.497  0.00  0.00    -0.390 OA
HETATM   36  H   UNK N   1      17.105  16.585   8.392  0.00  0.00     0.210 HD
ENDBRANCH  31  35
BRANCH  33  37
HETATM   37  O   UNK N   1      19.690  14.737   7.767  0.00  0.00    -0.353 OA
BRANCH  37  38
HETATM   38  C   UNK N   1      20.908  14.067   7.495  0.00  0.00     0.263 C 
HETATM   39  O   UNK N   1      20.908  13.377   6.250  0.00  0.00    -0.354 OA
HETATM   40  C   UNK N   1      20.927  11.995   6.503  0.00  0.00     0.152 C 
HETATM   41  C   UNK N   1      22.270  11.540   7.100  0.00  0.00     0.180 C 
HETATM   42  C   UNK N   1      20.473  11.183   5.304  0.00  0.00     0.042 C 
HETATM   43  C   UNK N   1      22.823  12.588   8.092  0.00  0.00     0.087 C 
HETATM   44  C   UNK N   1      21.670  13.404   8.679  0.00  0.00     0.101 C 
HETATM   45  C   UNK N   1      23.582  11.882   9.197  0.00  0.00     0.049 C 
BRANCH  41  46
HETATM   46  O   UNK N   1      23.214  11.256   6.107  0.00  0.00    -0.390 OA
HETATM   47  H   UNK N   1      23.002  10.734   5.317  0.00  0.00     0.210 HD
ENDBRANCH  41  46
BRANCH  43  48
HETATM   48  O   UNK N   1      23.694  13.468   7.441  0.00  0.00    -0.387 OA
HETATM   49  H   UNK N   1      24.392  13.480   6.767  0.00  0.00     0.210 HD
ENDBRANCH  43  48
ENDBRANCH  37  38
ENDBRANCH  33  37
ENDBRANCH  27  28
ENDBRANCH  23  27
ENDBRANCH  17  18
ENDBRANCH  12  17
BRANCH  13  50
HETATM   50  C   UNK N   1      25.828  14.598   3.505  0.00  0.00     0.200 C 
BRANCH  50  51
HETATM   51  C   UNK N   1      24.408  14.089   3.569  0.00  0.00     0.186 C 
HETATM   52  O   UNK N   1      23.973  13.679   4.635  0.00  0.00    -0.292 OA
BRANCH  51  53
HETATM   53  C   UNK N   1      23.534  14.061   2.352  0.00  0.00     0.218 C 
BRANCH  53  54
HETATM   54  C   UNK N   1      22.161  13.457   2.656  0.00  0.00     0.150 C 
HETATM   55  C   UNK N   1      21.326  13.386   1.392  0.00  0.00     0.042 C 
BRANCH  54  56
HETATM   56  O   UNK N   1      21.483  14.236   3.591  0.00  0.00    -0.393 OA
HETATM   57  H   UNK N   1      20.969  13.939   4.358  0.00  0.00     0.210 HD
ENDBRANCH  54  56
ENDBRANCH  53  54
BRANCH  53  58
HETATM   58  O   UNK N   1      24.171  13.302   1.365  0.00  0.00    -0.385 OA
HETATM   59  H   UNK N   1      23.769  12.842   0.613  0.00  0.00     0.210 HD
ENDBRANCH  53  58
ENDBRANCH  51  53
ENDBRANCH  50  51
BRANCH  50  60
HETATM   60  O   UNK N   1      26.666  13.703   2.840  0.00  0.00    -0.383 OA
HETATM   61  C   UNK N   1      27.182  12.892   3.857  0.00  0.00     0.202 C 
ENDBRANCH  50  60
ENDBRANCH  13  50
BRANCH   7  62
HETATM   62  O   UNK N   1      28.061  17.031   7.548  0.00  0.00    -0.359 OA
HETATM   63  H   UNK N   1      27.839  17.634   8.230  0.00  0.00     0.217 HD
ENDBRANCH   7  62
BRANCH   3  64
HETATM   64  O   UNK N   1      30.288  17.403   8.538  0.00  0.00    -0.359 OA
HETATM   65  H   UNK N   1      30.499  17.848   9.335  0.00  0.00     0.217 HD
ENDBRANCH   3  64
BRANCH   2  66
HETATM   66  O   UNK N   1      34.118  16.183   6.155  0.00  0.00    -0.320 OA
BRANCH  66  67
HETATM   67  C   UNK N   1      34.808  15.187   5.509  0.00  0.00     0.269 C 
HETATM   68  C   UNK N   1      36.065  14.722   6.276  0.00  0.00     0.096 C 
HETATM   69  C   UNK N   1      35.734  13.864   7.498  0.00  0.00     0.160 C 
HETATM   70  C   UNK N   1      34.474  12.997   7.296  0.00  0.00     0.176 C 
HETATM   71  C   UNK N   1      34.074  12.909   5.820  0.00  0.00     0.151 C 
HETATM   72  O   UNK N   1      33.868  14.161   5.176  0.00  0.00    -0.353 OA
HETATM   73  C   UNK N   1      35.019  12.040   5.012  0.00  0.00     0.042 C 
BRANCH  69  74
HETATM   74  O   UNK N   1      35.665  14.638   8.672  0.00  0.00    -0.353 OA
BRANCH  74  75
HETATM   75  C   UNK N   1      36.718  14.285   9.546  0.00  0.00     0.263 C 
HETATM   76  O   UNK N   1      36.442  14.512  10.925  0.00  0.00    -0.354 OA
HETATM   77  C   UNK N   1      36.037  13.286  11.485  0.00  0.00     0.151 C 
HETATM   78  C   UNK N   1      37.211  12.298  11.607  0.00  0.00     0.175 C 
HETATM   79  C   UNK N   1      35.235  13.476  12.759  0.00  0.00     0.042 C 
HETATM   80  C   UNK N   1      38.208  12.491  10.444  0.00  0.00     0.154 C 
HETATM   81  C   UNK N   1      37.448  12.964   9.201  0.00  0.00     0.095 C 
BRANCH  78  82
HETATM   82  O   UNK N   1      37.868  12.410  12.836  0.00  0.00    -0.390 OA
HETATM   83  H   UNK N   1      37.938  11.664  13.453  0.00  0.00     0.210 HD
ENDBRANCH  78  82
BRANCH  80  84
HETATM   84  O   UNK N   1      39.174  13.449  10.777  0.00  0.00    -0.393 OA
HETATM   85  H   UNK N   1      40.101  13.511  11.054  0.00  0.00     0.210 HD
ENDBRANCH  80  84
ENDBRANCH  74  75
ENDBRANCH  69  74
BRANCH  70  86
HETATM   86  O   UNK N   1      33.395  13.450   8.055  0.00  0.00    -0.390 OA
HETATM   87  H   UNK N   1      32.833  13.908   8.698  0.00  0.00     0.210 HD
ENDBRANCH  70  86
ENDBRANCH  66  67
ENDBRANCH   2  66
TORSDOF 26
ENDMDL
MODEL 3
REMARK VINA RESULT:      -9.5      1.806      3.774
REMARK  26 active torsions:
REMARK  status: ('A' for Active; 'I' for Inactive)
REMARK    1  A    between atoms: C_1  and  O_13 
REMARK    2  A    between atoms: C_4  and  O_74 
REMARK    3  A    between atoms: C_5  and  O_73 
REMARK    4  A    between atoms: C_7  and  O_65 
REMARK    5  A    between atoms: C_10  and  O_75 
REMARK    6  A    between atoms: C_11  and  O_13 
REMARK    7  A    between atoms: C_14  and  O_56 
REMARK    8  A    between atoms: C_17  and  O_69 
REMARK    9  A    between atoms: C_18  and  O_65 
REMARK   10  A    between atoms: C_20  and  O_48 
REMARK   11  A    between atoms: C_23  and  O_68 
REMARK   12  A    between atoms: C_24  and  O_66 
REMARK   13  A    between atoms: C_27  and  O_49 
REMARK   14  A    between atoms: C_28  and  O_48 
REMARK   15  A    between atoms: C_30  and  O_34 
REMARK   16  A    between atoms: C_33  and  O_34 
REMARK   17  A    between atoms: C_35  and  O_60 
REMARK   18  A    between atoms: C_39  and  O_59 
REMARK   19  A    between atoms: C_44  and  O_56 
REMARK   20  A    between atoms: C_45  and  C_52 
REMARK   21  A    between atoms: C_51  and  C_52 
REMARK   22  A    between atoms: C_51  and  C_55 
REMARK   23  A    between atoms: C_52  and  O_57 
REMARK   24  A    between atoms: C_54  and  O_53 
REMARK   25  A    between atoms: C_54  and  C_55 
REMARK   26  A    between atoms: C_55  and  O_61 
ROOT
HETATM    1  C   UNK N   1      26.867  16.550   4.067  0.00  0.00     0.006 A 
HETATM    2  C   UNK N   1      26.449  15.304   4.534  0.00  0.00     0.081 A 
HETATM    3  C   UNK N   1      28.201  16.820   3.877  0.00  0.00     0.088 A 
HETATM    4  C   UNK N   1      29.166  15.827   4.096  0.00  0.00     0.042 A 
HETATM    5  C   UNK N   1      28.782  14.574   4.654  0.00  0.00    -0.017 A 
HETATM    6  C   UNK N   1      27.408  14.317   4.877  0.00  0.00     0.050 A 
HETATM    7  C   UNK N   1      30.492  16.042   3.730  0.00  0.00     0.094 A 
HETATM    8  C   UNK N   1      31.462  15.079   3.950  0.00  0.00     0.053 A 
HETATM    9  C   UNK N   1      31.131  13.863   4.597  0.00  0.00    -0.040 A 
HETATM   10  C   UNK N   1      29.778  13.608   4.925  0.00  0.00     0.020 A 
HETATM   11  C   UNK N   1      32.848  15.338   3.532  0.00  0.00     0.192 C 
HETATM   12  C   UNK N   1      33.911  14.570   4.189  0.00  0.00     0.206 C 
HETATM   13  C   UNK N   1      33.583  13.067   4.181  0.00  0.00     0.063 C 
HETATM   14  C   UNK N   1      32.218  12.828   4.901  0.00  0.00     0.050 C 
HETATM   15  O   UNK N   1      33.136  16.192   2.703  0.00  0.00    -0.289 OA
HETATM   16  C   UNK N   1      25.865  17.596   3.718  0.00  0.00     0.054 C 
ENDROOT
BRANCH  12  17
HETATM   17  O   UNK N   1      34.782  15.218   5.129  0.00  0.00    -0.348 OA
BRANCH  17  18
HETATM   18  C   UNK N   1      34.114  15.875   6.214  0.00  0.00     0.263 C 
HETATM   19  O   UNK N   1      34.929  16.766   6.932  0.00  0.00    -0.354 OA
HETATM   20  C   UNK N   1      34.067  17.738   7.477  0.00  0.00     0.151 C 
HETATM   21  C   UNK N   1      32.984  17.087   8.347  0.00  0.00     0.176 C 
HETATM   22  C   UNK N   1      34.869  18.713   8.309  0.00  0.00     0.042 C 
HETATM   23  C   UNK N   1      33.339  15.613   8.642  0.00  0.00     0.160 C 
HETATM   24  C   UNK N   1      33.586  14.879   7.278  0.00  0.00     0.095 C 
BRANCH  21  25
HETATM   25  O   UNK N   1      31.765  17.142   7.671  0.00  0.00    -0.390 OA
HETATM   26  H   UNK N   1      31.024  17.036   7.053  0.00  0.00     0.210 HD
ENDBRANCH  21  25
BRANCH  23  27
HETATM   27  O   UNK N   1      34.493  15.497   9.470  0.00  0.00    -0.353 OA
BRANCH  27  28
HETATM   28  C   UNK N   1      34.737  14.170   9.942  0.00  0.00     0.263 C 
HETATM   29  O   UNK N   1      35.803  13.566   9.210  0.00  0.00    -0.354 OA
HETATM   30  C   UNK N   1      36.495  12.595   9.964  0.00  0.00     0.151 C 
HETATM   31  C   UNK N   1      37.197  13.212  11.179  0.00  0.00     0.176 C 
HETATM   32  C   UNK N   1      37.488  11.849   9.088  0.00  0.00     0.042 C 
HETATM   33  C   UNK N   1      36.211  14.090  11.956  0.00  0.00     0.160 C 
HETATM   34  C   UNK N   1      34.763  13.996  11.485  0.00  0.00     0.095 C 
BRANCH  31  35
HETATM   35  O   UNK N   1      38.314  13.969  10.816  0.00  0.00    -0.390 OA
HETATM   36  H   UNK N   1      38.299  14.902  10.551  0.00  0.00     0.210 HD
ENDBRANCH  31  35
BRANCH  33  37
HETATM   37  O   UNK N   1      36.370  14.164  13.358  0.00  0.00    -0.353 OA
BRANCH  37  38
HETATM   38  C   UNK N   1      36.005  12.970  14.027  0.00  0.00     0.263 C 
HETATM   39  O   UNK N   1      35.047  13.171  15.062  0.00  0.00    -0.354 OA
HETATM   40  C   UNK N   1      35.669  12.939  16.300  0.00  0.00     0.152 C 
HETATM   41  C   UNK N   1      36.016  11.453  16.497  0.00  0.00     0.180 C 
HETATM   42  C   UNK N   1      34.901  13.555  17.455  0.00  0.00     0.042 C 
HETATM   43  C   UNK N   1      36.500  10.814  15.176  0.00  0.00     0.087 C 
HETATM   44  C   UNK N   1      37.099  11.890  14.269  0.00  0.00     0.101 C 
HETATM   45  C   UNK N   1      37.535   9.750  15.482  0.00  0.00     0.049 C 
BRANCH  41  46
HETATM   46  O   UNK N   1      34.942  10.731  17.029  0.00  0.00    -0.390 OA
HETATM   47  H   UNK N   1      34.760   9.809  16.787  0.00  0.00     0.210 HD
ENDBRANCH  41  46
BRANCH  43  48
HETATM   48  O   UNK N   1      35.431  10.218  14.499  0.00  0.00    -0.387 OA
HETATM   49  H   UNK N   1      35.008   9.355  14.364  0.00  0.00     0.210 HD
ENDBRANCH  43  48
ENDBRANCH  37  38
ENDBRANCH  33  37
ENDBRANCH  27  28
ENDBRANCH  23  27
ENDBRANCH  17  18
ENDBRANCH  12  17
BRANCH  13  50
HETATM   50  C   UNK N   1      33.414  12.676   2.686  0.00  0.00     0.200 C 
BRANCH  50  51
HETATM   51  C   UNK N   1      34.672  12.206   1.998  0.00  0.00     0.186 C 
HETATM   52  O   UNK N   1      35.094  11.084   2.237  0.00  0.00    -0.292 OA
BRANCH  51  53
HETATM   53  C   UNK N   1      35.418  13.091   1.047  0.00  0.00     0.218 C 
BRANCH  53  54
HETATM   54  C   UNK N   1      36.786  13.493   1.603  0.00  0.00     0.150 C 
HETATM   55  C   UNK N   1      37.893  12.817   0.816  0.00  0.00     0.042 C 
BRANCH  54  56
HETATM   56  O   UNK N   1      36.899  13.113   2.940  0.00  0.00    -0.393 OA
HETATM   57  H   UNK N   1      36.330  12.507   3.440  0.00  0.00     0.210 HD
ENDBRANCH  54  56
ENDBRANCH  53  54
BRANCH  53  58
HETATM   58  O   UNK N   1      34.653  14.238   0.814  0.00  0.00    -0.385 OA
HETATM   59  H   UNK N   1      34.256  14.532  -0.020  0.00  0.00     0.210 HD
ENDBRANCH  53  58
ENDBRANCH  51  53
ENDBRANCH  50  51
BRANCH  50  60
HETATM   60  O   UNK N   1      32.345  11.809   2.454  0.00  0.00    -0.383 OA
HETATM   61  C   UNK N   1      31.777  12.272   1.262  0.00  0.00     0.202 C 
ENDBRANCH  50  60
ENDBRANCH  13  50
BRANCH   7  62
HETATM   62  O   UNK N   1      30.845  17.198   3.126  0.00  0.00    -0.359 OA
HETATM   63  H   UNK N   1      30.683  18.116   3.024  0.00  0.00     0.217 HD
ENDBRANCH   7  62
BRANCH   3  64
HETATM   64  O   UNK N   1      28.553  18.050   3.444  0.00  0.00    -0.359 OA
HETATM   65  H   UNK N   1      28.809  18.512   2.670  0.00  0.00     0.217 HD
ENDBRANCH   3  64
BRANCH   2  66
HETATM   66  O   UNK N   1      25.114  15.093   4.569  0.00  0.00    -0.320 OA
BRANCH  66  67
HETATM   67  C   UNK N   1      24.294  14.967   5.663  0.00  0.00     0.269 C 
HETATM   68  C   UNK N   1      23.289  16.132   5.805  0.00  0.00     0.096 C 
HETATM   69  C   UNK N   1      22.146  16.060   4.790  0.00  0.00     0.160 C 
HETATM   70  C   UNK N   1      21.748  14.612   4.440  0.00  0.00     0.176 C 
HETATM   71  C   UNK N   1      22.312  13.606   5.449  0.00  0.00     0.151 C 
HETATM   72  O   UNK N   1      23.723  13.656   5.623  0.00  0.00    -0.353 OA
HETATM   73  C   UNK N   1      21.604  13.667   6.789  0.00  0.00     0.042 C 
BRANCH  69  74
HETATM   74  O   UNK N   1      22.422  16.828   3.643  0.00  0.00    -0.353 OA
BRANCH  74  75
HETATM   75  C   UNK N   1      21.797  18.091   3.745  0.00  0.00     0.263 C 
HETATM   76  O   UNK N   1      22.681  19.164   4.058  0.00  0.00    -0.354 OA
HETATM   77  C   UNK N   1      23.004  19.814   2.853  0.00  0.00     0.151 C 
HETATM   78  C   UNK N   1      21.810  20.607   2.293  0.00  0.00     0.175 C 
HETATM   79  C   UNK N   1      24.296  20.604   2.958  0.00  0.00     0.042 C 
HETATM   80  C   UNK N   1      20.480  19.896   2.624  0.00  0.00     0.154 C 
HETATM   81  C   UNK N   1      20.717  18.383   2.674  0.00  0.00     0.095 C 
BRANCH  78  82
HETATM   82  O   UNK N   1      21.787  21.925   2.761  0.00  0.00    -0.390 OA
HETATM   83  H   UNK N   1      22.600  22.436   2.903  0.00  0.00     0.210 HD
ENDBRANCH  78  82
BRANCH  80  84
HETATM   84  O   UNK N   1      19.990  20.320   3.865  0.00  0.00    -0.393 OA
HETATM   85  H   UNK N   1      19.592  19.961   4.673  0.00  0.00     0.210 HD
ENDBRANCH  80  84
ENDBRANCH  74  75
ENDBRANCH  69  74
BRANCH  70  86
HETATM   86  O   UNK N   1      22.134  14.256   3.148  0.00  0.00    -0.390 OA
HETATM   87  H   UNK N   1      22.586  13.873   2.381  0.00  0.00     0.210 HD
ENDBRANCH  70  86
ENDBRANCH  66  67
ENDBRANCH   2  66
TORSDOF 26
ENDMDL
MODEL 4
REMARK VINA RESULT:      -9.3      2.583     12.459
REMARK  26 active torsions:
REMARK  status: ('A' for Active; 'I' for Inactive)
REMARK    1  A    between atoms: C_1  and  O_13 
REMARK    2  A    between atoms: C_4  and  O_74 
REMARK    3  A    between atoms: C_5  and  O_73 
REMARK    4  A    between atoms: C_7  and  O_65 
REMARK    5  A    between atoms: C_10  and  O_75 
REMARK    6  A    between atoms: C_11  and  O_13 
REMARK    7  A    between atoms: C_14  and  O_56 
REMARK    8  A    between atoms: C_17  and  O_69 
REMARK    9  A    between atoms: C_18  and  O_65 
REMARK   10  A    between atoms: C_20  and  O_48 
REMARK   11  A    between atoms: C_23  and  O_68 
REMARK   12  A    between atoms: C_24  and  O_66 
REMARK   13  A    between atoms: C_27  and  O_49 
REMARK   14  A    between atoms: C_28  and  O_48 
REMARK   15  A    between atoms: C_30  and  O_34 
REMARK   16  A    between atoms: C_33  and  O_34 
REMARK   17  A    between atoms: C_35  and  O_60 
REMARK   18  A    between atoms: C_39  and  O_59 
REMARK   19  A    between atoms: C_44  and  O_56 
REMARK   20  A    between atoms: C_45  and  C_52 
REMARK   21  A    between atoms: C_51  and  C_52 
REMARK   22  A    between atoms: C_51  and  C_55 
REMARK   23  A    between atoms: C_52  and  O_57 
REMARK   24  A    between atoms: C_54  and  O_53 
REMARK   25  A    between atoms: C_54  and  C_55 
REMARK   26  A    between atoms: C_55  and  O_61 
ROOT
HETATM    1  C   UNK N   1      32.404  16.910   7.601  0.00  0.00     0.006 A 
HETATM    2  C   UNK N   1      33.007  16.726   6.357  0.00  0.00     0.081 A 
HETATM    3  C   UNK N   1      31.040  17.049   7.709  0.00  0.00     0.088 A 
HETATM    4  C   UNK N   1      30.224  16.952   6.574  0.00  0.00     0.042 A 
HETATM    5  C   UNK N   1      30.813  16.850   5.282  0.00  0.00    -0.017 A 
HETATM    6  C   UNK N   1      32.220  16.741   5.177  0.00  0.00     0.050 A 
HETATM    7  C   UNK N   1      28.838  16.909   6.707  0.00  0.00     0.094 A 
HETATM    8  C   UNK N   1      28.014  16.826   5.597  0.00  0.00     0.053 A 
HETATM    9  C   UNK N   1      28.566  16.827   4.292  0.00  0.00    -0.040 A 
HETATM   10  C   UNK N   1      29.973  16.815   4.144  0.00  0.00     0.020 A 
HETATM   11  C   UNK N   1      26.556  16.765   5.781  0.00  0.00     0.192 C 
HETATM   12  C   UNK N   1      25.711  17.168   4.652  0.00  0.00     0.206 C 
HETATM   13  C   UNK N   1      26.154  16.463   3.358  0.00  0.00     0.063 C 
HETATM   14  C   UNK N   1      27.650  16.804   3.065  0.00  0.00     0.050 C 
HETATM   15  O   UNK N   1      26.041  16.438   6.842  0.00  0.00    -0.289 OA
HETATM   16  C   UNK N   1      33.227  16.911   8.843  0.00  0.00     0.054 C 
ENDROOT
BRANCH  12  17
HETATM   17  O   UNK N   1      24.992  18.410   4.707  0.00  0.00    -0.348 OA
BRANCH  17  18
HETATM   18  C   UNK N   1      23.565  18.278   4.710  0.00  0.00     0.263 C 
HETATM   19  O   UNK N   1      23.069  17.453   5.733  0.00  0.00    -0.354 OA
HETATM   20  C   UNK N   1      21.763  17.904   6.005  0.00  0.00     0.151 C 
HETATM   21  C   UNK N   1      20.894  17.873   4.741  0.00  0.00     0.176 C 
HETATM   22  C   UNK N   1      21.140  17.030   7.070  0.00  0.00     0.042 C 
HETATM   23  C   UNK N   1      21.588  17.059   3.626  0.00  0.00     0.160 C 
HETATM   24  C   UNK N   1      23.023  17.650   3.400  0.00  0.00     0.095 C 
BRANCH  21  25
HETATM   25  O   UNK N   1      20.690  19.180   4.299  0.00  0.00    -0.390 OA
HETATM   26  H   UNK N   1      20.394  20.094   4.164  0.00  0.00     0.210 HD
ENDBRANCH  21  25
BRANCH  23  27
HETATM   27  O   UNK N   1      21.681  15.675   3.956  0.00  0.00    -0.353 OA
BRANCH  27  28
HETATM   28  C   UNK N   1      20.466  14.949   3.756  0.00  0.00     0.263 C 
HETATM   29  O   UNK N   1      20.499  14.249   2.514  0.00  0.00    -0.354 OA
HETATM   30  C   UNK N   1      19.698  13.087   2.526  0.00  0.00     0.151 C 
HETATM   31  C   UNK N   1      20.211  12.053   3.535  0.00  0.00     0.176 C 
HETATM   32  C   UNK N   1      19.614  12.485   1.133  0.00  0.00     0.042 C 
HETATM   33  C   UNK N   1      20.442  12.726   4.892  0.00  0.00     0.160 C 
HETATM   34  C   UNK N   1      19.939  14.163   4.987  0.00  0.00     0.095 C 
BRANCH  31  35
HETATM   35  O   UNK N   1      21.392  11.439   3.110  0.00  0.00    -0.390 OA
HETATM   36  H   UNK N   1      21.722  11.423   2.198  0.00  0.00     0.210 HD
ENDBRANCH  31  35
BRANCH  33  37
HETATM   37  O   UNK N   1      20.221  11.948   6.050  0.00  0.00    -0.353 OA
BRANCH  37  38
HETATM   38  C   UNK N   1      21.299  11.992   6.969  0.00  0.00     0.263 C 
HETATM   39  O   UNK N   1      20.915  12.414   8.273  0.00  0.00    -0.354 OA
HETATM   40  C   UNK N   1      21.473  13.681   8.517  0.00  0.00     0.152 C 
HETATM   41  C   UNK N   1      23.003  13.615   8.661  0.00  0.00     0.180 C 
HETATM   42  C   UNK N   1      20.773  14.409   9.649  0.00  0.00     0.042 C 
HETATM   43  C   UNK N   1      23.613  12.600   7.668  0.00  0.00     0.087 C 
HETATM   44  C   UNK N   1      22.695  12.448   6.454  0.00  0.00     0.101 C 
HETATM   45  C   UNK N   1      24.982  13.084   7.233  0.00  0.00     0.049 C 
BRANCH  41  46
HETATM   46  O   UNK N   1      23.393  13.316   9.971  0.00  0.00    -0.390 OA
HETATM   47  H   UNK N   1      22.844  13.528  10.742  0.00  0.00     0.210 HD
ENDBRANCH  41  46
BRANCH  43  48
HETATM   48  O   UNK N   1      23.752  11.346   8.271  0.00  0.00    -0.387 OA
HETATM   49  H   UNK N   1      23.303  10.753   8.894  0.00  0.00     0.210 HD
ENDBRANCH  43  48
ENDBRANCH  37  38
ENDBRANCH  33  37
ENDBRANCH  27  28
ENDBRANCH  23  27
ENDBRANCH  17  18
ENDBRANCH  12  17
BRANCH  13  50
HETATM   50  C   UNK N   1      26.057  14.939   3.649  0.00  0.00     0.200 C 
BRANCH  50  51
HETATM   51  C   UNK N   1      24.863  14.243   3.043  0.00  0.00     0.186 C 
HETATM   52  O   UNK N   1      23.899  13.996   3.752  0.00  0.00    -0.292 OA
BRANCH  51  53
HETATM   53  C   UNK N   1      24.846  13.836   1.601  0.00  0.00     0.218 C 
BRANCH  53  54
HETATM   54  C   UNK N   1      23.424  13.558   1.109  0.00  0.00     0.150 C 
HETATM   55  C   UNK N   1      23.460  12.823  -0.217  0.00  0.00     0.042 C 
BRANCH  54  56
HETATM   56  O   UNK N   1      22.727  14.752   0.933  0.00  0.00    -0.393 OA
HETATM   57  H   UNK N   1      23.063  15.598   0.599  0.00  0.00     0.210 HD
ENDBRANCH  54  56
ENDBRANCH  53  54
BRANCH  53  58
HETATM   58  O   UNK N   1      25.626  12.685   1.454  0.00  0.00    -0.385 OA
HETATM   59  H   UNK N   1      26.185  12.433   0.704  0.00  0.00     0.210 HD
ENDBRANCH  53  58
ENDBRANCH  51  53
ENDBRANCH  50  51
BRANCH  50  60
HETATM   60  O   UNK N   1      27.241  14.245   3.395  0.00  0.00    -0.383 OA
HETATM   61  C   UNK N   1      27.339  13.331   4.449  0.00  0.00     0.202 C 
ENDBRANCH  50  60
ENDBRANCH  13  50
BRANCH   7  62
HETATM   62  O   UNK N   1      28.278  16.924   7.936  0.00  0.00    -0.359 OA
HETATM   63  H   UNK N   1      27.898  16.430   8.635  0.00  0.00     0.217 HD
ENDBRANCH   7  62
BRANCH   3  64
HETATM   64  O   UNK N   1      30.509  17.248   8.935  0.00  0.00    -0.359 OA
HETATM   65  H   UNK N   1      30.554  16.930   9.815  0.00  0.00     0.217 HD
ENDBRANCH   3  64
BRANCH   2  66
HETATM   66  O   UNK N   1      34.336  16.475   6.366  0.00  0.00    -0.320 OA
BRANCH  66  67
HETATM   67  C   UNK N   1      35.032  15.518   5.670  0.00  0.00     0.269 C 
HETATM   68  C   UNK N   1      36.185  14.893   6.486  0.00  0.00     0.096 C 
HETATM   69  C   UNK N   1      35.696  13.924   7.565  0.00  0.00     0.160 C 
HETATM   70  C   UNK N   1      34.418  13.165   7.151  0.00  0.00     0.176 C 
HETATM   71  C   UNK N   1      34.157  13.268   5.645  0.00  0.00     0.151 C 
HETATM   72  O   UNK N   1      34.077  14.595   5.138  0.00  0.00    -0.353 OA
HETATM   73  C   UNK N   1      35.129  12.439   4.828  0.00  0.00     0.042 C 
BRANCH  69  74
HETATM   74  O   UNK N   1      35.554  14.564   8.811  0.00  0.00    -0.353 OA
BRANCH  74  75
HETATM   75  C   UNK N   1      36.632  14.218   9.656  0.00  0.00     0.263 C 
HETATM   76  O   UNK N   1      36.380  14.411  11.045  0.00  0.00    -0.354 OA
HETATM   77  C   UNK N   1      36.013  13.167  11.588  0.00  0.00     0.151 C 
HETATM   78  C   UNK N   1      37.211  12.202  11.667  0.00  0.00     0.175 C 
HETATM   79  C   UNK N   1      35.233  13.314  12.881  0.00  0.00     0.042 C 
HETATM   80  C   UNK N   1      38.180  12.439  10.489  0.00  0.00     0.154 C 
HETATM   81  C   UNK N   1      37.384  12.919   9.271  0.00  0.00     0.095 C 
BRANCH  78  82
HETATM   82  O   UNK N   1      37.890  12.304  12.885  0.00  0.00    -0.390 OA
HETATM   83  H   UNK N   1      37.909  13.129  13.397  0.00  0.00     0.210 HD
ENDBRANCH  78  82
BRANCH  80  84
HETATM   84  O   UNK N   1      39.130  13.412  10.822  0.00  0.00    -0.393 OA
HETATM   85  H   UNK N   1      40.064  13.627  10.671  0.00  0.00     0.210 HD
ENDBRANCH  80  84
ENDBRANCH  74  75
ENDBRANCH  69  74
BRANCH  70  86
HETATM   86  O   UNK N   1      33.296  13.595   7.859  0.00  0.00    -0.390 OA
HETATM   87  H   UNK N   1      32.671  13.841   8.558  0.00  0.00     0.210 HD
ENDBRANCH  70  86
ENDBRANCH  66  67
ENDBRANCH   2  66
TORSDOF 26
ENDMDL
MODEL 5
REMARK VINA RESULT:      -9.2      3.574     12.380
REMARK  26 active torsions:
REMARK  status: ('A' for Active; 'I' for Inactive)
REMARK    1  A    between atoms: C_1  and  O_13 
REMARK    2  A    between atoms: C_4  and  O_74 
REMARK    3  A    between atoms: C_5  and  O_73 
REMARK    4  A    between atoms: C_7  and  O_65 
REMARK    5  A    between atoms: C_10  and  O_75 
REMARK    6  A    between atoms: C_11  and  O_13 
REMARK    7  A    between atoms: C_14  and  O_56 
REMARK    8  A    between atoms: C_17  and  O_69 
REMARK    9  A    between atoms: C_18  and  O_65 
REMARK   10  A    between atoms: C_20  and  O_48 
REMARK   11  A    between atoms: C_23  and  O_68 
REMARK   12  A    between atoms: C_24  and  O_66 
REMARK   13  A    between atoms: C_27  and  O_49 
REMARK   14  A    between atoms: C_28  and  O_48 
REMARK   15  A    between atoms: C_30  and  O_34 
REMARK   16  A    between atoms: C_33  and  O_34 
REMARK   17  A    between atoms: C_35  and  O_60 
REMARK   18  A    between atoms: C_39  and  O_59 
REMARK   19  A    between atoms: C_44  and  O_56 
REMARK   20  A    between atoms: C_45  and  C_52 
REMARK   21  A    between atoms: C_51  and  C_52 
REMARK   22  A    between atoms: C_51  and  C_55 
REMARK   23  A    between atoms: C_52  and  O_57 
REMARK   24  A    between atoms: C_54  and  O_53 
REMARK   25  A    between atoms: C_54  and  C_55 
REMARK   26  A    between atoms: C_55  and  O_61 
ROOT
HETATM    1  C   UNK N   1      29.272  17.382   8.191  0.00  0.00     0.006 A 
HETATM    2  C   UNK N   1      30.343  17.485   7.304  0.00  0.00     0.081 A 
HETATM    3  C   UNK N   1      28.054  16.902   7.771  0.00  0.00     0.088 A 
HETATM    4  C   UNK N   1      27.882  16.453   6.455  0.00  0.00     0.042 A 
HETATM    5  C   UNK N   1      28.928  16.623   5.504  0.00  0.00    -0.017 A 
HETATM    6  C   UNK N   1      30.168  17.149   5.937  0.00  0.00     0.050 A 
HETATM    7  C   UNK N   1      26.709  15.799   6.082  0.00  0.00     0.094 A 
HETATM    8  C   UNK N   1      26.515  15.360   4.784  0.00  0.00     0.053 A 
HETATM    9  C   UNK N   1      27.494  15.607   3.789  0.00  0.00    -0.040 A 
HETATM   10  C   UNK N   1      28.713  16.221   4.166  0.00  0.00     0.020 A 
HETATM   11  C   UNK N   1      25.271  14.659   4.435  0.00  0.00     0.192 C 
HETATM   12  C   UNK N   1      24.870  14.646   3.025  0.00  0.00     0.206 C 
HETATM   13  C   UNK N   1      26.042  14.211   2.128  0.00  0.00     0.063 C 
HETATM   14  C   UNK N   1      27.248  15.181   2.339  0.00  0.00     0.050 C 
HETATM   15  O   UNK N   1      24.552  14.137   5.278  0.00  0.00    -0.289 OA
HETATM   16  C   UNK N   1      29.445  17.747   9.625  0.00  0.00     0.054 C 
ENDROOT
BRANCH  12  17
HETATM   17  O   UNK N   1      23.753  15.440   2.593  0.00  0.00    -0.348 OA
BRANCH  17  18
HETATM   18  C   UNK N   1      22.542  14.706   2.377  0.00  0.00     0.263 C 
HETATM   19  O   UNK N   1      21.506  15.467   1.809  0.00  0.00    -0.354 OA
HETATM   20  C   UNK N   1      20.691  14.560   1.104  0.00  0.00     0.151 C 
HETATM   21  C   UNK N   1      20.177  13.448   2.027  0.00  0.00     0.176 C 
HETATM   22  C   UNK N   1      19.520  15.300   0.499  0.00  0.00     0.042 C 
HETATM   23  C   UNK N   1      20.421  13.816   3.508  0.00  0.00     0.160 C 
HETATM   24  C   UNK N   1      21.943  14.145   3.693  0.00  0.00     0.095 C 
BRANCH  21  25
HETATM   25  O   UNK N   1      20.851  12.263   1.729  0.00  0.00    -0.390 OA
HETATM   26  H   UNK N   1      21.164  11.426   1.351  0.00  0.00     0.210 HD
ENDBRANCH  21  25
BRANCH  23  27
HETATM   27  O   UNK N   1      19.632  14.930   3.917  0.00  0.00    -0.353 OA
BRANCH  27  28
HETATM   28  C   UNK N   1      19.404  14.992   5.327  0.00  0.00     0.263 C 
HETATM   29  O   UNK N   1      20.104  13.942   5.994  0.00  0.00    -0.354 OA
HETATM   30  C   UNK N   1      20.446  14.278   7.321  0.00  0.00     0.151 C 
HETATM   31  C   UNK N   1      21.426  15.455   7.375  0.00  0.00     0.176 C 
HETATM   32  C   UNK N   1      21.014  13.069   8.046  0.00  0.00     0.042 C 
HETATM   33  C   UNK N   1      20.906  16.603   6.504  0.00  0.00     0.160 C 
HETATM   34  C   UNK N   1      19.493  16.405   5.964  0.00  0.00     0.095 C 
BRANCH  31  35
HETATM   35  O   UNK N   1      22.710  15.094   6.957  0.00  0.00    -0.390 OA
HETATM   36  H   UNK N   1      23.526  15.576   7.163  0.00  0.00     0.210 HD
ENDBRANCH  31  35
BRANCH  33  37
HETATM   37  O   UNK N   1      21.197  17.920   6.920  0.00  0.00    -0.353 OA
BRANCH  37  38
HETATM   38  C   UNK N   1      21.941  18.658   5.965  0.00  0.00     0.263 C 
HETATM   39  O   UNK N   1      21.133  19.489   5.138  0.00  0.00    -0.354 OA
HETATM   40  C   UNK N   1      21.150  18.974   3.831  0.00  0.00     0.152 C 
HETATM   41  C   UNK N   1      22.528  19.139   3.168  0.00  0.00     0.180 C 
HETATM   42  C   UNK N   1      19.993  19.488   2.994  0.00  0.00     0.042 C 
HETATM   43  C   UNK N   1      23.668  18.902   4.185  0.00  0.00     0.087 C 
HETATM   44  C   UNK N   1      23.178  17.983   5.306  0.00  0.00     0.101 C 
HETATM   45  C   UNK N   1      24.852  18.277   3.475  0.00  0.00     0.049 C 
BRANCH  41  46
HETATM   46  O   UNK N   1      22.668  20.390   2.556  0.00  0.00    -0.390 OA
HETATM   47  H   UNK N   1      22.663  21.221   3.056  0.00  0.00     0.210 HD
ENDBRANCH  41  46
BRANCH  43  48
HETATM   48  O   UNK N   1      24.075  20.111   4.757  0.00  0.00    -0.387 OA
HETATM   49  H   UNK N   1      24.206  20.533   5.621  0.00  0.00     0.210 HD
ENDBRANCH  43  48
ENDBRANCH  37  38
ENDBRANCH  33  37
ENDBRANCH  27  28
ENDBRANCH  23  27
ENDBRANCH  17  18
ENDBRANCH  12  17
BRANCH  13  50
HETATM   50  C   UNK N   1      26.463  12.802   2.631  0.00  0.00     0.200 C 
BRANCH  50  51
HETATM   51  C   UNK N   1      25.503  11.685   2.297  0.00  0.00     0.186 C 
HETATM   52  O   UNK N   1      24.849  11.180   3.197  0.00  0.00    -0.292 OA
BRANCH  51  53
HETATM   53  C   UNK N   1      25.353  11.179   0.895  0.00  0.00     0.218 C 
BRANCH  53  54
HETATM   54  C   UNK N   1      23.886  11.152   0.459  0.00  0.00     0.150 C 
HETATM   55  C   UNK N   1      23.678  10.107  -0.621  0.00  0.00     0.042 C 
BRANCH  54  56
HETATM   56  O   UNK N   1      23.506  12.394  -0.048  0.00  0.00    -0.393 OA
HETATM   57  H   UNK N   1      22.625  12.799  -0.043  0.00  0.00     0.210 HD
ENDBRANCH  54  56
ENDBRANCH  53  54
BRANCH  53  58
HETATM   58  O   UNK N   1      25.884   9.887   0.830  0.00  0.00    -0.385 OA
HETATM   59  H   UNK N   1      25.499   9.103   0.411  0.00  0.00     0.210 HD
ENDBRANCH  53  58
ENDBRANCH  51  53
ENDBRANCH  50  51
BRANCH  50  60
HETATM   60  O   UNK N   1      27.778  12.464   2.308  0.00  0.00    -0.383 OA
HETATM   61  C   UNK N   1      28.238  11.758   3.425  0.00  0.00     0.202 C 
ENDBRANCH  50  60
ENDBRANCH  13  50
BRANCH   7  62
HETATM   62  O   UNK N   1      25.749  15.564   7.002  0.00  0.00    -0.359 OA
HETATM   63  H   UNK N   1      25.214  14.931   7.440  0.00  0.00     0.217 HD
ENDBRANCH   7  62
BRANCH   3  64
HETATM   64  O   UNK N   1      27.043  16.844   8.666  0.00  0.00    -0.359 OA
HETATM   65  H   UNK N   1      26.860  16.606   9.553  0.00  0.00     0.217 HD
ENDBRANCH   3  64
BRANCH   2  66
HETATM   66  O   UNK N   1      31.531  17.849   7.838  0.00  0.00    -0.320 OA
BRANCH  66  67
HETATM   67  C   UNK N   1      32.256  17.224   8.822  0.00  0.00     0.269 C 
HETATM   68  C   UNK N   1      32.507  15.728   8.534  0.00  0.00     0.096 C 
HETATM   69  C   UNK N   1      33.559  15.498   7.447  0.00  0.00     0.160 C 
HETATM   70  C   UNK N   1      34.662  16.576   7.445  0.00  0.00     0.176 C 
HETATM   71  C   UNK N   1      34.663  17.392   8.742  0.00  0.00     0.151 C 
HETATM   72  O   UNK N   1      33.424  18.015   9.062  0.00  0.00    -0.353 OA
HETATM   73  C   UNK N   1      35.187  16.602   9.926  0.00  0.00     0.042 C 
BRANCH  69  74
HETATM   74  O   UNK N   1      32.968  15.340   6.178  0.00  0.00    -0.353 OA
BRANCH  74  75
HETATM   75  C   UNK N   1      32.550  14.002   6.004  0.00  0.00     0.263 C 
HETATM   76  O   UNK N   1      31.504  13.829   5.053  0.00  0.00    -0.354 OA
HETATM   77  C   UNK N   1      32.094  13.433   3.839  0.00  0.00     0.151 C 
HETATM   78  C   UNK N   1      32.632  11.992   3.908  0.00  0.00     0.175 C 
HETATM   79  C   UNK N   1      31.197  13.718   2.648  0.00  0.00     0.042 C 
HETATM   80  C   UNK N   1      33.149  11.671   5.326  0.00  0.00     0.154 C 
HETATM   81  C   UNK N   1      33.690  12.953   5.968  0.00  0.00     0.095 C 
BRANCH  78  82
HETATM   82  O   UNK N   1      31.674  11.053   3.513  0.00  0.00    -0.390 OA
HETATM   83  H   UNK N   1      31.797  10.101   3.654  0.00  0.00     0.210 HD
ENDBRANCH  78  82
BRANCH  80  84
HETATM   84  O   UNK N   1      32.115  11.166   6.124  0.00  0.00    -0.393 OA
HETATM   85  H   UNK N   1      31.472  11.459   6.788  0.00  0.00     0.210 HD
ENDBRANCH  80  84
ENDBRANCH  74  75
ENDBRANCH  69  74
BRANCH  70  86
HETATM   86  O   UNK N   1      34.565  17.430   6.347  0.00  0.00    -0.390 OA
HETATM   87  H   UNK N   1      34.281  18.105   5.711  0.00  0.00     0.210 HD
ENDBRANCH  70  86
ENDBRANCH  66  67
ENDBRANCH   2  66
TORSDOF 26
ENDMDL
MODEL 6
REMARK VINA RESULT:      -9.1      2.104      5.347
REMARK  26 active torsions:
REMARK  status: ('A' for Active; 'I' for Inactive)
REMARK    1  A    between atoms: C_1  and  O_13 
REMARK    2  A    between atoms: C_4  and  O_74 
REMARK    3  A    between atoms: C_5  and  O_73 
REMARK    4  A    between atoms: C_7  and  O_65 
REMARK    5  A    between atoms: C_10  and  O_75 
REMARK    6  A    between atoms: C_11  and  O_13 
REMARK    7  A    between atoms: C_14  and  O_56 
REMARK    8  A    between atoms: C_17  and  O_69 
REMARK    9  A    between atoms: C_18  and  O_65 
REMARK   10  A    between atoms: C_20  and  O_48 
REMARK   11  A    between atoms: C_23  and  O_68 
REMARK   12  A    between atoms: C_24  and  O_66 
REMARK   13  A    between atoms: C_27  and  O_49 
REMARK   14  A    between atoms: C_28  and  O_48 
REMARK   15  A    between atoms: C_30  and  O_34 
REMARK   16  A    between atoms: C_33  and  O_34 
REMARK   17  A    between atoms: C_35  and  O_60 
REMARK   18  A    between atoms: C_39  and  O_59 
REMARK   19  A    between atoms: C_44  and  O_56 
REMARK   20  A    between atoms: C_45  and  C_52 
REMARK   21  A    between atoms: C_51  and  C_52 
REMARK   22  A    between atoms: C_51  and  C_55 
REMARK   23  A    between atoms: C_52  and  O_57 
REMARK   24  A    between atoms: C_54  and  O_53 
REMARK   25  A    between atoms: C_54  and  C_55 
REMARK   26  A    between atoms: C_55  and  O_61 
ROOT
HETATM    1  C   UNK N   1      27.208  17.023   4.597  0.00  0.00     0.006 A 
HETATM    2  C   UNK N   1      26.706  15.748   4.857  0.00  0.00     0.081 A 
HETATM    3  C   UNK N   1      28.557  17.229   4.428  0.00  0.00     0.088 A 
HETATM    4  C   UNK N   1      29.450  16.149   4.459  0.00  0.00     0.042 A 
HETATM    5  C   UNK N   1      28.982  14.850   4.807  0.00  0.00    -0.017 A 
HETATM    6  C   UNK N   1      27.595  14.654   5.011  0.00  0.00     0.050 A 
HETATM    7  C   UNK N   1      30.785  16.331   4.107  0.00  0.00     0.094 A 
HETATM    8  C   UNK N   1      31.686  15.281   4.145  0.00  0.00     0.053 A 
HETATM    9  C   UNK N   1      31.274  13.998   4.586  0.00  0.00    -0.040 A 
HETATM   10  C   UNK N   1      29.909  13.786   4.893  0.00  0.00     0.020 A 
HETATM   11  C   UNK N   1      33.083  15.511   3.748  0.00  0.00     0.192 C 
HETATM   12  C   UNK N   1      34.094  14.572   4.246  0.00  0.00     0.206 C 
HETATM   13  C   UNK N   1      33.660  13.117   3.994  0.00  0.00     0.063 C 
HETATM   14  C   UNK N   1      32.287  12.855   4.691  0.00  0.00     0.050 C 
HETATM   15  O   UNK N   1      33.424  16.470   3.068  0.00  0.00    -0.289 OA
HETATM   16  C   UNK N   1      26.280  18.179   4.448  0.00  0.00     0.054 C 
ENDROOT
BRANCH  12  17
HETATM   17  O   UNK N   1      35.017  14.991   5.264  0.00  0.00    -0.348 OA
BRANCH  17  18
HETATM   18  C   UNK N   1      34.406  15.452   6.475  0.00  0.00     0.263 C 
HETATM   19  O   UNK N   1      34.821  16.734   6.873  0.00  0.00    -0.354 OA
HETATM   20  C   UNK N   1      33.758  17.279   7.620  0.00  0.00     0.151 C 
HETATM   21  C   UNK N   1      33.398  16.374   8.806  0.00  0.00     0.176 C 
HETATM   22  C   UNK N   1      34.149  18.649   8.127  0.00  0.00     0.042 C 
HETATM   23  C   UNK N   1      34.498  15.314   9.033  0.00  0.00     0.160 C 
HETATM   24  C   UNK N   1      34.727  14.540   7.688  0.00  0.00     0.095 C 
BRANCH  21  25
HETATM   25  O   UNK N   1      32.188  15.734   8.536  0.00  0.00    -0.390 OA
HETATM   26  H   UNK N   1      31.291  15.493   8.254  0.00  0.00     0.210 HD
ENDBRANCH  21  25
BRANCH  23  27
HETATM   27  O   UNK N   1      35.722  15.900   9.469  0.00  0.00    -0.353 OA
BRANCH  27  28
HETATM   28  C   UNK N   1      36.397  15.148  10.480  0.00  0.00     0.263 C 
HETATM   29  O   UNK N   1      35.470  14.348  11.212  0.00  0.00    -0.354 OA
HETATM   30  C   UNK N   1      36.062  13.183  11.745  0.00  0.00     0.151 C 
HETATM   31  C   UNK N   1      36.557  12.241  10.641  0.00  0.00     0.176 C 
HETATM   32  C   UNK N   1      35.092  12.468  12.670  0.00  0.00     0.042 C 
HETATM   33  C   UNK N   1      37.402  13.026   9.632  0.00  0.00     0.160 C 
HETATM   34  C   UNK N   1      37.718  14.461  10.042  0.00  0.00     0.095 C 
BRANCH  31  35
HETATM   35  O   UNK N   1      35.505  11.606   9.977  0.00  0.00    -0.390 OA
HETATM   36  H   UNK N   1      35.567  10.766   9.497  0.00  0.00     0.210 HD
ENDBRANCH  31  35
BRANCH  33  37
HETATM   37  O   UNK N   1      38.470  12.344   9.008  0.00  0.00    -0.353 OA
BRANCH  37  38
HETATM   38  C   UNK N   1      38.974  13.016   7.867  0.00  0.00     0.263 C 
HETATM   39  O   UNK N   1      38.035  13.102   6.800  0.00  0.00    -0.354 OA
HETATM   40  C   UNK N   1      38.478  12.288   5.744  0.00  0.00     0.152 C 
HETATM   41  C   UNK N   1      39.744  12.853   5.078  0.00  0.00     0.180 C 
HETATM   42  C   UNK N   1      37.364  11.946   4.773  0.00  0.00     0.042 C 
HETATM   43  C   UNK N   1      40.697  13.473   6.125  0.00  0.00     0.087 C 
HETATM   44  C   UNK N   1      40.469  12.813   7.486  0.00  0.00     0.101 C 
HETATM   45  C   UNK N   1      42.131  13.273   5.679  0.00  0.00     0.049 C 
BRANCH  41  46
HETATM   46  O   UNK N   1      39.437  13.785   4.079  0.00  0.00    -0.390 OA
HETATM   47  H   UNK N   1      39.751  14.703   4.105  0.00  0.00     0.210 HD
ENDBRANCH  41  46
BRANCH  43  48
HETATM   48  O   UNK N   1      40.455  14.844   6.258  0.00  0.00    -0.387 OA
HETATM   49  H   UNK N   1      40.710  15.698   5.873  0.00  0.00     0.210 HD
ENDBRANCH  43  48
ENDBRANCH  37  38
ENDBRANCH  33  37
ENDBRANCH  27  28
ENDBRANCH  23  27
ENDBRANCH  17  18
ENDBRANCH  12  17
BRANCH  13  50
HETATM   50  C   UNK N   1      33.451  12.995   2.458  0.00  0.00     0.200 C 
BRANCH  50  51
HETATM   51  C   UNK N   1      34.694  13.189   1.622  0.00  0.00     0.186 C 
HETATM   52  O   UNK N   1      34.792  14.193   0.932  0.00  0.00    -0.292 OA
BRANCH  51  53
HETATM   53  C   UNK N   1      35.793  12.171   1.611  0.00  0.00     0.218 C 
BRANCH  53  54
HETATM   54  C   UNK N   1      37.069  12.724   0.972  0.00  0.00     0.150 C 
HETATM   55  C   UNK N   1      38.109  11.628   0.841  0.00  0.00     0.042 C 
BRANCH  54  56
HETATM   56  O   UNK N   1      37.601  13.747   1.755  0.00  0.00    -0.393 OA
HETATM   57  H   UNK N   1      37.162  14.256   2.454  0.00  0.00     0.210 HD
ENDBRANCH  54  56
ENDBRANCH  53  54
BRANCH  53  58
HETATM   58  O   UNK N   1      35.357  11.053   0.893  0.00  0.00    -0.385 OA
HETATM   59  H   UNK N   1      35.633  10.130   0.997  0.00  0.00     0.210 HD
ENDBRANCH  53  58
ENDBRANCH  51  53
ENDBRANCH  50  51
BRANCH  50  60
HETATM   60  O   UNK N   1      32.749  11.851   2.079  0.00  0.00    -0.383 OA
HETATM   61  C   UNK N   1      31.838  12.305   1.120  0.00  0.00     0.202 C 
ENDBRANCH  50  60
ENDBRANCH  13  50
BRANCH   7  62
HETATM   62  O   UNK N   1      31.214  17.545   3.699  0.00  0.00    -0.359 OA
HETATM   63  H   UNK N   1      31.571  18.063   3.004  0.00  0.00     0.217 HD
ENDBRANCH   7  62
BRANCH   3  64
HETATM   64  O   UNK N   1      28.991  18.487   4.200  0.00  0.00    -0.359 OA
HETATM   65  H   UNK N   1      29.759  18.968   3.961  0.00  0.00     0.217 HD
ENDBRANCH   3  64
BRANCH   2  66
HETATM   66  O   UNK N   1      25.360  15.626   4.883  0.00  0.00    -0.320 OA
BRANCH  66  67
HETATM   67  C   UNK N   1      24.534  15.469   5.968  0.00  0.00     0.269 C 
HETATM   68  C   UNK N   1      23.379  16.493   6.005  0.00  0.00     0.096 C 
HETATM   69  C   UNK N   1      22.284  16.196   4.978  0.00  0.00     0.160 C 
HETATM   70  C   UNK N   1      22.094  14.686   4.729  0.00  0.00     0.176 C 
HETATM   71  C   UNK N   1      22.759  13.840   5.819  0.00  0.00     0.151 C 
HETATM   72  O   UNK N   1      24.145  14.093   6.015  0.00  0.00    -0.353 OA
HETATM   73  C   UNK N   1      22.011  13.899   7.138  0.00  0.00     0.042 C 
BRANCH  69  74
HETATM   74  O   UNK N   1      22.487  16.911   3.782  0.00  0.00    -0.353 OA
BRANCH  74  75
HETATM   75  C   UNK N   1      21.924  18.202   3.890  0.00  0.00     0.263 C 
HETATM   76  O   UNK N   1      22.876  19.250   4.054  0.00  0.00    -0.354 OA
HETATM   77  C   UNK N   1      23.089  19.832   2.791  0.00  0.00     0.151 C 
HETATM   78  C   UNK N   1      21.870  20.649   2.326  0.00  0.00     0.175 C 
HETATM   79  C   UNK N   1      24.412  20.571   2.717  0.00  0.00     0.042 C 
HETATM   80  C   UNK N   1      20.559  20.009   2.832  0.00  0.00     0.154 C 
HETATM   81  C   UNK N   1      20.744  18.492   2.930  0.00  0.00     0.095 C 
BRANCH  78  82
HETATM   82  O   UNK N   1      21.947  21.986   2.728  0.00  0.00    -0.390 OA
HETATM   83  H   UNK N   1      22.253  22.687   2.132  0.00  0.00     0.210 HD
ENDBRANCH  78  82
BRANCH  80  84
HETATM   84  O   UNK N   1      20.225  20.508   4.097  0.00  0.00    -0.393 OA
HETATM   85  H   UNK N   1      20.344  20.301   5.037  0.00  0.00     0.210 HD
ENDBRANCH  80  84
ENDBRANCH  74  75
ENDBRANCH  69  74
BRANCH  70  86
HETATM   86  O   UNK N   1      22.559  14.295   3.474  0.00  0.00    -0.390 OA
HETATM   87  H   UNK N   1      22.898  13.788   2.720  0.00  0.00     0.210 HD
ENDBRANCH  70  86
ENDBRANCH  66  67
ENDBRANCH   2  66
TORSDOF 26
ENDMDL
MODEL 7
REMARK VINA RESULT:      -9.0      1.923      2.939
REMARK  26 active torsions:
REMARK  status: ('A' for Active; 'I' for Inactive)
REMARK    1  A    between atoms: C_1  and  O_13 
REMARK    2  A    between atoms: C_4  and  O_74 
REMARK    3  A    between atoms: C_5  and  O_73 
REMARK    4  A    between atoms: C_7  and  O_65 
REMARK    5  A    between atoms: C_10  and  O_75 
REMARK    6  A    between atoms: C_11  and  O_13 
REMARK    7  A    between atoms: C_14  and  O_56 
REMARK    8  A    between atoms: C_17  and  O_69 
REMARK    9  A    between atoms: C_18  and  O_65 
REMARK   10  A    between atoms: C_20  and  O_48 
REMARK   11  A    between atoms: C_23  and  O_68 
REMARK   12  A    between atoms: C_24  and  O_66 
REMARK   13  A    between atoms: C_27  and  O_49 
REMARK   14  A    between atoms: C_28  and  O_48 
REMARK   15  A    between atoms: C_30  and  O_34 
REMARK   16  A    between atoms: C_33  and  O_34 
REMARK   17  A    between atoms: C_35  and  O_60 
REMARK   18  A    between atoms: C_39  and  O_59 
REMARK   19  A    between atoms: C_44  and  O_56 
REMARK   20  A    between atoms: C_45  and  C_52 
REMARK   21  A    between atoms: C_51  and  C_52 
REMARK   22  A    between atoms: C_51  and  C_55 
REMARK   23  A    between atoms: C_52  and  O_57 
REMARK   24  A    between atoms: C_54  and  O_53 
REMARK   25  A    between atoms: C_54  and  C_55 
REMARK   26  A    between atoms: C_55  and  O_61 
ROOT
HETATM    1  C   UNK N   1      24.474  17.373   4.226  0.00  0.00     0.006 A 
HETATM    2  C   UNK N   1      24.363  16.178   3.516  0.00  0.00     0.081 A 
HETATM    3  C   UNK N   1      25.587  17.639   4.989  0.00  0.00     0.088 A 
HETATM    4  C   UNK N   1      26.657  16.736   5.024  0.00  0.00     0.042 A 
HETATM    5  C   UNK N   1      26.540  15.471   4.381  0.00  0.00    -0.017 A 
HETATM    6  C   UNK N   1      25.377  15.192   3.624  0.00  0.00     0.050 A 
HETATM    7  C   UNK N   1      27.854  17.087   5.645  0.00  0.00     0.094 A 
HETATM    8  C   UNK N   1      28.918  16.203   5.702  0.00  0.00     0.053 A 
HETATM    9  C   UNK N   1      28.797  14.899   5.162  0.00  0.00    -0.040 A 
HETATM   10  C   UNK N   1      27.607  14.548   4.479  0.00  0.00     0.020 A 
HETATM   11  C   UNK N   1      30.170  16.619   6.351  0.00  0.00     0.192 C 
HETATM   12  C   UNK N   1      31.069  15.564   6.832  0.00  0.00     0.206 C 
HETATM   13  C   UNK N   1      31.315  14.514   5.735  0.00  0.00     0.063 C 
HETATM   14  C   UNK N   1      29.951  13.900   5.285  0.00  0.00     0.050 C 
HETATM   15  O   UNK N   1      30.454  17.795   6.540  0.00  0.00    -0.289 OA
HETATM   16  C   UNK N   1      23.406  18.407   4.128  0.00  0.00     0.054 C 
ENDROOT
BRANCH  12  17
HETATM   17  O   UNK N   1      31.200  15.327   8.243  0.00  0.00    -0.348 OA
BRANCH  17  18
HETATM   18  C   UNK N   1      32.478  15.669   8.793  0.00  0.00     0.263 C 
HETATM   19  O   UNK N   1      33.167  16.656   8.068  0.00  0.00    -0.354 OA
HETATM   20  C   UNK N   1      34.007  17.309   8.990  0.00  0.00     0.151 C 
HETATM   21  C   UNK N   1      34.947  16.312   9.682  0.00  0.00     0.176 C 
HETATM   22  C   UNK N   1      34.822  18.361   8.273  0.00  0.00     0.042 C 
HETATM   23  C   UNK N   1      34.935  14.955   8.944  0.00  0.00     0.160 C 
HETATM   24  C   UNK N   1      33.450  14.462   8.836  0.00  0.00     0.095 C 
BRANCH  21  25
HETATM   25  O   UNK N   1      34.522  16.126  10.997  0.00  0.00    -0.390 OA
HETATM   26  H   UNK N   1      34.359  15.807  11.899  0.00  0.00     0.210 HD
ENDBRANCH  21  25
BRANCH  23  27
HETATM   27  O   UNK N   1      35.509  15.050   7.643  0.00  0.00    -0.353 OA
BRANCH  27  28
HETATM   28  C   UNK N   1      36.077  13.827   7.169  0.00  0.00     0.263 C 
HETATM   29  O   UNK N   1      37.470  13.991   6.905  0.00  0.00    -0.354 OA
HETATM   30  C   UNK N   1      38.193  12.787   7.050  0.00  0.00     0.151 C 
HETATM   31  C   UNK N   1      38.158  12.273   8.493  0.00  0.00     0.176 C 
HETATM   32  C   UNK N   1      39.625  12.968   6.576  0.00  0.00     0.042 C 
HETATM   33  C   UNK N   1      36.713  12.254   9.001  0.00  0.00     0.160 C 
HETATM   34  C   UNK N   1      35.658  12.545   7.939  0.00  0.00     0.095 C 
BRANCH  31  35
HETATM   35  O   UNK N   1      38.946  13.047   9.350  0.00  0.00    -0.390 OA
HETATM   36  H   UNK N   1      38.787  13.177  10.297  0.00  0.00     0.210 HD
ENDBRANCH  31  35
BRANCH  33  37
HETATM   37  O   UNK N   1      36.359  11.242   9.921  0.00  0.00    -0.353 OA
BRANCH  37  38
HETATM   38  C   UNK N   1      36.500  11.639  11.273  0.00  0.00     0.263 C 
HETATM   39  O   UNK N   1      35.888  10.740  12.193  0.00  0.00    -0.354 OA
HETATM   40  C   UNK N   1      34.778  11.378  12.772  0.00  0.00     0.152 C 
HETATM   41  C   UNK N   1      35.199  12.524  13.707  0.00  0.00     0.180 C 
HETATM   42  C   UNK N   1      33.808  10.392  13.397  0.00  0.00     0.042 C 
HETATM   43  C   UNK N   1      36.412  13.293  13.135  0.00  0.00     0.087 C 
HETATM   44  C   UNK N   1      36.439  13.156  11.612  0.00  0.00     0.101 C 
HETATM   45  C   UNK N   1      36.312  14.753  13.529  0.00  0.00     0.049 C 
BRANCH  41  46
HETATM   46  O   UNK N   1      35.472  12.070  15.003  0.00  0.00    -0.390 OA
HETATM   47  H   UNK N   1      34.814  11.606  15.544  0.00  0.00     0.210 HD
ENDBRANCH  41  46
BRANCH  43  48
HETATM   48  O   UNK N   1      37.607  12.773  13.643  0.00  0.00    -0.387 OA
HETATM   49  H   UNK N   1      38.458  12.410  13.351  0.00  0.00     0.210 HD
ENDBRANCH  43  48
ENDBRANCH  37  38
ENDBRANCH  33  37
ENDBRANCH  27  28
ENDBRANCH  23  27
ENDBRANCH  17  18
ENDBRANCH  12  17
BRANCH  13  50
HETATM   50  C   UNK N   1      31.914  15.291   4.529  0.00  0.00     0.200 C 
BRANCH  50  51
HETATM   51  C   UNK N   1      33.400  15.118   4.325  0.00  0.00     0.186 C 
HETATM   52  O   UNK N   1      34.154  16.009   4.686  0.00  0.00    -0.292 OA
BRANCH  51  53
HETATM   53  C   UNK N   1      33.960  13.889   3.678  0.00  0.00     0.218 C 
BRANCH  53  54
HETATM   54  C   UNK N   1      34.248  14.114   2.192  0.00  0.00     0.150 C 
HETATM   55  C   UNK N   1      35.660  13.673   1.856  0.00  0.00     0.042 C 
BRANCH  54  56
HETATM   56  O   UNK N   1      34.119  15.465   1.870  0.00  0.00    -0.393 OA
HETATM   57  H   UNK N   1      33.313  16.003   1.860  0.00  0.00     0.210 HD
ENDBRANCH  54  56
ENDBRANCH  53  54
BRANCH  53  58
HETATM   58  O   UNK N   1      33.037  12.849   3.823  0.00  0.00    -0.385 OA
HETATM   59  H   UNK N   1      32.274  12.645   3.261  0.00  0.00     0.210 HD
ENDBRANCH  53  58
ENDBRANCH  51  53
ENDBRANCH  50  51
BRANCH  50  60
HETATM   60  O   UNK N   1      31.207  15.108   3.340  0.00  0.00    -0.383 OA
HETATM   61  C   UNK N   1      31.095  16.395   2.802  0.00  0.00     0.202 C 
ENDBRANCH  50  60
ENDBRANCH  13  50
BRANCH   7  62
HETATM   62  O   UNK N   1      27.996  18.317   6.185  0.00  0.00    -0.359 OA
HETATM   63  H   UNK N   1      27.608  19.009   6.684  0.00  0.00     0.217 HD
ENDBRANCH   7  62
BRANCH   3  64
HETATM   64  O   UNK N   1      25.633  18.803   5.674  0.00  0.00    -0.359 OA
HETATM   65  H   UNK N   1      25.444  19.716   5.585  0.00  0.00     0.217 HD
ENDBRANCH   3  64
BRANCH   2  66
HETATM   66  O   UNK N   1      23.293  16.063   2.698  0.00  0.00    -0.320 OA
BRANCH  66  67
HETATM   67  C   UNK N   1      22.550  14.945   2.411  0.00  0.00     0.269 C 
HETATM   68  C   UNK N   1      21.874  14.329   3.655  0.00  0.00     0.096 C 
HETATM   69  C   UNK N   1      20.677  15.144   4.149  0.00  0.00     0.160 C 
HETATM   70  C   UNK N   1      19.912  15.836   3.003  0.00  0.00     0.176 C 
HETATM   71  C   UNK N   1      20.285  15.254   1.636  0.00  0.00     0.151 C 
HETATM   72  O   UNK N   1      21.674  15.279   1.330  0.00  0.00    -0.353 OA
HETATM   73  C   UNK N   1      19.713  13.866   1.419  0.00  0.00     0.042 C 
BRANCH  69  74
HETATM   74  O   UNK N   1      21.048  16.048   5.163  0.00  0.00    -0.353 OA
BRANCH  74  75
HETATM   75  C   UNK N   1      20.225  15.867   6.296  0.00  0.00     0.263 C 
HETATM   76  O   UNK N   1      20.005  14.506   6.655  0.00  0.00    -0.354 OA
HETATM   77  C   UNK N   1      20.901  14.190   7.693  0.00  0.00     0.151 C 
HETATM   78  C   UNK N   1      20.513  14.880   9.013  0.00  0.00     0.175 C 
HETATM   79  C   UNK N   1      21.141  12.696   7.806  0.00  0.00     0.042 C 
HETATM   80  C   UNK N   1      19.875  16.259   8.741  0.00  0.00     0.154 C 
HETATM   81  C   UNK N   1      20.482  16.851   7.464  0.00  0.00     0.095 C 
BRANCH  78  82
HETATM   82  O   UNK N   1      19.657  14.091   9.788  0.00  0.00    -0.390 OA
HETATM   83  H   UNK N   1      19.152  14.456  10.532  0.00  0.00     0.210 HD
ENDBRANCH  78  82
BRANCH  80  84
HETATM   84  O   UNK N   1      18.491  16.135   8.570  0.00  0.00    -0.393 OA
HETATM   85  H   UNK N   1      17.661  16.345   9.025  0.00  0.00     0.210 HD
ENDBRANCH  80  84
ENDBRANCH  74  75
ENDBRANCH  69  74
BRANCH  70  86
HETATM   86  O   UNK N   1      20.103  17.218   2.999  0.00  0.00    -0.390 OA
HETATM   87  H   UNK N   1      19.972  18.178   3.001  0.00  0.00     0.210 HD
ENDBRANCH  70  86
ENDBRANCH  66  67
ENDBRANCH   2  66
TORSDOF 26
ENDMDL
MODEL 8
REMARK VINA RESULT:      -9.0      1.839      2.426
REMARK  26 active torsions:
REMARK  status: ('A' for Active; 'I' for Inactive)
REMARK    1  A    between atoms: C_1  and  O_13 
REMARK    2  A    between atoms: C_4  and  O_74 
REMARK    3  A    between atoms: C_5  and  O_73 
REMARK    4  A    between atoms: C_7  and  O_65 
REMARK    5  A    between atoms: C_10  and  O_75 
REMARK    6  A    between atoms: C_11  and  O_13 
REMARK    7  A    between atoms: C_14  and  O_56 
REMARK    8  A    between atoms: C_17  and  O_69 
REMARK    9  A    between atoms: C_18  and  O_65 
REMARK   10  A    between atoms: C_20  and  O_48 
REMARK   11  A    between atoms: C_23  and  O_68 
REMARK   12  A    between atoms: C_24  and  O_66 
REMARK   13  A    between atoms: C_27  and  O_49 
REMARK   14  A    between atoms: C_28  and  O_48 
REMARK   15  A    between atoms: C_30  and  O_34 
REMARK   16  A    between atoms: C_33  and  O_34 
REMARK   17  A    between atoms: C_35  and  O_60 
REMARK   18  A    between atoms: C_39  and  O_59 
REMARK   19  A    between atoms: C_44  and  O_56 
REMARK   20  A    between atoms: C_45  and  C_52 
REMARK   21  A    between atoms: C_51  and  C_52 
REMARK   22  A    between atoms: C_51  and  C_55 
REMARK   23  A    between atoms: C_52  and  O_57 
REMARK   24  A    between atoms: C_54  and  O_53 
REMARK   25  A    between atoms: C_54  and  C_55 
REMARK   26  A    between atoms: C_55  and  O_61 
ROOT
HETATM    1  C   UNK N   1      26.857  16.382   3.675  0.00  0.00     0.006 A 
HETATM    2  C   UNK N   1      26.432  15.069   3.877  0.00  0.00     0.081 A 
HETATM    3  C   UNK N   1      28.196  16.683   3.590  0.00  0.00     0.088 A 
HETATM    4  C   UNK N   1      29.158  15.667   3.648  0.00  0.00     0.042 A 
HETATM    5  C   UNK N   1      28.763  14.330   3.937  0.00  0.00    -0.017 A 
HETATM    6  C   UNK N   1      27.384  14.034   4.056  0.00  0.00     0.050 A 
HETATM    7  C   UNK N   1      30.496  15.948   3.378  0.00  0.00     0.094 A 
HETATM    8  C   UNK N   1      31.464  14.960   3.443  0.00  0.00     0.053 A 
HETATM    9  C   UNK N   1      31.118  13.641   3.830  0.00  0.00    -0.040 A 
HETATM   10  C   UNK N   1      29.756  13.329   4.053  0.00  0.00     0.020 A 
HETATM   11  C   UNK N   1      32.862  15.295   3.134  0.00  0.00     0.192 C 
HETATM   12  C   UNK N   1      33.905  14.413   3.667  0.00  0.00     0.206 C 
HETATM   13  C   UNK N   1      33.588  12.941   3.357  0.00  0.00     0.063 C 
HETATM   14  C   UNK N   1      32.200  12.567   3.966  0.00  0.00     0.050 C 
HETATM   15  O   UNK N   1      33.173  16.293   2.497  0.00  0.00    -0.289 OA
HETATM   16  C   UNK N   1      25.861  17.477   3.500  0.00  0.00     0.054 C 
ENDROOT
BRANCH  12  17
HETATM   17  O   UNK N   1      34.738  14.866   4.747  0.00  0.00    -0.348 OA
BRANCH  17  18
HETATM   18  C   UNK N   1      34.027  15.356   5.890  0.00  0.00     0.263 C 
HETATM   19  O   UNK N   1      34.772  16.236   6.693  0.00  0.00    -0.354 OA
HETATM   20  C   UNK N   1      33.837  17.075   7.331  0.00  0.00     0.151 C 
HETATM   21  C   UNK N   1      32.817  16.255   8.132  0.00  0.00     0.176 C 
HETATM   22  C   UNK N   1      34.562  18.026   8.256  0.00  0.00     0.042 C 
HETATM   23  C   UNK N   1      33.293  14.793   8.280  0.00  0.00     0.160 C 
HETATM   24  C   UNK N   1      33.590  14.220   6.850  0.00  0.00     0.095 C 
BRANCH  21  25
HETATM   25  O   UNK N   1      31.593  16.276   7.463  0.00  0.00    -0.390 OA
HETATM   26  H   UNK N   1      30.790  16.517   6.974  0.00  0.00     0.210 HD
ENDBRANCH  21  25
BRANCH  23  27
HETATM   27  O   UNK N   1      34.459  14.692   9.093  0.00  0.00    -0.353 OA
BRANCH  27  28
HETATM   28  C   UNK N   1      35.383  13.690   8.660  0.00  0.00     0.263 C 
HETATM   29  O   UNK N   1      36.710  14.212   8.631  0.00  0.00    -0.354 OA
HETATM   30  C   UNK N   1      37.688  13.214   8.833  0.00  0.00     0.151 C 
HETATM   31  C   UNK N   1      37.579  12.585  10.226  0.00  0.00     0.176 C 
HETATM   32  C   UNK N   1      39.080  13.780   8.604  0.00  0.00     0.042 C 
HETATM   33  C   UNK N   1      36.129  12.170  10.494  0.00  0.00     0.160 C 
HETATM   34  C   UNK N   1      35.199  12.284   9.291  0.00  0.00     0.095 C 
BRANCH  31  35
HETATM   35  O   UNK N   1      38.012  13.451  11.233  0.00  0.00    -0.390 OA
HETATM   36  H   UNK N   1      38.653  14.170  11.121  0.00  0.00     0.210 HD
ENDBRANCH  31  35
BRANCH  33  37
HETATM   37  O   UNK N   1      35.917  11.026  11.296  0.00  0.00    -0.353 OA
BRANCH  37  38
HETATM   38  C   UNK N   1      35.176  11.296  12.473  0.00  0.00     0.263 C 
HETATM   39  O   UNK N   1      35.143  12.678  12.816  0.00  0.00    -0.354 OA
HETATM   40  C   UNK N   1      35.890  12.866  13.991  0.00  0.00     0.152 C 
HETATM   41  C   UNK N   1      35.203  12.235  15.214  0.00  0.00     0.180 C 
HETATM   42  C   UNK N   1      36.300  14.314  14.187  0.00  0.00     0.042 C 
HETATM   43  C   UNK N   1      34.531  10.893  14.847  0.00  0.00     0.087 C 
HETATM   44  C   UNK N   1      35.242  10.272  13.643  0.00  0.00     0.101 C 
HETATM   45  C   UNK N   1      34.597   9.956  16.035  0.00  0.00     0.049 C 
BRANCH  41  46
HETATM   46  O   UNK N   1      34.275  13.106  15.799  0.00  0.00    -0.390 OA
HETATM   47  H   UNK N   1      34.453  14.050  15.929  0.00  0.00     0.210 HD
ENDBRANCH  41  46
BRANCH  43  48
HETATM   48  O   UNK N   1      33.189  11.093  14.507  0.00  0.00    -0.387 OA
HETATM   49  H   UNK N   1      32.475  11.743  14.598  0.00  0.00     0.210 HD
ENDBRANCH  43  48
ENDBRANCH  37  38
ENDBRANCH  33  37
ENDBRANCH  27  28
ENDBRANCH  23  27
ENDBRANCH  17  18
ENDBRANCH  12  17
BRANCH  13  50
HETATM   50  C   UNK N   1      33.475  12.847   1.809  0.00  0.00     0.200 C 
BRANCH  50  51
HETATM   51  C   UNK N   1      34.766  13.057   1.055  0.00  0.00     0.186 C 
HETATM   52  O   UNK N   1      34.989  14.151   0.557  0.00  0.00    -0.292 OA
BRANCH  51  53
HETATM   53  C   UNK N   1      35.764  11.951   0.893  0.00  0.00     0.218 C 
BRANCH  53  54
HETATM   54  C   UNK N   1      36.937  12.102   1.865  0.00  0.00     0.150 C 
HETATM   55  C   UNK N   1      36.734  11.214   3.077  0.00  0.00     0.042 C 
BRANCH  54  56
HETATM   56  O   UNK N   1      37.044  13.423   2.297  0.00  0.00    -0.393 OA
HETATM   57  H   UNK N   1      36.873  13.779   3.183  0.00  0.00     0.210 HD
ENDBRANCH  54  56
ENDBRANCH  53  54
BRANCH  53  58
HETATM   58  O   UNK N   1      36.240  11.970  -0.421  0.00  0.00    -0.385 OA
HETATM   59  H   UNK N   1      37.160  11.958  -0.724  0.00  0.00     0.210 HD
ENDBRANCH  53  58
ENDBRANCH  51  53
ENDBRANCH  50  51
BRANCH  50  60
HETATM   60  O   UNK N   1      32.800  11.708   1.366  0.00  0.00    -0.383 OA
HETATM   61  C   UNK N   1      32.034  12.158   0.286  0.00  0.00     0.202 C 
ENDBRANCH  50  60
ENDBRANCH  13  50
BRANCH   7  62
HETATM   62  O   UNK N   1      30.862  17.199   3.024  0.00  0.00    -0.359 OA
HETATM   63  H   UNK N   1      30.601  18.089   2.891  0.00  0.00     0.217 HD
ENDBRANCH   7  62
BRANCH   3  64
HETATM   64  O   UNK N   1      28.554  17.974   3.417  0.00  0.00    -0.359 OA
HETATM   65  H   UNK N   1      29.264  18.566   3.568  0.00  0.00     0.217 HD
ENDBRANCH   3  64
BRANCH   2  66
HETATM   66  O   UNK N   1      25.097  14.856   3.821  0.00  0.00    -0.320 OA
BRANCH  66  67
HETATM   67  C   UNK N   1      24.426  13.687   3.559  0.00  0.00     0.269 C 
HETATM   68  C   UNK N   1      23.374  13.337   4.633  0.00  0.00     0.096 C 
HETATM   69  C   UNK N   1      22.123  14.214   4.551  0.00  0.00     0.160 C 
HETATM   70  C   UNK N   1      21.779  14.630   3.107  0.00  0.00     0.176 C 
HETATM   71  C   UNK N   1      22.524  13.777   2.075  0.00  0.00     0.151 C 
HETATM   72  O   UNK N   1      23.940  13.765   2.215  0.00  0.00    -0.353 OA
HETATM   73  C   UNK N   1      21.982  12.364   1.988  0.00  0.00     0.042 C 
BRANCH  69  74
HETATM   74  O   UNK N   1      22.208  15.321   5.418  0.00  0.00    -0.353 OA
BRANCH  74  75
HETATM   75  C   UNK N   1      21.086  15.349   6.276  0.00  0.00     0.263 C 
HETATM   76  O   UNK N   1      20.730  14.084   6.825  0.00  0.00    -0.354 OA
HETATM   77  C   UNK N   1      21.277  14.013   8.120  0.00  0.00     0.151 C 
HETATM   78  C   UNK N   1      20.543  14.946   9.101  0.00  0.00     0.175 C 
HETATM   79  C   UNK N   1      21.428  12.582   8.600  0.00  0.00     0.042 C 
HETATM   80  C   UNK N   1      20.054  16.220   8.380  0.00  0.00     0.154 C 
HETATM   81  C   UNK N   1      21.023  16.558   7.242  0.00  0.00     0.095 C 
BRANCH  78  82
HETATM   82  O   UNK N   1      19.476  14.306   9.738  0.00  0.00    -0.390 OA
HETATM   83  H   UNK N   1      19.405  13.339   9.779  0.00  0.00     0.210 HD
ENDBRANCH  78  82
BRANCH  80  84
HETATM   84  O   UNK N   1      18.776  16.022   7.844  0.00  0.00    -0.393 OA
HETATM   85  H   UNK N   1      18.298  16.099   7.004  0.00  0.00     0.210 HD
ENDBRANCH  80  84
ENDBRANCH  74  75
ENDBRANCH  69  74
BRANCH  70  86
HETATM   86  O   UNK N   1      22.026  15.982   2.874  0.00  0.00    -0.390 OA
HETATM   87  H   UNK N   1      22.132  16.942   2.966  0.00  0.00     0.210 HD
ENDBRANCH  70  86
ENDBRANCH  66  67
ENDBRANCH   2  66
TORSDOF 26
ENDMDL
MODEL 9
REMARK VINA RESULT:      -8.8      2.344      4.516
REMARK  26 active torsions:
REMARK  status: ('A' for Active; 'I' for Inactive)
REMARK    1  A    between atoms: C_1  and  O_13 
REMARK    2  A    between atoms: C_4  and  O_74 
REMARK    3  A    between atoms: C_5  and  O_73 
REMARK    4  A    between atoms: C_7  and  O_65 
REMARK    5  A    between atoms: C_10  and  O_75 
REMARK    6  A    between atoms: C_11  and  O_13 
REMARK    7  A    between atoms: C_14  and  O_56 
REMARK    8  A    between atoms: C_17  and  O_69 
REMARK    9  A    between atoms: C_18  and  O_65 
REMARK   10  A    between atoms: C_20  and  O_48 
REMARK   11  A    between atoms: C_23  and  O_68 
REMARK   12  A    between atoms: C_24  and  O_66 
REMARK   13  A    between atoms: C_27  and  O_49 
REMARK   14  A    between atoms: C_28  and  O_48 
REMARK   15  A    between atoms: C_30  and  O_34 
REMARK   16  A    between atoms: C_33  and  O_34 
REMARK   17  A    between atoms: C_35  and  O_60 
REMARK   18  A    between atoms: C_39  and  O_59 
REMARK   19  A    between atoms: C_44  and  O_56 
REMARK   20  A    between atoms: C_45  and  C_52 
REMARK   21  A    between atoms: C_51  and  C_52 
REMARK   22  A    between atoms: C_51  and  C_55 
REMARK   23  A    between atoms: C_52  and  O_57 
REMARK   24  A    between atoms: C_54  and  O_53 
REMARK   25  A    between atoms: C_54  and  C_55 
REMARK   26  A    between atoms: C_55  and  O_61 
ROOT
HETATM    1  C   UNK N   1      26.885  16.735   4.091  0.00  0.00     0.006 A 
HETATM    2  C   UNK N   1      26.440  15.460   4.436  0.00  0.00     0.081 A 
HETATM    3  C   UNK N   1      28.224  16.988   3.908  0.00  0.00     0.088 A 
HETATM    4  C   UNK N   1      29.163  15.954   4.010  0.00  0.00     0.042 A 
HETATM    5  C   UNK N   1      28.752  14.661   4.443  0.00  0.00    -0.017 A 
HETATM    6  C   UNK N   1      27.375  14.418   4.662  0.00  0.00     0.050 A 
HETATM    7  C   UNK N   1      30.490  16.170   3.645  0.00  0.00     0.094 A 
HETATM    8  C   UNK N   1      31.436  15.165   3.751  0.00  0.00     0.053 A 
HETATM    9  C   UNK N   1      31.080  13.898   4.277  0.00  0.00    -0.040 A 
HETATM   10  C   UNK N   1      29.725  13.647   4.600  0.00  0.00     0.020 A 
HETATM   11  C   UNK N   1      32.823  15.428   3.339  0.00  0.00     0.192 C 
HETATM   12  C   UNK N   1      33.873  14.570   3.897  0.00  0.00     0.206 C 
HETATM   13  C   UNK N   1      33.503  13.085   3.743  0.00  0.00     0.063 C 
HETATM   14  C   UNK N   1      32.142  12.809   4.457  0.00  0.00     0.050 C 
HETATM   15  O   UNK N   1      33.123  16.354   2.596  0.00  0.00    -0.289 OA
HETATM   16  C   UNK N   1      25.908  17.838   3.867  0.00  0.00     0.054 C 
ENDROOT
BRANCH  12  17
HETATM   17  O   UNK N   1      34.774  15.096   4.884  0.00  0.00    -0.348 OA
BRANCH  17  18
HETATM   18  C   UNK N   1      34.150  15.525   6.100  0.00  0.00     0.263 C 
HETATM   19  O   UNK N   1      34.701  16.698   6.643  0.00  0.00    -0.354 OA
HETATM   20  C   UNK N   1      33.671  17.313   7.381  0.00  0.00     0.151 C 
HETATM   21  C   UNK N   1      33.118  16.363   8.452  0.00  0.00     0.176 C 
HETATM   22  C   UNK N   1      34.202  18.566   8.040  0.00  0.00     0.042 C 
HETATM   23  C   UNK N   1      34.054  15.147   8.634  0.00  0.00     0.160 C 
HETATM   24  C   UNK N   1      34.268  14.473   7.234  0.00  0.00     0.095 C 
BRANCH  21  25
HETATM   25  O   UNK N   1      31.856  15.919   8.057  0.00  0.00    -0.390 OA
HETATM   26  H   UNK N   1      31.096  15.524   7.602  0.00  0.00     0.210 HD
ENDBRANCH  21  25
BRANCH  23  27
HETATM   27  O   UNK N   1      35.312  15.520   9.189  0.00  0.00    -0.353 OA
BRANCH  27  28
HETATM   28  C   UNK N   1      35.847  14.563  10.106  0.00  0.00     0.263 C 
HETATM   29  O   UNK N   1      35.036  13.389  10.135  0.00  0.00    -0.354 OA
HETATM   30  C   UNK N   1      35.769  12.233  10.480  0.00  0.00     0.151 C 
HETATM   31  C   UNK N   1      36.839  11.905   9.432  0.00  0.00     0.176 C 
HETATM   32  C   UNK N   1      34.835  11.052  10.684  0.00  0.00     0.042 C 
HETATM   33  C   UNK N   1      37.664  13.159   9.126  0.00  0.00     0.160 C 
HETATM   34  C   UNK N   1      37.383  14.349  10.039  0.00  0.00     0.095 C 
BRANCH  31  35
HETATM   35  O   UNK N   1      36.286  11.408   8.249  0.00  0.00    -0.390 OA
HETATM   36  H   UNK N   1      36.788  11.093   7.482  0.00  0.00     0.210 HD
ENDBRANCH  31  35
BRANCH  33  37
HETATM   37  O   UNK N   1      39.026  12.979   8.798  0.00  0.00    -0.353 OA
BRANCH  37  38
HETATM   38  C   UNK N   1      39.360  13.455   7.506  0.00  0.00     0.263 C 
HETATM   39  O   UNK N   1      38.252  13.494   6.613  0.00  0.00    -0.354 OA
HETATM   40  C   UNK N   1      38.441  12.518   5.620  0.00  0.00     0.152 C 
HETATM   41  C   UNK N   1      39.601  12.878   4.676  0.00  0.00     0.180 C 
HETATM   42  C   UNK N   1      37.149  12.161   4.909  0.00  0.00     0.042 C 
HETATM   43  C   UNK N   1      40.767  13.533   5.450  0.00  0.00     0.087 C 
HETATM   44  C   UNK N   1      40.745  13.071   6.908  0.00  0.00     0.101 C 
HETATM   45  C   UNK N   1      42.080  13.150   4.798  0.00  0.00     0.049 C 
BRANCH  41  46
HETATM   46  O   UNK N   1      39.183  13.703   3.626  0.00  0.00    -0.390 OA
HETATM   47  H   UNK N   1      38.891  13.353   2.770  0.00  0.00     0.210 HD
ENDBRANCH  41  46
BRANCH  43  48
HETATM   48  O   UNK N   1      40.647  14.926   5.431  0.00  0.00    -0.387 OA
HETATM   49  H   UNK N   1      40.214  15.642   4.939  0.00  0.00     0.210 HD
ENDBRANCH  43  48
ENDBRANCH  37  38
ENDBRANCH  33  37
ENDBRANCH  27  28
ENDBRANCH  23  27
ENDBRANCH  17  18
ENDBRANCH  12  17
BRANCH  13  50
HETATM   50  C   UNK N   1      33.303  12.852   2.219  0.00  0.00     0.200 C 
BRANCH  50  51
HETATM   51  C   UNK N   1      34.559  12.934   1.385  0.00  0.00     0.186 C 
HETATM   52  O   UNK N   1      34.671  13.841   0.573  0.00  0.00    -0.292 OA
BRANCH  51  53
HETATM   53  C   UNK N   1      35.654  11.921   1.522  0.00  0.00     0.218 C 
BRANCH  53  54
HETATM   54  C   UNK N   1      36.970  12.428   0.927  0.00  0.00     0.150 C 
HETATM   55  C   UNK N   1      38.081  11.427   1.178  0.00  0.00     0.042 C 
BRANCH  54  56
HETATM   56  O   UNK N   1      37.330  13.644   1.506  0.00  0.00    -0.393 OA
HETATM   57  H   UNK N   1      37.434  14.506   1.074  0.00  0.00     0.210 HD
ENDBRANCH  54  56
ENDBRANCH  53  54
BRANCH  53  58
HETATM   58  O   UNK N   1      35.263  10.751   0.864  0.00  0.00    -0.385 OA
HETATM   59  H   UNK N   1      35.827  10.048   0.509  0.00  0.00     0.210 HD
ENDBRANCH  53  58
ENDBRANCH  51  53
ENDBRANCH  50  51
BRANCH  50  60
HETATM   60  O   UNK N   1      32.562  11.707   1.921  0.00  0.00    -0.383 OA
HETATM   61  C   UNK N   1      31.684  12.117   0.911  0.00  0.00     0.202 C 
ENDBRANCH  50  60
ENDBRANCH  13  50
BRANCH   7  62
HETATM   62  O   UNK N   1      30.867  17.372   3.156  0.00  0.00    -0.359 OA
HETATM   63  H   UNK N   1      31.346  18.165   3.295  0.00  0.00     0.217 HD
ENDBRANCH   7  62
BRANCH   3  64
HETATM   64  O   UNK N   1      28.603  18.247   3.596  0.00  0.00    -0.359 OA
HETATM   65  H   UNK N   1      29.291  18.724   3.176  0.00  0.00     0.217 HD
ENDBRANCH   3  64
BRANCH   2  66
HETATM   66  O   UNK N   1      25.100  15.281   4.471  0.00  0.00    -0.320 OA
BRANCH  66  67
HETATM   67  C   UNK N   1      24.352  14.285   3.893  0.00  0.00     0.269 C 
HETATM   68  C   UNK N   1      23.108  13.900   4.724  0.00  0.00     0.096 C 
HETATM   69  C   UNK N   1      21.993  14.946   4.647  0.00  0.00     0.160 C 
HETATM   70  C   UNK N   1      21.935  15.658   3.280  0.00  0.00     0.176 C 
HETATM   71  C   UNK N   1      22.736  14.906   2.212  0.00  0.00     0.151 C 
HETATM   72  O   UNK N   1      24.100  14.670   2.538  0.00  0.00    -0.353 OA
HETATM   73  C   UNK N   1      22.058  13.622   1.773  0.00  0.00     0.042 C 
BRANCH  69  74
HETATM   74  O   UNK N   1      22.062  15.856   5.719  0.00  0.00    -0.353 OA
BRANCH  74  75
HETATM   75  C   UNK N   1      20.933  15.705   6.554  0.00  0.00     0.263 C 
HETATM   76  O   UNK N   1      20.662  14.361   6.943  0.00  0.00    -0.354 OA
HETATM   77  C   UNK N   1      21.200  14.173   8.229  0.00  0.00     0.151 C 
HETATM   78  C   UNK N   1      20.395  14.928   9.302  0.00  0.00     0.175 C 
HETATM   79  C   UNK N   1      21.447  12.708   8.537  0.00  0.00     0.042 C 
HETATM   80  C   UNK N   1      19.824  16.243   8.729  0.00  0.00     0.154 C 
HETATM   81  C   UNK N   1      20.777  16.781   7.657  0.00  0.00     0.095 C 
BRANCH  78  82
HETATM   82  O   UNK N   1      19.369  14.144   9.839  0.00  0.00    -0.390 OA
HETATM   83  H   UNK N   1      18.438  14.414   9.796  0.00  0.00     0.210 HD
ENDBRANCH  78  82
BRANCH  80  84
HETATM   84  O   UNK N   1      18.568  16.024   8.151  0.00  0.00    -0.393 OA
HETATM   85  H   UNK N   1      17.858  16.508   7.700  0.00  0.00     0.210 HD
ENDBRANCH  80  84
ENDBRANCH  74  75
ENDBRANCH  69  74
BRANCH  70  86
HETATM   86  O   UNK N   1      22.367  16.981   3.355  0.00  0.00    -0.390 OA
HETATM   87  H   UNK N   1      22.646  17.856   3.666  0.00  0.00     0.210 HD
ENDBRANCH  70  86
ENDBRANCH  66  67
ENDBRANCH   2  66
TORSDOF 26
ENDMDL
