MODEL 1
REMARK VINA RESULT:      -7.0      0.000      0.000
REMARK  3 active torsions:
REMARK  status: ('A' for Active; 'I' for Inactive)
REMARK    1  A    between atoms: N_4  and  C_9 
REMARK       I    between atoms: N_8  and  C_18 
REMARK    2  A    between atoms: C_9  and  C_10 
REMARK    3  A    between atoms: C_14  and  C_18 
ROOT
HETATM    1  N   UNK N   1      20.453  14.723   8.932  0.00  0.00    -0.280 N 
HETATM    2  N   UNK N   1      19.208  14.781   9.383  0.00  0.00    -0.020 NA
HETATM    3  N   UNK N   1      18.796  16.039   9.435  0.00  0.00    -0.278 N 
ATOM      4  HN  UNK N   1      17.881  16.369   9.744  1.00  0.00     0.184 HD
HETATM    5  C   UNK N   1      20.864  15.973   8.685  0.00  0.00     0.144 A 
HETATM    6  C   UNK N   1      19.819  16.798   9.002  0.00  0.00     0.130 A 
ENDROOT
BRANCH   1   7
HETATM    7  C   UNK N   1      21.168  13.452   8.770  0.00  0.00     0.191 C 
BRANCH   7   8
HETATM    8  C   UNK N   1      22.215  12.918   9.758  0.00  0.00     0.038 A 
HETATM    9  C   UNK N   1      21.992  12.290  11.024  0.00  0.00     0.127 A 
HETATM   10  F   UNK N   1      20.776  12.069  11.552  0.00  0.00    -0.205 F 
HETATM   11  C   UNK N   1      23.075  11.863  11.795  0.00  0.00     0.043 A 
HETATM   12  C   UNK N   1      24.380  12.038  11.354  0.00  0.00     0.006 A 
HETATM   13  C   UNK N   1      24.617  12.645  10.128  0.00  0.00     0.043 A 
HETATM   14  C   UNK N   1      23.553  13.081   9.338  0.00  0.00     0.127 A 
HETATM   15  F   UNK N   1      23.829  13.670   8.147  0.00  0.00    -0.205 F 
ENDBRANCH   7   8
ENDBRANCH   1   7
BRANCH   6  16
HETATM   16  C   UNK N   1      19.817  18.262   8.889  0.00  0.00     0.268 C 
HETATM   17  O   UNK N   1      20.415  18.803   7.971  0.00  0.00    -0.266 OA
HETATM   18  N   UNK N   1      19.159  19.014   9.792  0.00  0.00    -0.365 N 
HETATM   19  H   UNK N   1      19.162  19.995   9.710  0.00  0.00     0.159 HD
HETATM   20  H   UNK N   1      18.676  18.583  10.532  0.00  0.00     0.159 HD
ENDBRANCH   6  16
TORSDOF 3
ENDMDL
MODEL 2
REMARK VINA RESULT:      -6.9      0.176      2.031
REMARK  3 active torsions:
REMARK  status: ('A' for Active; 'I' for Inactive)
REMARK    1  A    between atoms: N_4  and  C_9 
REMARK       I    between atoms: N_8  and  C_18 
REMARK    2  A    between atoms: C_9  and  C_10 
REMARK    3  A    between atoms: C_14  and  C_18 
ROOT
HETATM    1  N   UNK N   1      20.427  14.708   8.935  0.00  0.00    -0.280 N 
HETATM    2  N   UNK N   1      19.188  14.795   9.399  0.00  0.00    -0.020 NA
HETATM    3  N   UNK N   1      18.800  16.061   9.439  0.00  0.00    -0.278 N 
ATOM      4  HN  UNK N   1      17.895  16.412   9.754  1.00  0.00     0.184 HD
HETATM    5  C   UNK N   1      20.858  15.947   8.667  0.00  0.00     0.144 A 
HETATM    6  C   UNK N   1      19.832  16.795   8.986  0.00  0.00     0.130 A 
ENDROOT
BRANCH   1   7
HETATM    7  C   UNK N   1      21.116  13.423   8.781  0.00  0.00     0.191 C 
BRANCH   7   8
HETATM    8  C   UNK N   1      22.295  12.965   9.652  0.00  0.00     0.038 A 
HETATM    9  C   UNK N   1      23.693  13.064   9.365  0.00  0.00     0.127 A 
HETATM   10  F   UNK N   1      24.195  13.598   8.238  0.00  0.00    -0.205 F 
HETATM   11  C   UNK N   1      24.633  12.591  10.283  0.00  0.00     0.043 A 
HETATM   12  C   UNK N   1      24.234  12.018  11.483  0.00  0.00     0.006 A 
HETATM   13  C   UNK N   1      22.881  11.913  11.780  0.00  0.00     0.043 A 
HETATM   14  C   UNK N   1      21.922  12.378  10.881  0.00  0.00     0.127 A 
HETATM   15  F   UNK N   1      20.611  12.255  11.211  0.00  0.00    -0.205 F 
ENDBRANCH   7   8
ENDBRANCH   1   7
BRANCH   6  16
HETATM   16  C   UNK N   1      19.856  18.257   8.853  0.00  0.00     0.268 C 
HETATM   17  O   UNK N   1      20.444  18.775   7.915  0.00  0.00    -0.266 OA
HETATM   18  N   UNK N   1      19.233  19.033   9.761  0.00  0.00    -0.365 N 
HETATM   19  H   UNK N   1      19.253  20.013   9.666  0.00  0.00     0.159 HD
HETATM   20  H   UNK N   1      18.759  18.621  10.518  0.00  0.00     0.159 HD
ENDBRANCH   6  16
TORSDOF 3
ENDMDL
MODEL 3
REMARK VINA RESULT:      -6.8     13.694     15.094
REMARK  3 active torsions:
REMARK  status: ('A' for Active; 'I' for Inactive)
REMARK    1  A    between atoms: N_4  and  C_9 
REMARK       I    between atoms: N_8  and  C_18 
REMARK    2  A    between atoms: C_9  and  C_10 
REMARK    3  A    between atoms: C_14  and  C_18 
ROOT
HETATM    1  N   UNK N   1      35.724  14.253  12.796  0.00  0.00    -0.280 N 
HETATM    2  N   UNK N   1      34.641  13.685  12.284  0.00  0.00    -0.020 NA
HETATM    3  N   UNK N   1      34.153  14.429  11.302  0.00  0.00    -0.278 N 
ATOM      4  HN  UNK N   1      33.327  14.228  10.737  1.00  0.00     0.184 HD
HETATM    5  C   UNK N   1      35.949  15.394  12.133  0.00  0.00     0.144 A 
HETATM    6  C   UNK N   1      34.958  15.501  11.194  0.00  0.00     0.130 A 
ENDROOT
BRANCH   1   7
HETATM    7  C   UNK N   1      36.475  13.649  13.901  0.00  0.00     0.191 C 
BRANCH   7   8
HETATM    8  C   UNK N   1      36.225  13.955  15.385  0.00  0.00     0.038 A 
HETATM    9  C   UNK N   1      36.850  14.953  16.197  0.00  0.00     0.127 A 
HETATM   10  F   UNK N   1      37.790  15.805  15.752  0.00  0.00    -0.205 F 
HETATM   11  C   UNK N   1      36.494  15.089  17.540  0.00  0.00     0.043 A 
HETATM   12  C   UNK N   1      35.534  14.266  18.112  0.00  0.00     0.006 A 
HETATM   13  C   UNK N   1      34.916  13.290  17.340  0.00  0.00     0.043 A 
HETATM   14  C   UNK N   1      35.253  13.133  15.996  0.00  0.00     0.127 A 
HETATM   15  F   UNK N   1      34.624  12.168  15.279  0.00  0.00    -0.205 F 
ENDBRANCH   7   8
ENDBRANCH   1   7
BRANCH   6  16
HETATM   16  C   UNK N   1      34.803  16.601  10.233  0.00  0.00     0.268 C 
HETATM   17  O   UNK N   1      35.613  17.515  10.217  0.00  0.00    -0.266 OA
HETATM   18  N   UNK N   1      33.771  16.608   9.367  0.00  0.00    -0.365 N 
HETATM   19  H   UNK N   1      33.673  17.348   8.725  0.00  0.00     0.159 HD
HETATM   20  H   UNK N   1      33.117  15.874   9.376  0.00  0.00     0.159 HD
ENDBRANCH   6  16
TORSDOF 3
ENDMDL
MODEL 4
REMARK VINA RESULT:      -6.7     13.845     15.070
REMARK  3 active torsions:
REMARK  status: ('A' for Active; 'I' for Inactive)
REMARK    1  A    between atoms: N_4  and  C_9 
REMARK       I    between atoms: N_8  and  C_18 
REMARK    2  A    between atoms: C_9  and  C_10 
REMARK    3  A    between atoms: C_14  and  C_18 
ROOT
HETATM    1  N   UNK N   1      35.757  14.118  12.936  0.00  0.00    -0.280 N 
HETATM    2  N   UNK N   1      34.731  13.555  12.313  0.00  0.00    -0.020 NA
HETATM    3  N   UNK N   1      34.299  14.341  11.337  0.00  0.00    -0.278 N 
ATOM      4  HN  UNK N   1      33.523  14.153  10.701  1.00  0.00     0.184 HD
HETATM    5  C   UNK N   1      36.000  15.299  12.354  0.00  0.00     0.144 A 
HETATM    6  C   UNK N   1      35.081  15.436  11.348  0.00  0.00     0.130 A 
ENDROOT
BRANCH   1   7
HETATM    7  C   UNK N   1      36.438  13.471  14.062  0.00  0.00     0.191 C 
BRANCH   7   8
HETATM    8  C   UNK N   1      36.078  13.700  15.537  0.00  0.00     0.038 A 
HETATM    9  C   UNK N   1      35.181  12.942  16.353  0.00  0.00     0.127 A 
HETATM   10  F   UNK N   1      34.494  11.870  15.923  0.00  0.00    -0.205 F 
HETATM   11  C   UNK N   1      34.974  13.300  17.687  0.00  0.00     0.043 A 
HETATM   12  C   UNK N   1      35.629  14.390  18.244  0.00  0.00     0.006 A 
HETATM   13  C   UNK N   1      36.503  15.139  17.468  0.00  0.00     0.043 A 
HETATM   14  C   UNK N   1      36.728  14.803  16.133  0.00  0.00     0.127 A 
HETATM   15  F   UNK N   1      37.591  15.562  15.411  0.00  0.00    -0.205 F 
ENDBRANCH   7   8
ENDBRANCH   1   7
BRANCH   6  16
HETATM   16  C   UNK N   1      34.969  16.583  10.438  0.00  0.00     0.268 C 
HETATM   17  O   UNK N   1      35.856  17.422  10.405  0.00  0.00    -0.266 OA
HETATM   18  N   UNK N   1      33.894  16.715   9.639  0.00  0.00    -0.365 N 
HETATM   19  H   UNK N   1      33.825  17.487   9.031  0.00  0.00     0.159 HD
HETATM   20  H   UNK N   1      33.177  16.042   9.662  0.00  0.00     0.159 HD
ENDBRANCH   6  16
TORSDOF 3
ENDMDL
MODEL 5
REMARK VINA RESULT:      -6.3      9.826     11.481
REMARK  3 active torsions:
REMARK  status: ('A' for Active; 'I' for Inactive)
REMARK    1  A    between atoms: N_4  and  C_9 
REMARK       I    between atoms: N_8  and  C_18 
REMARK    2  A    between atoms: C_9  and  C_10 
REMARK    3  A    between atoms: C_14  and  C_18 
ROOT
HETATM    1  N   UNK N   1      30.428  17.357   7.445  0.00  0.00    -0.280 N 
HETATM    2  N   UNK N   1      30.575  17.267   8.760  0.00  0.00    -0.020 NA
HETATM    3  N   UNK N   1      31.850  17.408   9.091  0.00  0.00    -0.278 N 
ATOM      4  HN  UNK N   1      32.242  17.381  10.033  1.00  0.00     0.184 HD
HETATM    5  C   UNK N   1      31.636  17.561   6.905  0.00  0.00     0.144 A 
HETATM    6  C   UNK N   1      32.528  17.592   7.944  0.00  0.00     0.130 A 
ENDROOT
BRANCH   1   7
HETATM    7  C   UNK N   1      29.119  17.239   6.795  0.00  0.00     0.191 C 
BRANCH   7   8
HETATM    8  C   UNK N   1      28.404  18.392   6.077  0.00  0.00     0.038 A 
HETATM    9  C   UNK N   1      28.216  18.574   4.671  0.00  0.00     0.127 A 
HETATM   10  F   UNK N   1      28.661  17.718   3.735  0.00  0.00    -0.205 F 
HETATM   11  C   UNK N   1      27.534  19.695   4.193  0.00  0.00     0.043 A 
HETATM   12  C   UNK N   1      27.028  20.649   5.065  0.00  0.00     0.006 A 
HETATM   13  C   UNK N   1      27.200  20.491   6.434  0.00  0.00     0.043 A 
HETATM   14  C   UNK N   1      27.877  19.380   6.938  0.00  0.00     0.127 A 
HETATM   15  F   UNK N   1      28.023  19.265   8.282  0.00  0.00    -0.205 F 
ENDBRANCH   7   8
ENDBRANCH   1   7
BRANCH   6  16
HETATM   16  C   UNK N   1      33.977  17.793   7.823  0.00  0.00     0.268 C 
HETATM   17  O   UNK N   1      34.490  17.883   6.718  0.00  0.00    -0.266 OA
HETATM   18  N   UNK N   1      34.747  17.879   8.925  0.00  0.00    -0.365 N 
HETATM   19  H   UNK N   1      35.718  18.014   8.837  0.00  0.00     0.159 HD
HETATM   20  H   UNK N   1      34.338  17.807   9.817  0.00  0.00     0.159 HD
ENDBRANCH   6  16
TORSDOF 3
ENDMDL
MODEL 6
REMARK VINA RESULT:      -6.3     11.686     13.399
REMARK  3 active torsions:
REMARK  status: ('A' for Active; 'I' for Inactive)
REMARK    1  A    between atoms: N_4  and  C_9 
REMARK       I    between atoms: N_8  and  C_18 
REMARK    2  A    between atoms: C_9  and  C_10 
REMARK    3  A    between atoms: C_14  and  C_18 
ROOT
HETATM    1  N   UNK N   1      34.422  16.988   9.322  0.00  0.00    -0.280 N 
HETATM    2  N   UNK N   1      35.345  17.391  10.184  0.00  0.00    -0.020 NA
HETATM    3  N   UNK N   1      35.584  16.442  11.077  0.00  0.00    -0.278 N 
ATOM      4  HN  UNK N   1      36.247  16.487  11.852  1.00  0.00     0.184 HD
HETATM    5  C   UNK N   1      34.050  15.748   9.660  0.00  0.00     0.144 A 
HETATM    6  C   UNK N   1      34.783  15.407  10.765  0.00  0.00     0.130 A 
ENDROOT
BRANCH   1   7
HETATM    7  C   UNK N   1      33.958  17.838   8.220  0.00  0.00     0.191 C 
BRANCH   7   8
HETATM    8  C   UNK N   1      32.673  17.587   7.417  0.00  0.00     0.038 A 
HETATM    9  C   UNK N   1      31.330  17.516   7.904  0.00  0.00     0.127 A 
HETATM   10  F   UNK N   1      30.988  17.667   9.195  0.00  0.00    -0.205 F 
HETATM   11  C   UNK N   1      30.276  17.278   7.020  0.00  0.00     0.043 A 
HETATM   12  C   UNK N   1      30.506  17.107   5.662  0.00  0.00     0.006 A 
HETATM   13  C   UNK N   1      31.803  17.172   5.170  0.00  0.00     0.043 A 
HETATM   14  C   UNK N   1      32.875  17.409   6.031  0.00  0.00     0.127 A 
HETATM   15  F   UNK N   1      34.126  17.465   5.508  0.00  0.00    -0.205 F 
ENDBRANCH   7   8
ENDBRANCH   1   7
BRANCH   6  16
HETATM   16  C   UNK N   1      34.707  14.130  11.484  0.00  0.00     0.268 C 
HETATM   17  O   UNK N   1      34.945  14.090  12.682  0.00  0.00    -0.266 OA
HETATM   18  N   UNK N   1      34.376  13.000  10.832  0.00  0.00    -0.365 N 
HETATM   19  H   UNK N   1      34.326  12.146  11.320  0.00  0.00     0.159 HD
HETATM   20  H   UNK N   1      34.183  13.027   9.867  0.00  0.00     0.159 HD
ENDBRANCH   6  16
TORSDOF 3
ENDMDL
MODEL 7
REMARK VINA RESULT:      -6.3      9.825     11.382
REMARK  3 active torsions:
REMARK  status: ('A' for Active; 'I' for Inactive)
REMARK    1  A    between atoms: N_4  and  C_9 
REMARK       I    between atoms: N_8  and  C_18 
REMARK    2  A    between atoms: C_9  and  C_10 
REMARK    3  A    between atoms: C_14  and  C_18 
ROOT
HETATM    1  N   UNK N   1      30.522  17.342   7.322  0.00  0.00    -0.280 N 
HETATM    2  N   UNK N   1      30.528  17.276   8.647  0.00  0.00    -0.020 NA
HETATM    3  N   UNK N   1      31.763  17.405   9.108  0.00  0.00    -0.278 N 
ATOM      4  HN  UNK N   1      32.053  17.391  10.087  1.00  0.00     0.184 HD
HETATM    5  C   UNK N   1      31.784  17.518   6.910  0.00  0.00     0.144 A 
HETATM    6  C   UNK N   1      32.561  17.557   8.036  0.00  0.00     0.130 A 
ENDROOT
BRANCH   1   7
HETATM    7  C   UNK N   1      29.287  17.230   6.540  0.00  0.00     0.191 C 
BRANCH   7   8
HETATM    8  C   UNK N   1      28.434  18.427   6.096  0.00  0.00     0.038 A 
HETATM    9  C   UNK N   1      27.800  19.411   6.919  0.00  0.00     0.127 A 
HETATM   10  F   UNK N   1      27.867  19.426   8.262  0.00  0.00    -0.205 F 
HETATM   11  C   UNK N   1      27.056  20.439   6.337  0.00  0.00     0.043 A 
HETATM   12  C   UNK N   1      26.916  20.527   4.959  0.00  0.00     0.006 A 
HETATM   13  C   UNK N   1      27.523  19.582   4.142  0.00  0.00     0.043 A 
HETATM   14  C   UNK N   1      28.272  18.545   4.698  0.00  0.00     0.127 A 
HETATM   15  F   UNK N   1      28.849  17.643   3.864  0.00  0.00    -0.205 F 
ENDBRANCH   7   8
ENDBRANCH   1   7
BRANCH   6  16
HETATM   16  C   UNK N   1      34.019  17.734   8.066  0.00  0.00     0.268 C 
HETATM   17  O   UNK N   1      34.619  18.020   7.040  0.00  0.00    -0.266 OA
HETATM   18  N   UNK N   1      34.699  17.585   9.218  0.00  0.00    -0.365 N 
HETATM   19  H   UNK N   1      35.677  17.705   9.231  0.00  0.00     0.159 HD
HETATM   20  H   UNK N   1      34.220  17.355  10.046  0.00  0.00     0.159 HD
ENDBRANCH   6  16
TORSDOF 3
ENDMDL
MODEL 8
REMARK VINA RESULT:      -6.2     14.021     15.144
REMARK  3 active torsions:
REMARK  status: ('A' for Active; 'I' for Inactive)
REMARK    1  A    between atoms: N_4  and  C_9 
REMARK       I    between atoms: N_8  and  C_18 
REMARK    2  A    between atoms: C_9  and  C_10 
REMARK    3  A    between atoms: C_14  and  C_18 
ROOT
HETATM    1  N   UNK N   1      35.820  14.177  13.391  0.00  0.00    -0.280 N 
HETATM    2  N   UNK N   1      34.878  13.365  12.931  0.00  0.00    -0.020 NA
HETATM    3  N   UNK N   1      34.428  13.798  11.763  0.00  0.00    -0.278 N 
ATOM      4  HN  UNK N   1      33.704  13.364  11.189  1.00  0.00     0.184 HD
HETATM    5  C   UNK N   1      35.988  15.164  12.502  0.00  0.00     0.144 A 
HETATM    6  C   UNK N   1      35.111  14.922  11.479  0.00  0.00     0.130 A 
ENDROOT
BRANCH   1   7
HETATM    7  C   UNK N   1      36.498  13.943  14.670  0.00  0.00     0.191 C 
BRANCH   7   8
HETATM    8  C   UNK N   1      36.238  12.730  15.576  0.00  0.00     0.038 A 
HETATM    9  C   UNK N   1      35.361  12.644  16.702  0.00  0.00     0.127 A 
HETATM   10  F   UNK N   1      34.604  13.662  17.147  0.00  0.00    -0.205 F 
HETATM   11  C   UNK N   1      35.250  11.449  17.415  0.00  0.00     0.043 A 
HETATM   12  C   UNK N   1      35.983  10.328  17.050  0.00  0.00     0.006 A 
HETATM   13  C   UNK N   1      36.840  10.391  15.959  0.00  0.00     0.043 A 
HETATM   14  C   UNK N   1      36.970  11.573  15.230  0.00  0.00     0.127 A 
HETATM   15  F   UNK N   1      37.819  11.591  14.171  0.00  0.00    -0.205 F 
ENDBRANCH   7   8
ENDBRANCH   1   7
BRANCH   6  16
HETATM   16  C   UNK N   1      34.946  15.750  10.278  0.00  0.00     0.268 C 
HETATM   17  O   UNK N   1      34.879  15.221   9.178  0.00  0.00    -0.266 OA
HETATM   18  N   UNK N   1      34.867  17.090  10.380  0.00  0.00    -0.365 N 
HETATM   19  H   UNK N   1      34.756  17.639   9.570  0.00  0.00     0.159 HD
HETATM   20  H   UNK N   1      34.920  17.520  11.263  0.00  0.00     0.159 HD
ENDBRANCH   6  16
TORSDOF 3
ENDMDL
MODEL 9
REMARK VINA RESULT:      -6.0     11.790     13.624
REMARK  3 active torsions:
REMARK  status: ('A' for Active; 'I' for Inactive)
REMARK    1  A    between atoms: N_4  and  C_9 
REMARK       I    between atoms: N_8  and  C_18 
REMARK    2  A    between atoms: C_9  and  C_10 
REMARK    3  A    between atoms: C_14  and  C_18 
ROOT
HETATM    1  N   UNK N   1      34.454  17.059   9.334  0.00  0.00    -0.280 N 
HETATM    2  N   UNK N   1      35.370  17.427  10.219  0.00  0.00    -0.020 NA
HETATM    3  N   UNK N   1      35.630  16.430  11.052  0.00  0.00    -0.278 N 
ATOM      4  HN  UNK N   1      36.293  16.441  11.828  1.00  0.00     0.184 HD
HETATM    5  C   UNK N   1      34.108  15.792   9.595  0.00  0.00     0.144 A 
HETATM    6  C   UNK N   1      34.850  15.400  10.677  0.00  0.00     0.130 A 
ENDROOT
BRANCH   1   7
HETATM    7  C   UNK N   1      33.971  17.964   8.286  0.00  0.00     0.191 C 
BRANCH   7   8
HETATM    8  C   UNK N   1      32.846  17.621   7.299  0.00  0.00     0.038 A 
HETATM    9  C   UNK N   1      32.959  17.307   5.908  0.00  0.00     0.127 A 
HETATM   10  F   UNK N   1      34.123  17.266   5.238  0.00  0.00    -0.205 F 
HETATM   11  C   UNK N   1      31.816  17.018   5.159  0.00  0.00     0.043 A 
HETATM   12  C   UNK N   1      30.557  17.030   5.743  0.00  0.00     0.006 A 
HETATM   13  C   UNK N   1      30.426  17.333   7.092  0.00  0.00     0.043 A 
HETATM   14  C   UNK N   1      31.551  17.625   7.863  0.00  0.00     0.127 A 
HETATM   15  F   UNK N   1      31.378  17.915   9.177  0.00  0.00    -0.205 F 
ENDBRANCH   7   8
ENDBRANCH   1   7
BRANCH   6  16
HETATM   16  C   UNK N   1      34.801  14.079  11.317  0.00  0.00     0.268 C 
HETATM   17  O   UNK N   1      34.721  13.994  12.533  0.00  0.00    -0.266 OA
HETATM   18  N   UNK N   1      34.844  12.959  10.571  0.00  0.00    -0.365 N 
HETATM   19  H   UNK N   1      34.811  12.076  11.006  0.00  0.00     0.159 HD
HETATM   20  H   UNK N   1      34.909  13.023   9.591  0.00  0.00     0.159 HD
ENDBRANCH   6  16
TORSDOF 3
ENDMDL
