MODEL 1
REMARK VINA RESULT:      -9.1      0.000      0.000
REMARK  10 active torsions:
REMARK  status: ('A' for Active; 'I' for Inactive)
REMARK    1  A    between atoms: C_30  and  C_21 
REMARK    2  A    between atoms: C_24  and  O_54 
REMARK    3  A    between atoms: S_56  and  C_25 
REMARK    4  A    between atoms: C_35  and  C_29 
REMARK    5  A    between atoms: O_53  and  C_31 
REMARK    6  A    between atoms: O_54  and  C_32 
REMARK    7  A    between atoms: C_34  and  O_48 
REMARK    8  A    between atoms: C_38  and  C_37 
REMARK    9  A    between atoms: O_50  and  C_37 
REMARK   10  A    between atoms: N_45  and  S_56 
ROOT
HETATM    1  C   UNK N   1      31.744  11.329   2.542  0.00  0.00     0.152 C 
HETATM    2  C   UNK N   1      34.160  14.668   4.779  0.00  0.00     0.027 C 
HETATM    3  C   UNK N   1      34.233  13.191   4.428  0.00  0.00     0.005 C 
HETATM    4  C   UNK N   1      35.230  15.019   5.757  0.00  0.00    -0.030 C 
HETATM    5  C   UNK N   1      34.293  12.975   2.918  0.00  0.00     0.020 C 
HETATM    6  C   UNK N   1      34.981  15.556   6.959  0.00  0.00    -0.023 C 
HETATM    7  C   UNK N   1      33.020  13.429   2.203  0.00  0.00     0.125 C 
HETATM    8  C   UNK N   1      29.331  15.416   5.250  0.00  0.00     0.046 C 
HETATM    9  C   UNK N   1      29.665  15.614   2.846  0.00  0.00     0.047 C 
HETATM   10  C   UNK N   1      33.653  17.342   7.771  0.00  0.00     0.052 A 
HETATM   11  C   UNK N   1      33.615  15.843   7.541  0.00  0.00     0.047 A 
HETATM   12  C   UNK N   1      28.654  15.901   3.976  0.00  0.00     0.130 C 
HETATM   13  C   UNK N   1      30.834  15.492   4.942  0.00  0.00     0.075 C 
HETATM   14  C   UNK N   1      30.888  14.969   3.498  0.00  0.00     0.092 C 
HETATM   15  C   UNK N   1      31.448  16.915   4.914  0.00  0.00     0.117 C 
HETATM   16  C   UNK N   1      30.841  13.451   3.350  0.00  0.00     0.224 C 
HETATM   17  C   UNK N   1      32.434  16.754   7.117  0.00  0.00     0.105 A 
HETATM   18  N   UNK N   1      32.286  17.341   5.806  0.00  0.00    -0.357 N 
ATOM     19  HN  UNK N   1      32.875  18.138   5.568  1.00  0.00     0.162 HD
HETATM   20  N   UNK N   1      31.843  12.755   2.723  0.00  0.00    -0.356 N 
HETATM   21  O   UNK N   1      29.869  12.839   3.787  0.00  0.00    -0.273 OA
ENDROOT
BRANCH  12  22
HETATM   22  O   UNK N   1      27.348  15.415   3.796  0.00  0.00    -0.345 OA
BRANCH  22  23
HETATM   23  C   UNK N   1      26.246  15.710   4.554  0.00  0.00     0.084 A 
HETATM   24  C   UNK N   1      25.771  14.811   5.496  0.00  0.00     0.070 A 
HETATM   25  C   UNK N   1      24.636  15.066   6.242  0.00  0.00     0.069 A 
HETATM   26  N   UNK N   1      23.941  16.222   6.045  0.00  0.00    -0.353 N 
HETATM   27  C   UNK N   1      24.339  17.133   5.099  0.00  0.00     0.054 A 
ATOM     28  HN  UNK N   1      23.112  16.413   6.608  1.00  0.00     0.166 HD
HETATM   29  C   UNK N   1      23.552  18.275   4.825  0.00  0.00    -0.001 A 
HETATM   30  C   UNK N   1      25.528  16.900   4.354  0.00  0.00     0.025 A 
HETATM   31  C   UNK N   1      22.275  18.460   5.585  0.00  0.00     0.054 C 
HETATM   32  C   UNK N   1      23.973  19.195   3.813  0.00  0.00     0.076 A 
HETATM   33  C   UNK N   1      25.171  18.955   3.134  0.00  0.00     0.038 A 
HETATM   34  C   UNK N   1      25.937  17.822   3.392  0.00  0.00     0.019 A 
BRANCH  25  35
HETATM   35  C   UNK N   1      24.220  14.034   7.203  0.00  0.00     0.101 A 
HETATM   36  N   UNK N   1      23.391  14.211   8.260  0.00  0.00    -0.351 N 
HETATM   37  C   UNK N   1      23.308  13.070   9.043  0.00  0.00     0.020 A 
ATOM     38  HN  UNK N   1      22.890  15.078   8.456  1.00  0.00     0.166 HD
HETATM   39  C   UNK N   1      24.056  11.961   8.588  0.00  0.00     0.077 A 
HETATM   40  S   UNK N   1      24.817  12.495   7.231  0.00  0.00    -0.080 SA
BRANCH  37  41
HETATM   41  C   UNK N   1      22.555  13.061  10.344  0.00  0.00     0.028 C 
HETATM   42  C   UNK N   1      22.932  11.887  11.242  0.00  0.00     0.016 C 
HETATM   43  C   UNK N   1      21.061  13.062  10.115  0.00  0.00     0.016 C 
ENDBRANCH  37  41
ENDBRANCH  25  35
BRANCH  32  44
HETATM   44  O   UNK N   1      23.274  20.306   3.445  0.00  0.00    -0.355 OA
HETATM   45  C   UNK N   1      22.186  20.354   2.605  0.00  0.00     0.210 C 
ENDBRANCH  32  44
ENDBRANCH  22  23
ENDBRANCH  12  22
BRANCH  15  46
HETATM   46  O   UNK N   1      31.181  17.724   3.867  0.00  0.00    -0.349 OA
HETATM   47  H   UNK N   1      30.733  18.454   3.489  0.00  0.00     0.219 HD
ENDBRANCH  15  46
BRANCH  17  48
HETATM   48  C   UNK N   1      31.290  17.111   8.040  0.00  0.00     0.154 C 
HETATM   49  N   UNK N   1      30.549  18.122   7.733  0.00  0.00    -0.266 N 
ATOM     50  HN  UNK N   1      30.791  18.643   6.890  1.00  0.00     0.180 HD
BRANCH  49  51
HETATM   51  S   UNK N   1      29.162  18.669   8.651  0.00  0.00     0.236 S 
HETATM   52  O   UNK N   1      28.622  17.262   8.353  0.00  0.00    -0.205 OA
HETATM   53  O   UNK N   1      29.271  18.194  10.106  0.00  0.00    -0.205 OA
BRANCH  51  54
HETATM   54  C   UNK N   1      27.560  19.120   7.898  0.00  0.00     0.130 A 
HETATM   55  C   UNK N   1      27.716  20.303   6.958  0.00  0.00     0.023 A 
HETATM   56  C   UNK N   1      27.618  18.900   6.401  0.00  0.00     0.023 A 
ENDBRANCH  51  54
ENDBRANCH  49  51
BRANCH  48  57
HETATM   57  O   UNK N   1      31.059  16.400   9.163  0.00  0.00    -0.347 OA
HETATM   58  H   UNK N   1      30.465  16.216   9.865  0.00  0.00     0.219 HD
ENDBRANCH  48  57
ENDBRANCH  17  48
TORSDOF 10
ENDMDL
MODEL 2
REMARK VINA RESULT:      -8.6      2.507      5.402
REMARK  10 active torsions:
REMARK  status: ('A' for Active; 'I' for Inactive)
REMARK    1  A    between atoms: C_30  and  C_21 
REMARK    2  A    between atoms: C_24  and  O_54 
REMARK    3  A    between atoms: S_56  and  C_25 
REMARK    4  A    between atoms: C_35  and  C_29 
REMARK    5  A    between atoms: O_53  and  C_31 
REMARK    6  A    between atoms: O_54  and  C_32 
REMARK    7  A    between atoms: C_34  and  O_48 
REMARK    8  A    between atoms: C_38  and  C_37 
REMARK    9  A    between atoms: O_50  and  C_37 
REMARK   10  A    between atoms: N_45  and  S_56 
ROOT
HETATM    1  C   UNK N   1      27.008  11.086   3.489  0.00  0.00     0.152 C 
HETATM    2  C   UNK N   1      31.096  13.093   2.370  0.00  0.00     0.027 C 
HETATM    3  C   UNK N   1      30.470  11.724   2.578  0.00  0.00     0.005 C 
HETATM    4  C   UNK N   1      32.577  12.969   2.246  0.00  0.00    -0.030 C 
HETATM    5  C   UNK N   1      29.357  11.457   1.566  0.00  0.00     0.020 C 
HETATM    6  C   UNK N   1      33.439  13.599   3.056  0.00  0.00    -0.023 C 
HETATM    7  C   UNK N   1      28.166  12.402   1.733  0.00  0.00     0.125 C 
HETATM    8  C   UNK N   1      28.597  15.899   5.531  0.00  0.00     0.046 C 
HETATM    9  C   UNK N   1      27.130  15.856   3.588  0.00  0.00     0.047 C 
HETATM   10  C   UNK N   1      33.693  15.811   3.866  0.00  0.00     0.052 A 
HETATM   11  C   UNK N   1      33.077  14.473   4.235  0.00  0.00     0.047 A 
HETATM   12  C   UNK N   1      27.388  16.592   4.920  0.00  0.00     0.130 C 
HETATM   13  C   UNK N   1      29.346  15.299   4.331  0.00  0.00     0.075 C 
HETATM   14  C   UNK N   1      28.190  14.761   3.474  0.00  0.00     0.092 C 
HETATM   15  C   UNK N   1      30.118  16.305   3.441  0.00  0.00     0.117 C 
HETATM   16  C   UNK N   1      27.623  13.414   3.912  0.00  0.00     0.224 C 
HETATM   17  C   UNK N   1      32.284  15.797   4.390  0.00  0.00     0.105 A 
HETATM   18  N   UNK N   1      31.412  16.348   3.380  0.00  0.00    -0.357 N 
ATOM     19  HN  UNK N   1      31.838  16.799   2.571  1.00  0.00     0.162 HD
HETATM   20  N   UNK N   1      27.606  12.329   3.071  0.00  0.00    -0.356 N 
HETATM   21  O   UNK N   1      27.150  13.303   5.041  0.00  0.00    -0.273 OA
ENDROOT
BRANCH  12  22
HETATM   22  O   UNK N   1      26.295  16.723   5.792  0.00  0.00    -0.345 OA
BRANCH  22  23
HETATM   23  C   UNK N   1      25.059  16.149   5.657  0.00  0.00     0.084 A 
HETATM   24  C   UNK N   1      24.144  16.637   4.738  0.00  0.00     0.070 A 
HETATM   25  C   UNK N   1      22.876  16.104   4.614  0.00  0.00     0.069 A 
HETATM   26  N   UNK N   1      22.490  15.078   5.424  0.00  0.00    -0.353 N 
HETATM   27  C   UNK N   1      23.337  14.577   6.381  0.00  0.00     0.054 A 
ATOM     28  HN  UNK N   1      21.558  14.677   5.320  1.00  0.00     0.166 HD
HETATM   29  C   UNK N   1      22.892  13.590   7.290  0.00  0.00    -0.001 A 
HETATM   30  C   UNK N   1      24.658  15.091   6.491  0.00  0.00     0.025 A 
HETATM   31  C   UNK N   1      21.476  13.112   7.185  0.00  0.00     0.054 C 
HETATM   32  C   UNK N   1      23.783  13.104   8.297  0.00  0.00     0.076 A 
HETATM   33  C   UNK N   1      25.089  13.602   8.344  0.00  0.00     0.038 A 
HETATM   34  C   UNK N   1      25.523  14.586   7.461  0.00  0.00     0.019 A 
BRANCH  25  35
HETATM   35  C   UNK N   1      21.989  16.711   3.612  0.00  0.00     0.101 A 
HETATM   36  N   UNK N   1      21.759  18.035   3.442  0.00  0.00    -0.351 N 
HETATM   37  C   UNK N   1      20.771  18.268   2.498  0.00  0.00     0.020 A 
ATOM     38  HN  UNK N   1      22.252  18.772   3.948  1.00  0.00     0.166 HD
HETATM   39  C   UNK N   1      20.227  17.117   1.886  0.00  0.00     0.077 A 
HETATM   40  S   UNK N   1      21.004  15.854   2.600  0.00  0.00    -0.080 SA
BRANCH  37  41
HETATM   41  C   UNK N   1      20.246  19.651   2.232  0.00  0.00     0.028 C 
HETATM   42  C   UNK N   1      20.908  20.319   1.032  0.00  0.00     0.016 C 
HETATM   43  C   UNK N   1      20.391  20.538   3.447  0.00  0.00     0.016 C 
ENDBRANCH  37  41
ENDBRANCH  25  35
BRANCH  32  44
HETATM   44  O   UNK N   1      23.448  12.183   9.243  0.00  0.00    -0.355 OA
HETATM   45  C   UNK N   1      23.552  12.325  10.607  0.00  0.00     0.210 C 
ENDBRANCH  32  44
ENDBRANCH  22  23
ENDBRANCH  12  22
BRANCH  15  46
HETATM   46  O   UNK N   1      29.424  17.117   2.616  0.00  0.00    -0.349 OA
HETATM   47  H   UNK N   1      29.341  17.594   1.814  0.00  0.00     0.219 HD
ENDBRANCH  15  46
BRANCH  17  48
HETATM   48  C   UNK N   1      32.328  16.648   5.640  0.00  0.00     0.154 C 
HETATM   49  N   UNK N   1      31.533  16.349   6.611  0.00  0.00    -0.266 N 
ATOM     50  HN  UNK N   1      30.897  15.564   6.472  1.00  0.00     0.180 HD
BRANCH  49  51
HETATM   51  S   UNK N   1      31.459  17.187   8.146  0.00  0.00     0.236 S 
HETATM   52  O   UNK N   1      31.593  15.774   8.733  0.00  0.00    -0.205 OA
HETATM   53  O   UNK N   1      32.876  17.421   8.689  0.00  0.00    -0.205 OA
BRANCH  51  54
HETATM   54  C   UNK N   1      29.995  17.180   9.239  0.00  0.00     0.130 A 
HETATM   55  C   UNK N   1      29.690  18.580   9.746  0.00  0.00     0.023 A 
HETATM   56  C   UNK N   1      28.883  17.993   8.609  0.00  0.00     0.023 A 
ENDBRANCH  51  54
ENDBRANCH  49  51
BRANCH  48  57
HETATM   57  O   UNK N   1      33.167  17.700   5.732  0.00  0.00    -0.347 OA
HETATM   58  H   UNK N   1      33.443  18.440   6.238  0.00  0.00     0.219 HD
ENDBRANCH  48  57
ENDBRANCH  17  48
TORSDOF 10
ENDMDL
MODEL 3
REMARK VINA RESULT:      -8.6      2.524      5.370
REMARK  10 active torsions:
REMARK  status: ('A' for Active; 'I' for Inactive)
REMARK    1  A    between atoms: C_30  and  C_21 
REMARK    2  A    between atoms: C_24  and  O_54 
REMARK    3  A    between atoms: S_56  and  C_25 
REMARK    4  A    between atoms: C_35  and  C_29 
REMARK    5  A    between atoms: O_53  and  C_31 
REMARK    6  A    between atoms: O_54  and  C_32 
REMARK    7  A    between atoms: C_34  and  O_48 
REMARK    8  A    between atoms: C_38  and  C_37 
REMARK    9  A    between atoms: O_50  and  C_37 
REMARK   10  A    between atoms: N_45  and  S_56 
ROOT
HETATM    1  C   UNK N   1      29.976   9.525   3.526  0.00  0.00     0.152 C 
HETATM    2  C   UNK N   1      31.718  13.809   2.748  0.00  0.00     0.027 C 
HETATM    3  C   UNK N   1      32.167  12.381   3.008  0.00  0.00     0.005 C 
HETATM    4  C   UNK N   1      32.883  14.738   2.827  0.00  0.00    -0.030 C 
HETATM    5  C   UNK N   1      31.716  11.439   1.894  0.00  0.00     0.020 C 
HETATM    6  C   UNK N   1      32.940  15.774   3.675  0.00  0.00    -0.023 C 
HETATM    7  C   UNK N   1      30.195  11.304   1.811  0.00  0.00     0.125 C 
HETATM    8  C   UNK N   1      27.512  14.082   5.266  0.00  0.00     0.046 C 
HETATM    9  C   UNK N   1      26.806  13.074   3.164  0.00  0.00     0.047 C 
HETATM   10  C   UNK N   1      31.488  17.543   4.287  0.00  0.00     0.052 A 
HETATM   11  C   UNK N   1      31.896  16.142   4.705  0.00  0.00     0.047 A 
HETATM   12  C   UNK N   1      26.275  13.765   4.439  0.00  0.00     0.130 C 
HETATM   13  C   UNK N   1      28.650  14.179   4.238  0.00  0.00     0.075 C 
HETATM   14  C   UNK N   1      28.328  13.008   3.298  0.00  0.00     0.092 C 
HETATM   15  C   UNK N   1      28.662  15.454   3.359  0.00  0.00     0.117 C 
HETATM   16  C   UNK N   1      28.766  11.632   3.791  0.00  0.00     0.224 C 
HETATM   17  C   UNK N   1      30.404  16.557   4.624  0.00  0.00     0.105 A 
HETATM   18  N   UNK N   1      29.569  16.375   3.461  0.00  0.00    -0.357 N 
ATOM     19  HN  UNK N   1      29.699  17.008   2.672  1.00  0.00     0.162 HD
HETATM   20  N   UNK N   1      29.627  10.846   3.067  0.00  0.00    -0.356 N 
HETATM   21  O   UNK N   1      28.320  11.209   4.855  0.00  0.00    -0.273 OA
ENDROOT
BRANCH  12  22
HETATM   22  O   UNK N   1      25.263  13.096   5.146  0.00  0.00    -0.345 OA
BRANCH  22  23
HETATM   23  C   UNK N   1      24.176  13.658   5.760  0.00  0.00     0.084 A 
HETATM   24  C   UNK N   1      23.562  14.782   5.230  0.00  0.00     0.070 A 
HETATM   25  C   UNK N   1      22.492  15.395   5.854  0.00  0.00     0.069 A 
HETATM   26  N   UNK N   1      22.026  14.904   7.036  0.00  0.00    -0.353 N 
HETATM   27  C   UNK N   1      22.616  13.817   7.631  0.00  0.00     0.054 A 
ATOM     28  HN  UNK N   1      21.226  15.350   7.486  1.00  0.00     0.166 HD
HETATM   29  C   UNK N   1      22.197  13.381   8.910  0.00  0.00    -0.001 A 
HETATM   30  C   UNK N   1      23.692  13.154   6.979  0.00  0.00     0.025 A 
HETATM   31  C   UNK N   1      21.102  14.138   9.596  0.00  0.00     0.054 C 
HETATM   32  C   UNK N   1      22.848  12.265   9.523  0.00  0.00     0.076 A 
HETATM   33  C   UNK N   1      23.871  11.612   8.830  0.00  0.00     0.038 A 
HETATM   34  C   UNK N   1      24.296  12.050   7.579  0.00  0.00     0.019 A 
BRANCH  25  35
HETATM   35  C   UNK N   1      21.930  16.587   5.203  0.00  0.00     0.101 A 
HETATM   36  N   UNK N   1      21.248  16.615   4.033  0.00  0.00    -0.351 N 
HETATM   37  C   UNK N   1      20.969  17.913   3.633  0.00  0.00     0.020 A 
ATOM     38  HN  UNK N   1      20.973  15.783   3.510  1.00  0.00     0.166 HD
HETATM   39  C   UNK N   1      21.408  18.930   4.509  0.00  0.00     0.077 A 
HETATM   40  S   UNK N   1      22.163  18.133   5.734  0.00  0.00    -0.080 SA
BRANCH  37  41
HETATM   41  C   UNK N   1      20.338  18.207   2.301  0.00  0.00     0.028 C 
HETATM   42  C   UNK N   1      19.046  19.008   2.419  0.00  0.00     0.016 C 
HETATM   43  C   UNK N   1      20.076  16.938   1.523  0.00  0.00     0.016 C 
ENDBRANCH  37  41
ENDBRANCH  25  35
BRANCH  32  44
HETATM   44  O   UNK N   1      22.549  11.786  10.763  0.00  0.00    -0.355 OA
HETATM   45  C   UNK N   1      23.366  11.794  11.869  0.00  0.00     0.210 C 
ENDBRANCH  32  44
ENDBRANCH  22  23
ENDBRANCH  12  22
BRANCH  15  46
HETATM   46  O   UNK N   1      27.748  15.581   2.375  0.00  0.00    -0.349 OA
HETATM   47  H   UNK N   1      27.503  15.531   1.472  0.00  0.00     0.219 HD
ENDBRANCH  15  46
BRANCH  17  48
HETATM   48  C   UNK N   1      29.656  17.186   5.778  0.00  0.00     0.154 C 
HETATM   49  N   UNK N   1      29.043  18.303   5.574  0.00  0.00    -0.266 N 
ATOM     50  HN  UNK N   1      29.117  18.715   4.644  1.00  0.00     0.180 HD
BRANCH  49  51
HETATM   51  S   UNK N   1      28.097  19.166   6.767  0.00  0.00     0.236 S 
HETATM   52  O   UNK N   1      27.027  18.116   6.432  0.00  0.00    -0.205 OA
HETATM   53  O   UNK N   1      28.195  18.463   8.128  0.00  0.00    -0.205 OA
BRANCH  51  54
HETATM   54  C   UNK N   1      26.709  20.280   6.353  0.00  0.00     0.130 A 
HETATM   55  C   UNK N   1      27.183  21.719   6.245  0.00  0.00     0.023 A 
HETATM   56  C   UNK N   1      26.944  20.904   4.993  0.00  0.00     0.023 A 
ENDBRANCH  51  54
ENDBRANCH  49  51
BRANCH  48  57
HETATM   57  O   UNK N   1      29.641  16.602   6.994  0.00  0.00    -0.347 OA
HETATM   58  H   UNK N   1      30.147  16.252   7.701  0.00  0.00     0.219 HD
ENDBRANCH  48  57
ENDBRANCH  17  48
TORSDOF 10
ENDMDL
MODEL 4
REMARK VINA RESULT:      -8.5      3.316      7.801
REMARK  10 active torsions:
REMARK  status: ('A' for Active; 'I' for Inactive)
REMARK    1  A    between atoms: C_30  and  C_21 
REMARK    2  A    between atoms: C_24  and  O_54 
REMARK    3  A    between atoms: S_56  and  C_25 
REMARK    4  A    between atoms: C_35  and  C_29 
REMARK    5  A    between atoms: O_53  and  C_31 
REMARK    6  A    between atoms: O_54  and  C_32 
REMARK    7  A    between atoms: C_34  and  O_48 
REMARK    8  A    between atoms: C_38  and  C_37 
REMARK    9  A    between atoms: O_50  and  C_37 
REMARK   10  A    between atoms: N_45  and  S_56 
ROOT
HETATM    1  C   UNK N   1      36.043  13.917   0.269  0.00  0.00     0.152 C 
HETATM    2  C   UNK N   1      32.265  11.151   0.004  0.00  0.00     0.027 C 
HETATM    3  C   UNK N   1      33.369  11.729  -0.865  0.00  0.00     0.005 C 
HETATM    4  C   UNK N   1      31.224  10.505  -0.847  0.00  0.00    -0.030 C 
HETATM    5  C   UNK N   1      34.746  11.236  -0.425  0.00  0.00     0.020 C 
HETATM    6  C   UNK N   1      29.933  10.864  -0.829  0.00  0.00    -0.023 C 
HETATM    7  C   UNK N   1      35.130  11.720   0.973  0.00  0.00     0.125 C 
HETATM    8  C   UNK N   1      31.604  14.667   3.366  0.00  0.00     0.046 C 
HETATM    9  C   UNK N   1      33.490  13.419   4.270  0.00  0.00     0.047 C 
HETATM   10  C   UNK N   1      28.311  11.266   0.850  0.00  0.00     0.052 A 
HETATM   11  C   UNK N   1      29.331  11.985  -0.014  0.00  0.00     0.047 A 
HETATM   12  C   UNK N   1      32.419  14.469   4.636  0.00  0.00     0.130 C 
HETATM   13  C   UNK N   1      31.774  13.353   2.589  0.00  0.00     0.075 C 
HETATM   14  C   UNK N   1      33.264  13.049   2.804  0.00  0.00     0.092 C 
HETATM   15  C   UNK N   1      30.995  12.133   3.141  0.00  0.00     0.117 C 
HETATM   16  C   UNK N   1      34.226  13.815   1.901  0.00  0.00     0.224 C 
HETATM   17  C   UNK N   1      29.217  12.269   1.507  0.00  0.00     0.105 A 
HETATM   18  N   UNK N   1      29.991  11.596   2.523  0.00  0.00    -0.357 N 
ATOM     19  HN  UNK N   1      29.732  10.641   2.769  1.00  0.00     0.162 HD
HETATM   20  N   UNK N   1      35.103  13.169   1.066  0.00  0.00    -0.356 N 
HETATM   21  O   UNK N   1      34.229  15.044   1.937  0.00  0.00    -0.273 OA
ENDROOT
BRANCH  12  22
HETATM   22  O   UNK N   1      32.876  15.661   5.221  0.00  0.00    -0.345 OA
BRANCH  22  23
HETATM   23  C   UNK N   1      32.606  16.116   6.484  0.00  0.00     0.084 A 
HETATM   24  C   UNK N   1      33.416  15.768   7.554  0.00  0.00     0.070 A 
HETATM   25  C   UNK N   1      33.139  16.178   8.844  0.00  0.00     0.069 A 
HETATM   26  N   UNK N   1      32.031  16.932   9.093  0.00  0.00    -0.353 N 
HETATM   27  C   UNK N   1      31.170  17.276   8.082  0.00  0.00     0.054 A 
ATOM     28  HN  UNK N   1      31.839  17.245  10.044  1.00  0.00     0.166 HD
HETATM   29  C   UNK N   1      29.967  17.963   8.365  0.00  0.00    -0.001 A 
HETATM   30  C   UNK N   1      31.465  16.894   6.744  0.00  0.00     0.025 A 
HETATM   31  C   UNK N   1      29.657  18.298   9.791  0.00  0.00     0.054 C 
HETATM   32  C   UNK N   1      29.070  18.285   7.298  0.00  0.00     0.076 A 
HETATM   33  C   UNK N   1      29.417  17.932   5.990  0.00  0.00     0.038 A 
HETATM   34  C   UNK N   1      30.593  17.240   5.713  0.00  0.00     0.019 A 
BRANCH  25  35
HETATM   35  C   UNK N   1      34.063  15.738   9.899  0.00  0.00     0.101 A 
HETATM   36  N   UNK N   1      33.969  14.596  10.621  0.00  0.00    -0.351 N 
HETATM   37  C   UNK N   1      34.924  14.543  11.625  0.00  0.00     0.020 A 
ATOM     38  HN  UNK N   1      33.279  13.863  10.449  1.00  0.00     0.166 HD
HETATM   39  C   UNK N   1      35.809  15.643  11.684  0.00  0.00     0.077 A 
HETATM   40  S   UNK N   1      35.312  16.648  10.480  0.00  0.00    -0.080 SA
BRANCH  37  41
HETATM   41  C   UNK N   1      34.938  13.437  12.643  0.00  0.00     0.028 C 
HETATM   42  C   UNK N   1      35.856  13.726  13.824  0.00  0.00     0.016 C 
HETATM   43  C   UNK N   1      35.321  12.117  12.015  0.00  0.00     0.016 C 
ENDBRANCH  37  41
ENDBRANCH  25  35
BRANCH  32  44
HETATM   44  O   UNK N   1      27.871  18.911   7.462  0.00  0.00    -0.355 OA
HETATM   45  C   UNK N   1      27.437  20.043   6.813  0.00  0.00     0.210 C 
ENDBRANCH  32  44
ENDBRANCH  22  23
ENDBRANCH  12  22
BRANCH  15  46
HETATM   46  O   UNK N   1      31.429  11.534   4.270  0.00  0.00    -0.349 OA
HETATM   47  H   UNK N   1      32.119  11.289   4.855  0.00  0.00     0.219 HD
ENDBRANCH  15  46
BRANCH  17  48
HETATM   48  C   UNK N   1      28.285  13.309   2.088  0.00  0.00     0.154 C 
HETATM   49  N   UNK N   1      27.544  12.975   3.090  0.00  0.00    -0.266 N 
ATOM     50  HN  UNK N   1      27.612  12.013   3.424  1.00  0.00     0.180 HD
BRANCH  49  51
HETATM   51  S   UNK N   1      26.432  14.042   3.921  0.00  0.00     0.236 S 
HETATM   52  O   UNK N   1      27.696  14.870   4.195  0.00  0.00    -0.205 OA
HETATM   53  O   UNK N   1      26.017  15.195   2.997  0.00  0.00    -0.205 OA
BRANCH  51  54
HETATM   54  C   UNK N   1      26.313  14.169   5.739  0.00  0.00     0.130 A 
HETATM   55  C   UNK N   1      24.886  14.467   6.169  0.00  0.00     0.023 A 
HETATM   56  C   UNK N   1      25.431  13.060   6.272  0.00  0.00     0.023 A 
ENDBRANCH  51  54
ENDBRANCH  49  51
BRANCH  48  57
HETATM   57  O   UNK N   1      28.218  14.550   1.563  0.00  0.00    -0.347 OA
HETATM   58  H   UNK N   1      28.396  15.098   0.823  0.00  0.00     0.219 HD
ENDBRANCH  48  57
ENDBRANCH  17  48
TORSDOF 10
ENDMDL
MODEL 5
REMARK VINA RESULT:      -8.4      3.370      6.948
REMARK  10 active torsions:
REMARK  status: ('A' for Active; 'I' for Inactive)
REMARK    1  A    between atoms: C_30  and  C_21 
REMARK    2  A    between atoms: C_24  and  O_54 
REMARK    3  A    between atoms: S_56  and  C_25 
REMARK    4  A    between atoms: C_35  and  C_29 
REMARK    5  A    between atoms: O_53  and  C_31 
REMARK    6  A    between atoms: O_54  and  C_32 
REMARK    7  A    between atoms: C_34  and  O_48 
REMARK    8  A    between atoms: C_38  and  C_37 
REMARK    9  A    between atoms: O_50  and  C_37 
REMARK   10  A    between atoms: N_45  and  S_56 
ROOT
HETATM    1  C   UNK N   1      27.804  19.649   7.420  0.00  0.00     0.152 C 
HETATM    2  C   UNK N   1      31.815  17.364   8.244  0.00  0.00     0.027 C 
HETATM    3  C   UNK N   1      31.131  18.690   8.531  0.00  0.00     0.005 C 
HETATM    4  C   UNK N   1      33.250  17.426   8.649  0.00  0.00    -0.030 C 
HETATM    5  C   UNK N   1      29.865  18.499   9.364  0.00  0.00     0.020 C 
HETATM    6  C   UNK N   1      34.264  17.203   7.803  0.00  0.00    -0.023 C 
HETATM    7  C   UNK N   1      28.782  17.713   8.625  0.00  0.00     0.125 C 
HETATM    8  C   UNK N   1      30.015  16.167   3.836  0.00  0.00     0.046 C 
HETATM    9  C   UNK N   1      28.278  15.376   5.349  0.00  0.00     0.047 C 
HETATM   10  C   UNK N   1      34.791  15.547   6.192  0.00  0.00     0.052 A 
HETATM   11  C   UNK N   1      34.142  16.914   6.324  0.00  0.00     0.047 A 
HETATM   12  C   UNK N   1      28.782  15.278   3.893  0.00  0.00     0.130 C 
HETATM   13  C   UNK N   1      30.534  16.201   5.281  0.00  0.00     0.075 C 
HETATM   14  C   UNK N   1      29.230  16.321   6.083  0.00  0.00     0.092 C 
HETATM   15  C   UNK N   1      31.237  14.913   5.779  0.00  0.00     0.117 C 
HETATM   16  C   UNK N   1      28.639  17.725   6.166  0.00  0.00     0.224 C 
HETATM   17  C   UNK N   1      33.477  15.780   5.500  0.00  0.00     0.105 A 
HETATM   18  N   UNK N   1      32.507  14.850   6.027  0.00  0.00    -0.357 N 
ATOM     19  HN  UNK N   1      32.841  14.099   6.630  1.00  0.00     0.162 HD
HETATM   20  N   UNK N   1      28.421  18.348   7.369  0.00  0.00    -0.356 N 
HETATM   21  O   UNK N   1      28.330  18.305   5.126  0.00  0.00    -0.273 OA
ENDROOT
BRANCH  12  22
HETATM   22  O   UNK N   1      27.841  15.528   2.881  0.00  0.00    -0.345 OA
BRANCH  22  23
HETATM   23  C   UNK N   1      26.524  15.151   2.867  0.00  0.00     0.084 A 
HETATM   24  C   UNK N   1      25.540  15.986   3.373  0.00  0.00     0.070 A 
HETATM   25  C   UNK N   1      24.211  15.611   3.411  0.00  0.00     0.069 A 
HETATM   26  N   UNK N   1      23.842  14.379   2.959  0.00  0.00    -0.353 N 
HETATM   27  C   UNK N   1      24.775  13.493   2.482  0.00  0.00     0.054 A 
ATOM     28  HN  UNK N   1      22.858  14.112   2.975  1.00  0.00     0.166 HD
HETATM   29  C   UNK N   1      24.399  12.179   2.119  0.00  0.00    -0.001 A 
HETATM   30  C   UNK N   1      26.140  13.883   2.401  0.00  0.00     0.025 A 
HETATM   31  C   UNK N   1      22.963  11.781   2.273  0.00  0.00     0.054 C 
HETATM   32  C   UNK N   1      25.394  11.263   1.654  0.00  0.00     0.076 A 
HETATM   33  C   UNK N   1      26.718  11.698   1.545  0.00  0.00     0.038 A 
HETATM   34  C   UNK N   1      27.092  12.986   1.919  0.00  0.00     0.019 A 
BRANCH  25  35
HETATM   35  C   UNK N   1      23.259  16.575   3.980  0.00  0.00     0.101 A 
HETATM   36  N   UNK N   1      22.509  17.465   3.287  0.00  0.00    -0.351 N 
HETATM   37  C   UNK N   1      21.813  18.317   4.131  0.00  0.00     0.020 A 
ATOM     38  HN  UNK N   1      22.462  17.504   2.268  1.00  0.00     0.166 HD
HETATM   39  C   UNK N   1      21.987  18.084   5.513  0.00  0.00     0.077 A 
HETATM   40  S   UNK N   1      23.047  16.828   5.598  0.00  0.00    -0.080 SA
BRANCH  37  41
HETATM   41  C   UNK N   1      21.016  19.475   3.598  0.00  0.00     0.028 C 
HETATM   42  C   UNK N   1      19.800  19.039   2.789  0.00  0.00     0.016 C 
HETATM   43  C   UNK N   1      21.875  20.396   2.763  0.00  0.00     0.016 C 
ENDBRANCH  37  41
ENDBRANCH  25  35
BRANCH  32  44
HETATM   44  O   UNK N   1      25.148   9.967   1.312  0.00  0.00    -0.355 OA
HETATM   45  C   UNK N   1      24.868   9.486   0.055  0.00  0.00     0.210 C 
ENDBRANCH  32  44
ENDBRANCH  22  23
ENDBRANCH  12  22
BRANCH  15  46
HETATM   46  O   UNK N   1      30.489  13.826   6.062  0.00  0.00    -0.349 OA
HETATM   47  H   UNK N   1      29.872  13.166   5.810  0.00  0.00     0.219 HD
ENDBRANCH  15  46
BRANCH  17  48
HETATM   48  C   UNK N   1      33.765  15.543   4.034  0.00  0.00     0.154 C 
HETATM   49  N   UNK N   1      34.373  14.455   3.699  0.00  0.00    -0.266 N 
ATOM     50  HN  UNK N   1      34.648  13.821   4.449  1.00  0.00     0.180 HD
BRANCH  49  51
HETATM   51  S   UNK N   1      34.763  13.984   2.059  0.00  0.00     0.236 S 
HETATM   52  O   UNK N   1      33.243  14.055   1.856  0.00  0.00    -0.205 OA
HETATM   53  O   UNK N   1      34.826  15.222   1.154  0.00  0.00    -0.205 OA
BRANCH  51  54
HETATM   54  C   UNK N   1      34.476  12.310   1.387  0.00  0.00     0.130 A 
HETATM   55  C   UNK N   1      35.752  11.739   0.790  0.00  0.00     0.023 A 
HETATM   56  C   UNK N   1      35.294  11.300   2.163  0.00  0.00     0.023 A 
ENDBRANCH  51  54
ENDBRANCH  49  51
BRANCH  48  57
HETATM   57  O   UNK N   1      33.410  16.451   3.102  0.00  0.00    -0.347 OA
HETATM   58  H   UNK N   1      33.641  17.238   2.646  0.00  0.00     0.219 HD
ENDBRANCH  48  57
ENDBRANCH  17  48
TORSDOF 10
ENDMDL
MODEL 6
REMARK VINA RESULT:      -8.4      4.648     10.016
REMARK  10 active torsions:
REMARK  status: ('A' for Active; 'I' for Inactive)
REMARK    1  A    between atoms: C_30  and  C_21 
REMARK    2  A    between atoms: C_24  and  O_54 
REMARK    3  A    between atoms: S_56  and  C_25 
REMARK    4  A    between atoms: C_35  and  C_29 
REMARK    5  A    between atoms: O_53  and  C_31 
REMARK    6  A    between atoms: O_54  and  C_32 
REMARK    7  A    between atoms: C_34  and  O_48 
REMARK    8  A    between atoms: C_38  and  C_37 
REMARK    9  A    between atoms: O_50  and  C_37 
REMARK   10  A    between atoms: N_45  and  S_56 
ROOT
HETATM    1  C   UNK N   1      29.663  16.460  10.623  0.00  0.00     0.152 C 
HETATM    2  C   UNK N   1      29.359  17.506   6.061  0.00  0.00     0.027 C 
HETATM    3  C   UNK N   1      28.488  17.119   7.245  0.00  0.00     0.005 C 
HETATM    4  C   UNK N   1      28.564  17.457   4.799  0.00  0.00    -0.030 C 
HETATM    5  C   UNK N   1      28.542  18.172   8.350  0.00  0.00     0.020 C 
HETATM    6  C   UNK N   1      28.896  16.692   3.751  0.00  0.00    -0.023 C 
HETATM    7  C   UNK N   1      29.930  18.299   8.979  0.00  0.00     0.125 C 
HETATM    8  C   UNK N   1      33.569  15.172   7.025  0.00  0.00     0.046 C 
HETATM    9  C   UNK N   1      33.783  17.213   8.337  0.00  0.00     0.047 C 
HETATM   10  C   UNK N   1      30.878  16.273   2.521  0.00  0.00     0.052 A 
HETATM   11  C   UNK N   1      30.063  15.732   3.682  0.00  0.00     0.047 A 
HETATM   12  C   UNK N   1      34.585  16.017   7.780  0.00  0.00     0.130 C 
HETATM   13  C   UNK N   1      32.464  16.162   6.625  0.00  0.00     0.075 C 
HETATM   14  C   UNK N   1      32.333  17.019   7.892  0.00  0.00     0.092 C 
HETATM   15  C   UNK N   1      32.813  17.137   5.472  0.00  0.00     0.117 C 
HETATM   16  C   UNK N   1      31.503  16.405   9.016  0.00  0.00     0.224 C 
HETATM   17  C   UNK N   1      31.601  15.900   3.784  0.00  0.00     0.105 A 
HETATM   18  N   UNK N   1      32.262  17.075   4.301  0.00  0.00    -0.357 N 
ATOM     19  HN  UNK N   1      32.297  17.905   3.710  1.00  0.00     0.162 HD
HETATM   20  N   UNK N   1      30.392  17.033   9.520  0.00  0.00    -0.356 N 
HETATM   21  O   UNK N   1      31.851  15.327   9.494  0.00  0.00    -0.273 OA
ENDROOT
BRANCH  12  22
HETATM   22  O   UNK N   1      35.366  15.297   8.698  0.00  0.00    -0.345 OA
BRANCH  22  23
HETATM   23  C   UNK N   1      35.020  14.143   9.349  0.00  0.00     0.084 A 
HETATM   24  C   UNK N   1      34.345  13.129   8.689  0.00  0.00     0.070 A 
HETATM   25  C   UNK N   1      33.945  11.975   9.334  0.00  0.00     0.069 A 
HETATM   26  N   UNK N   1      34.198  11.820  10.665  0.00  0.00    -0.353 N 
HETATM   27  C   UNK N   1      34.828  12.805  11.383  0.00  0.00     0.054 A 
ATOM     28  HN  UNK N   1      33.914  10.960  11.134  1.00  0.00     0.166 HD
HETATM   29  C   UNK N   1      34.988  12.685  12.782  0.00  0.00    -0.001 A 
HETATM   30  C   UNK N   1      35.280  13.980  10.721  0.00  0.00     0.025 A 
HETATM   31  C   UNK N   1      34.448  11.462  13.458  0.00  0.00     0.054 C 
HETATM   32  C   UNK N   1      35.621  13.738  13.514  0.00  0.00     0.076 A 
HETATM   33  C   UNK N   1      36.092  14.857  12.820  0.00  0.00     0.038 A 
HETATM   34  C   UNK N   1      35.920  14.984  11.445  0.00  0.00     0.019 A 
BRANCH  25  35
HETATM   35  C   UNK N   1      33.226  10.974   8.533  0.00  0.00     0.101 A 
HETATM   36  N   UNK N   1      32.327  10.072   8.996  0.00  0.00    -0.351 N 
HETATM   37  C   UNK N   1      31.931   9.187   8.005  0.00  0.00     0.020 A 
ATOM     38  HN  UNK N   1      31.984  10.047   9.957  1.00  0.00     0.166 HD
HETATM   39  C   UNK N   1      32.498   9.404   6.730  0.00  0.00     0.077 A 
HETATM   40  S   UNK N   1      33.505  10.690   6.931  0.00  0.00    -0.080 SA
BRANCH  37  41
HETATM   41  C   UNK N   1      31.041   8.014   8.307  0.00  0.00     0.028 C 
HETATM   42  C   UNK N   1      30.940   7.711   9.797  0.00  0.00     0.016 C 
HETATM   43  C   UNK N   1      31.494   6.776   7.569  0.00  0.00     0.016 C 
ENDBRANCH  37  41
ENDBRANCH  25  35
BRANCH  32  44
HETATM   44  O   UNK N   1      35.795  13.740  14.865  0.00  0.00    -0.355 OA
HETATM   45  C   UNK N   1      36.891  14.203  15.554  0.00  0.00     0.210 C 
ENDBRANCH  32  44
ENDBRANCH  22  23
ENDBRANCH  12  22
BRANCH  15  46
HETATM   46  O   UNK N   1      33.659  18.161   5.713  0.00  0.00    -0.349 OA
HETATM   47  H   UNK N   1      33.869  19.074   5.690  0.00  0.00     0.219 HD
ENDBRANCH  15  46
BRANCH  17  48
HETATM   48  C   UNK N   1      32.581  14.826   3.365  0.00  0.00     0.154 C 
HETATM   49  N   UNK N   1      33.490  15.131   2.502  0.00  0.00    -0.266 N 
ATOM     50  HN  UNK N   1      33.484  16.081   2.130  1.00  0.00     0.180 HD
BRANCH  49  51
HETATM   51  S   UNK N   1      34.732  14.043   1.919  0.00  0.00     0.236 S 
HETATM   52  O   UNK N   1      33.557  13.352   1.212  0.00  0.00    -0.205 OA
HETATM   53  O   UNK N   1      35.182  14.460   0.512  0.00  0.00    -0.205 OA
BRANCH  51  54
HETATM   54  C   UNK N   1      34.969  12.343   2.544  0.00  0.00     0.130 A 
HETATM   55  C   UNK N   1      36.445  11.987   2.600  0.00  0.00     0.023 A 
HETATM   56  C   UNK N   1      35.713  12.383   3.863  0.00  0.00     0.023 A 
ENDBRANCH  51  54
ENDBRANCH  49  51
BRANCH  48  57
HETATM   57  O   UNK N   1      32.498  13.577   3.868  0.00  0.00    -0.347 OA
HETATM   58  H   UNK N   1      32.615  12.660   3.712  0.00  0.00     0.219 HD
ENDBRANCH  48  57
ENDBRANCH  17  48
TORSDOF 10
ENDMDL
MODEL 7
REMARK VINA RESULT:      -8.2      2.132      3.796
REMARK  10 active torsions:
REMARK  status: ('A' for Active; 'I' for Inactive)
REMARK    1  A    between atoms: C_30  and  C_21 
REMARK    2  A    between atoms: C_24  and  O_54 
REMARK    3  A    between atoms: S_56  and  C_25 
REMARK    4  A    between atoms: C_35  and  C_29 
REMARK    5  A    between atoms: O_53  and  C_31 
REMARK    6  A    between atoms: O_54  and  C_32 
REMARK    7  A    between atoms: C_34  and  O_48 
REMARK    8  A    between atoms: C_38  and  C_37 
REMARK    9  A    between atoms: O_50  and  C_37 
REMARK   10  A    between atoms: N_45  and  S_56 
ROOT
HETATM    1  C   UNK N   1      26.706  11.131   3.791  0.00  0.00     0.152 C 
HETATM    2  C   UNK N   1      30.809  12.661   2.112  0.00  0.00     0.027 C 
HETATM    3  C   UNK N   1      30.074  11.372   2.442  0.00  0.00     0.005 C 
HETATM    4  C   UNK N   1      32.242  12.374   1.812  0.00  0.00    -0.030 C 
HETATM    5  C   UNK N   1      28.822  11.205   1.584  0.00  0.00     0.020 C 
HETATM    6  C   UNK N   1      33.259  12.925   2.488  0.00  0.00    -0.023 C 
HETATM    7  C   UNK N   1      27.766  12.275   1.861  0.00  0.00     0.125 C 
HETATM    8  C   UNK N   1      29.032  15.789   5.453  0.00  0.00     0.046 C 
HETATM    9  C   UNK N   1      27.337  15.861   3.706  0.00  0.00     0.047 C 
HETATM   10  C   UNK N   1      33.842  15.114   3.184  0.00  0.00     0.052 A 
HETATM   11  C   UNK N   1      33.141  13.859   3.671  0.00  0.00     0.047 A 
HETATM   12  C   UNK N   1      27.835  16.594   4.970  0.00  0.00     0.130 C 
HETATM   13  C   UNK N   1      29.558  15.085   4.193  0.00  0.00     0.075 C 
HETATM   14  C   UNK N   1      28.255  14.656   3.503  0.00  0.00     0.092 C 
HETATM   15  C   UNK N   1      30.313  15.982   3.181  0.00  0.00     0.117 C 
HETATM   16  C   UNK N   1      27.609  13.388   4.053  0.00  0.00     0.224 C 
HETATM   17  C   UNK N   1      32.516  15.264   3.875  0.00  0.00     0.105 A 
HETATM   18  N   UNK N   1      31.587  15.884   2.961  0.00  0.00    -0.357 N 
ATOM     19  HN  UNK N   1      31.954  16.267   2.090  1.00  0.00     0.162 HD
HETATM   20  N   UNK N   1      27.374  12.293   3.260  0.00  0.00    -0.356 N 
HETATM   21  O   UNK N   1      27.272  13.354   5.235  0.00  0.00    -0.273 OA
ENDROOT
BRANCH  12  22
HETATM   22  O   UNK N   1      26.879  16.862   5.964  0.00  0.00    -0.345 OA
BRANCH  22  23
HETATM   23  C   UNK N   1      25.582  16.425   5.998  0.00  0.00     0.084 A 
HETATM   24  C   UNK N   1      25.246  15.242   6.638  0.00  0.00     0.070 A 
HETATM   25  C   UNK N   1      23.952  14.758   6.649  0.00  0.00     0.069 A 
HETATM   26  N   UNK N   1      22.968  15.441   6.001  0.00  0.00    -0.353 N 
HETATM   27  C   UNK N   1      23.244  16.599   5.316  0.00  0.00     0.054 A 
ATOM     28  HN  UNK N   1      22.011  15.088   6.024  1.00  0.00     0.166 HD
HETATM   29  C   UNK N   1      22.240  17.241   4.556  0.00  0.00    -0.001 A 
HETATM   30  C   UNK N   1      24.563  17.127   5.332  0.00  0.00     0.025 A 
HETATM   31  C   UNK N   1      20.875  16.625   4.512  0.00  0.00     0.054 C 
HETATM   32  C   UNK N   1      22.559  18.429   3.826  0.00  0.00     0.076 A 
HETATM   33  C   UNK N   1      23.857  18.944   3.903  0.00  0.00     0.038 A 
HETATM   34  C   UNK N   1      24.850  18.302   4.638  0.00  0.00     0.019 A 
BRANCH  25  35
HETATM   35  C   UNK N   1      23.719  13.487   7.350  0.00  0.00     0.101 A 
HETATM   36  N   UNK N   1      23.210  13.342   8.597  0.00  0.00    -0.351 N 
HETATM   37  C   UNK N   1      23.240  12.019   9.013  0.00  0.00     0.020 A 
ATOM     38  HN  UNK N   1      22.849  14.112   9.162  1.00  0.00     0.166 HD
HETATM   39  C   UNK N   1      23.752  11.096   8.074  0.00  0.00     0.077 A 
HETATM   40  S   UNK N   1      24.175  12.009   6.773  0.00  0.00    -0.080 SA
BRANCH  37  41
HETATM   41  C   UNK N   1      22.853  11.624  10.410  0.00  0.00     0.028 C 
HETATM   42  C   UNK N   1      21.537  12.247  10.862  0.00  0.00     0.016 C 
HETATM   43  C   UNK N   1      23.941  11.968  11.401  0.00  0.00     0.016 C 
ENDBRANCH  37  41
ENDBRANCH  25  35
BRANCH  32  44
HETATM   44  O   UNK N   1      21.681  19.107   3.036  0.00  0.00    -0.355 OA
HETATM   45  C   UNK N   1      20.800  20.085   3.433  0.00  0.00     0.210 C 
ENDBRANCH  32  44
ENDBRANCH  22  23
ENDBRANCH  12  22
BRANCH  15  46
HETATM   46  O   UNK N   1      29.610  16.845   2.418  0.00  0.00    -0.349 OA
HETATM   47  H   UNK N   1      28.796  17.191   2.109  0.00  0.00     0.219 HD
ENDBRANCH  15  46
BRANCH  17  48
HETATM   48  C   UNK N   1      32.805  16.132   5.080  0.00  0.00     0.154 C 
HETATM   49  N   UNK N   1      33.073  15.552   6.201  0.00  0.00    -0.266 N 
ATOM     50  HN  UNK N   1      33.054  14.533   6.219  1.00  0.00     0.180 HD
BRANCH  49  51
HETATM   51  S   UNK N   1      33.468  16.379   7.693  0.00  0.00     0.236 S 
HETATM   52  O   UNK N   1      34.642  16.938   6.876  0.00  0.00    -0.205 OA
HETATM   53  O   UNK N   1      32.916  17.811   7.665  0.00  0.00    -0.205 OA
BRANCH  51  54
HETATM   54  C   UNK N   1      34.847  15.896   8.788  0.00  0.00     0.130 A 
HETATM   55  C   UNK N   1      34.334  15.494  10.161  0.00  0.00     0.023 A 
HETATM   56  C   UNK N   1      34.721  14.432   9.155  0.00  0.00     0.023 A 
ENDBRANCH  51  54
ENDBRANCH  49  51
BRANCH  48  57
HETATM   57  O   UNK N   1      32.768  17.478   4.989  0.00  0.00    -0.347 OA
HETATM   58  H   UNK N   1      33.192  18.288   5.194  0.00  0.00     0.219 HD
ENDBRANCH  48  57
ENDBRANCH  17  48
TORSDOF 10
ENDMDL
MODEL 8
REMARK VINA RESULT:      -8.1      3.707      7.386
REMARK  10 active torsions:
REMARK  status: ('A' for Active; 'I' for Inactive)
REMARK    1  A    between atoms: C_30  and  C_21 
REMARK    2  A    between atoms: C_24  and  O_54 
REMARK    3  A    between atoms: S_56  and  C_25 
REMARK    4  A    between atoms: C_35  and  C_29 
REMARK    5  A    between atoms: O_53  and  C_31 
REMARK    6  A    between atoms: O_54  and  C_32 
REMARK    7  A    between atoms: C_34  and  O_48 
REMARK    8  A    between atoms: C_38  and  C_37 
REMARK    9  A    between atoms: O_50  and  C_37 
REMARK   10  A    between atoms: N_45  and  S_56 
ROOT
HETATM    1  C   UNK N   1      34.602  14.008   8.028  0.00  0.00     0.152 C 
HETATM    2  C   UNK N   1      31.754  17.732   8.150  0.00  0.00     0.027 C 
HETATM    3  C   UNK N   1      32.691  16.931   9.040  0.00  0.00     0.005 C 
HETATM    4  C   UNK N   1      30.970  18.702   8.968  0.00  0.00    -0.030 C 
HETATM    5  C   UNK N   1      34.130  16.987   8.533  0.00  0.00     0.020 C 
HETATM    6  C   UNK N   1      29.631  18.718   9.007  0.00  0.00    -0.023 C 
HETATM    7  C   UNK N   1      34.305  16.317   7.170  0.00  0.00     0.125 C 
HETATM    8  C   UNK N   1      30.001  14.311   5.096  0.00  0.00     0.046 C 
HETATM    9  C   UNK N   1      32.119  14.914   4.055  0.00  0.00     0.047 C 
HETATM   10  C   UNK N   1      27.891  18.668   7.400  0.00  0.00     0.052 A 
HETATM   11  C   UNK N   1      28.707  17.755   8.297  0.00  0.00     0.047 A 
HETATM   12  C   UNK N   1      30.784  14.182   3.797  0.00  0.00     0.130 C 
HETATM   13  C   UNK N   1      30.562  15.577   5.761  0.00  0.00     0.075 C 
HETATM   14  C   UNK N   1      32.067  15.436   5.491  0.00  0.00     0.092 C 
HETATM   15  C   UNK N   1      30.129  16.923   5.129  0.00  0.00     0.117 C 
HETATM   16  C   UNK N   1      32.817  14.497   6.432  0.00  0.00     0.224 C 
HETATM   17  C   UNK N   1      28.455  17.407   6.807  0.00  0.00     0.105 A 
HETATM   18  N   UNK N   1      29.341  17.763   5.724  0.00  0.00    -0.357 N 
ATOM     19  HN  UNK N   1      29.347  18.732   5.408  1.00  0.00     0.162 HD
HETATM   20  N   UNK N   1      33.873  14.930   7.194  0.00  0.00    -0.356 N 
HETATM   21  O   UNK N   1      32.477  13.317   6.495  0.00  0.00    -0.273 OA
ENDROOT
BRANCH  12  22
HETATM   22  O   UNK N   1      30.868  12.871   3.300  0.00  0.00    -0.345 OA
BRANCH  22  23
HETATM   23  C   UNK N   1      30.178  12.346   2.240  0.00  0.00     0.084 A 
HETATM   24  C   UNK N   1      28.841  11.998   2.364  0.00  0.00     0.070 A 
HETATM   25  C   UNK N   1      28.135  11.426   1.323  0.00  0.00     0.069 A 
HETATM   26  N   UNK N   1      28.761  11.171   0.140  0.00  0.00    -0.353 N 
HETATM   27  C   UNK N   1      30.093  11.456  -0.032  0.00  0.00     0.054 A 
ATOM     28  HN  UNK N   1      28.233  10.761  -0.631  1.00  0.00     0.166 HD
HETATM   29  C   UNK N   1      30.760  11.088  -1.222  0.00  0.00    -0.001 A 
HETATM   30  C   UNK N   1      30.819  12.082   1.018  0.00  0.00     0.025 A 
HETATM   31  C   UNK N   1      29.980  10.376  -2.285  0.00  0.00     0.054 C 
HETATM   32  C   UNK N   1      32.155  11.368  -1.365  0.00  0.00     0.076 A 
HETATM   33  C   UNK N   1      32.824  12.026  -0.329  0.00  0.00     0.038 A 
HETATM   34  C   UNK N   1      32.172  12.374   0.851  0.00  0.00     0.019 A 
BRANCH  25  35
HETATM   35  C   UNK N   1      26.727  11.090   1.574  0.00  0.00     0.101 A 
HETATM   36  N   UNK N   1      25.668  11.457   0.814  0.00  0.00    -0.351 N 
HETATM   37  C   UNK N   1      24.465  11.089   1.398  0.00  0.00     0.020 A 
ATOM     38  HN  UNK N   1      25.745  11.946  -0.078  1.00  0.00     0.166 HD
HETATM   39  C   UNK N   1      24.568  10.393   2.623  0.00  0.00     0.077 A 
HETATM   40  S   UNK N   1      26.183  10.310   2.925  0.00  0.00    -0.080 SA
BRANCH  37  41
HETATM   41  C   UNK N   1      23.145  11.503   0.810  0.00  0.00     0.028 C 
HETATM   42  C   UNK N   1      22.450  10.377   0.053  0.00  0.00     0.016 C 
HETATM   43  C   UNK N   1      23.299  12.702  -0.097  0.00  0.00     0.016 C 
ENDBRANCH  37  41
ENDBRANCH  25  35
BRANCH  32  44
HETATM   44  O   UNK N   1      32.902  11.026  -2.453  0.00  0.00    -0.355 OA
HETATM   45  C   UNK N   1      33.463  11.884  -3.370  0.00  0.00     0.210 C 
ENDBRANCH  32  44
ENDBRANCH  22  23
ENDBRANCH  12  22
BRANCH  15  46
HETATM   46  O   UNK N   1      30.664  17.295   3.948  0.00  0.00    -0.349 OA
HETATM   47  H   UNK N   1      30.575  17.529   3.044  0.00  0.00     0.219 HD
ENDBRANCH  15  46
BRANCH  17  48
HETATM   48  C   UNK N   1      27.247  16.631   6.331  0.00  0.00     0.154 C 
HETATM   49  N   UNK N   1      27.045  16.533   5.060  0.00  0.00    -0.266 N 
ATOM     50  HN  UNK N   1      27.703  17.007   4.442  1.00  0.00     0.180 HD
BRANCH  49  51
HETATM   51  S   UNK N   1      25.729  15.651   4.314  0.00  0.00     0.236 S 
HETATM   52  O   UNK N   1      26.344  14.448   5.045  0.00  0.00    -0.205 OA
HETATM   53  O   UNK N   1      24.563  15.507   5.302  0.00  0.00    -0.205 OA
BRANCH  51  54
HETATM   54  C   UNK N   1      25.939  14.519   2.896  0.00  0.00     0.130 A 
HETATM   55  C   UNK N   1      25.599  15.218   1.590  0.00  0.00     0.023 A 
HETATM   56  C   UNK N   1      27.045  15.028   1.995  0.00  0.00     0.023 A 
ENDBRANCH  51  54
ENDBRANCH  49  51
BRANCH  48  57
HETATM   57  O   UNK N   1      26.394  16.068   7.211  0.00  0.00    -0.347 OA
HETATM   58  H   UNK N   1      25.805  15.360   7.388  0.00  0.00     0.219 HD
ENDBRANCH  48  57
ENDBRANCH  17  48
TORSDOF 10
ENDMDL
MODEL 9
REMARK VINA RESULT:      -8.1      3.073      9.827
REMARK  10 active torsions:
REMARK  status: ('A' for Active; 'I' for Inactive)
REMARK    1  A    between atoms: C_30  and  C_21 
REMARK    2  A    between atoms: C_24  and  O_54 
REMARK    3  A    between atoms: S_56  and  C_25 
REMARK    4  A    between atoms: C_35  and  C_29 
REMARK    5  A    between atoms: O_53  and  C_31 
REMARK    6  A    between atoms: O_54  and  C_32 
REMARK    7  A    between atoms: C_34  and  O_48 
REMARK    8  A    between atoms: C_38  and  C_37 
REMARK    9  A    between atoms: O_50  and  C_37 
REMARK   10  A    between atoms: N_45  and  S_56 
ROOT
HETATM    1  C   UNK N   1      26.204  20.534   4.954  0.00  0.00     0.152 C 
HETATM    2  C   UNK N   1      22.396  18.392   3.248  0.00  0.00     0.027 C 
HETATM    3  C   UNK N   1      22.823  19.691   3.913  0.00  0.00     0.005 C 
HETATM    4  C   UNK N   1      20.907  18.309   3.190  0.00  0.00    -0.030 C 
HETATM    5  C   UNK N   1      23.814  20.465   3.047  0.00  0.00     0.020 C 
HETATM    6  C   UNK N   1      20.205  17.309   3.739  0.00  0.00    -0.023 C 
HETATM    7  C   UNK N   1      25.141  19.728   2.862  0.00  0.00     0.125 C 
HETATM    8  C   UNK N   1      25.489  15.122   5.210  0.00  0.00     0.046 C 
HETATM    9  C   UNK N   1      26.801  16.066   3.388  0.00  0.00     0.047 C 
HETATM   10  C   UNK N   1      20.338  14.943   3.732  0.00  0.00     0.052 A 
HETATM   11  C   UNK N   1      20.770  16.156   4.537  0.00  0.00     0.047 A 
HETATM   12  C   UNK N   1      26.745  14.887   4.383  0.00  0.00     0.130 C 
HETATM   13  C   UNK N   1      24.581  15.966   4.302  0.00  0.00     0.075 C 
HETATM   14  C   UNK N   1      25.584  16.945   3.674  0.00  0.00     0.092 C 
HETATM   15  C   UNK N   1      23.911  15.213   3.125  0.00  0.00     0.117 C 
HETATM   16  C   UNK N   1      25.972  18.135   4.547  0.00  0.00     0.224 C 
HETATM   17  C   UNK N   1      21.761  15.007   4.213  0.00  0.00     0.105 A 
HETATM   18  N   UNK N   1      22.637  14.983   3.066  0.00  0.00    -0.357 N 
ATOM     19  HN  UNK N   1      22.230  14.774   2.155  1.00  0.00     0.162 HD
HETATM   20  N   UNK N   1      25.771  19.429   4.136  0.00  0.00    -0.356 N 
HETATM   21  O   UNK N   1      26.497  17.928   5.639  0.00  0.00    -0.273 OA
ENDROOT
BRANCH  12  22
HETATM   22  O   UNK N   1      27.900  14.646   5.144  0.00  0.00    -0.345 OA
BRANCH  22  23
HETATM   23  C   UNK N   1      29.200  14.730   4.719  0.00  0.00     0.084 A 
HETATM   24  C   UNK N   1      29.662  13.937   3.681  0.00  0.00     0.070 A 
HETATM   25  C   UNK N   1      30.978  13.972   3.264  0.00  0.00     0.069 A 
HETATM   26  N   UNK N   1      31.867  14.792   3.893  0.00  0.00    -0.353 N 
HETATM   27  C   UNK N   1      31.479  15.573   4.953  0.00  0.00     0.054 A 
ATOM     28  HN  UNK N   1      32.835  14.825   3.573  1.00  0.00     0.166 HD
HETATM   29  C   UNK N   1      32.429  16.336   5.670  0.00  0.00    -0.001 A 
HETATM   30  C   UNK N   1      30.118  15.575   5.365  0.00  0.00     0.025 A 
HETATM   31  C   UNK N   1      33.865  16.265   5.247  0.00  0.00     0.054 C 
HETATM   32  C   UNK N   1      32.007  17.118   6.790  0.00  0.00     0.076 A 
HETATM   33  C   UNK N   1      30.652  17.130   7.136  0.00  0.00     0.038 A 
HETATM   34  C   UNK N   1      29.718  16.365   6.442  0.00  0.00     0.019 A 
BRANCH  25  35
HETATM   35  C   UNK N   1      31.355  13.077   2.161  0.00  0.00     0.101 A 
HETATM   36  N   UNK N   1      30.505  12.425   1.331  0.00  0.00    -0.351 N 
HETATM   37  C   UNK N   1      31.179  11.560   0.483  0.00  0.00     0.020 A 
ATOM     38  HN  UNK N   1      29.493  12.554   1.332  1.00  0.00     0.166 HD
HETATM   39  C   UNK N   1      32.585  11.545   0.617  0.00  0.00     0.077 A 
HETATM   40  S   UNK N   1      32.904  12.605   1.833  0.00  0.00    -0.080 SA
BRANCH  37  41
HETATM   41  C   UNK N   1      30.443  10.627  -0.438  0.00  0.00     0.028 C 
HETATM   42  C   UNK N   1      30.404  11.121  -1.880  0.00  0.00     0.016 C 
HETATM   43  C   UNK N   1      29.034  10.374   0.047  0.00  0.00     0.016 C 
ENDBRANCH  37  41
ENDBRANCH  25  35
BRANCH  32  44
HETATM   44  O   UNK N   1      32.841  17.860   7.570  0.00  0.00    -0.355 OA
HETATM   45  C   UNK N   1      33.527  17.433   8.682  0.00  0.00     0.210 C 
ENDBRANCH  32  44
ENDBRANCH  22  23
ENDBRANCH  12  22
BRANCH  15  46
HETATM   46  O   UNK N   1      24.662  14.857   2.062  0.00  0.00    -0.349 OA
HETATM   47  H   UNK N   1      24.849  14.883   1.144  0.00  0.00     0.219 HD
ENDBRANCH  15  46
BRANCH  17  48
HETATM   48  C   UNK N   1      21.927  13.785   5.089  0.00  0.00     0.154 C 
HETATM   49  N   UNK N   1      22.126  13.960   6.352  0.00  0.00    -0.266 N 
ATOM     50  HN  UNK N   1      22.184  14.921   6.689  1.00  0.00     0.180 HD
BRANCH  49  51
HETATM   51  S   UNK N   1      22.306  12.679   7.531  0.00  0.00     0.236 S 
HETATM   52  O   UNK N   1      20.892  12.290   7.075  0.00  0.00    -0.205 OA
HETATM   53  O   UNK N   1      22.759  11.385   6.840  0.00  0.00    -0.205 OA
BRANCH  51  54
HETATM   54  C   UNK N   1      21.466  12.665   9.153  0.00  0.00     0.130 A 
HETATM   55  C   UNK N   1      22.420  13.077  10.261  0.00  0.00     0.023 A 
HETATM   56  C   UNK N   1      21.417  14.070   9.716  0.00  0.00     0.023 A 
ENDBRANCH  51  54
ENDBRANCH  49  51
BRANCH  48  57
HETATM   57  O   UNK N   1      21.883  12.543   4.563  0.00  0.00    -0.347 OA
HETATM   58  H   UNK N   1      22.296  11.915   4.004  0.00  0.00     0.219 HD
ENDBRANCH  48  57
ENDBRANCH  17  48
TORSDOF 10
ENDMDL
