REMARK  16 active torsions:
REMARK  status: ('A' for Active; 'I' for Inactive)
REMARK    1  A    between atoms: C_2  and  C_3 
REMARK    2  A    between atoms: C_3  and  N_4 
REMARK    3  A    between atoms: C_22  and  N_4 
REMARK    4  A    between atoms: C_5  and  C_6 
REMARK    5  A    between atoms: C_5  and  N_8 
REMARK    6  A    between atoms: C_5  and  C_28 
REMARK    7  A    between atoms: C_6  and  O_7 
REMARK    8  A    between atoms: C_6  and  C_30 
REMARK    9  A    between atoms: C_20  and  N_8 
REMARK   10  A    between atoms: N_9  and  C_10 
REMARK   11  A    between atoms: C_24  and  N_9 
REMARK   12  A    between atoms: C_10  and  C_11 
REMARK   13  A    between atoms: C_14  and  C_15 
REMARK   14  A    between atoms: C_15  and  N_16 
REMARK   15  A    between atoms: C_28  and  O_29 
REMARK   16  A    between atoms: C_30  and  O_31 
ROOT
HETATM    1  N   UNK N   1      -2.340  -1.012  -0.193  0.00  0.00     0.102 N 
HETATM    2  N   UNK N   1       0.718  -1.447   0.648  0.00  0.00     0.101 N 
HETATM    3  N   UNK N   1      -1.845   1.935  -0.595  0.00  0.00     0.102 N 
HETATM    4  N   UNK N   1       1.243   1.781   0.225  0.00  0.00     0.102 N 
HETATM    5  C   UNK N   1       1.555  -0.508   1.379  0.00  0.00     0.303 A 
HETATM    6  C   UNK N   1       2.028   0.548   0.332  0.00  0.00     0.303 A 
HETATM    7  C   UNK N   1      -1.577  -2.228   0.131  0.00  0.00     0.303 A 
HETATM    8  C   UNK N   1      -0.496  -2.004   1.262  0.00  0.00     0.303 A 
HETATM    9  C   UNK N   1      -2.499   1.116  -1.633  0.00  0.00     0.303 A 
HETATM   10  C   UNK N   1      -2.086  -0.424  -1.527  0.00  0.00     0.303 A 
HETATM   11  C   UNK N   1       0.574   2.067  -1.065  0.00  0.00     0.303 A 
HETATM   12  C   UNK N   1      -0.774   2.861  -0.947  0.00  0.00     0.303 A 
HETATM   13 Gd   UNK N   1      -0.542   0.325   0.023  0.00  0.00     0.000 Gd
ENDROOT
BRANCH   2  14
HETATM   14  C   UNK N   1       1.462  -2.431  -0.244  0.00  0.00     0.277 C 
BRANCH  14  15
HETATM   15  C   UNK N   1       3.037  -2.384  -0.145  0.00  0.00     0.177 C 
BRANCH  15  16
HETATM   16  O   UNK N   1       3.564  -1.239  -0.731  0.00  0.00    -0.391 OA
HETATM   17  H   UNK N   1       4.440  -1.158  -1.140  0.00  0.00     0.210 HD
ENDBRANCH  15  16
BRANCH  15  18
HETATM   18  C   UNK N   1       3.748  -3.557  -0.820  0.00  0.00     0.198 C 
BRANCH  18  19
HETATM   19  O   UNK N   1       3.907  -4.614   0.077  0.00  0.00    -0.398 OA
HETATM   20  H   UNK N   1       3.325  -5.077   0.700  0.00  0.00     0.209 HD
ENDBRANCH  18  19
ENDBRANCH  15  18
ENDBRANCH  14  15
BRANCH  14  21
HETATM   21  C   UNK N   1       1.084  -3.891   0.092  0.00  0.00     0.202 C 
BRANCH  21  22
HETATM   22  O   UNK N   1       0.060  -4.345  -0.736  0.00  0.00    -0.399 OA
HETATM   23  H   UNK N   1      -0.570  -3.885  -1.312  0.00  0.00     0.209 HD
ENDBRANCH  21  22
ENDBRANCH  14  21
ENDBRANCH   2  14
BRANCH   3  24
HETATM   24  C   UNK N   1      -2.642   2.280   0.587  0.00  0.00     0.385 C 
BRANCH  24  25
HETATM   25  C   UNK N   1      -3.970   2.890   0.262  0.00  0.00     0.202 C 
HETATM   26  O   UNK N   1      -5.053   2.102   0.120  0.00  0.00    -0.647 OA
HETATM   27  O   UNK N   1      -4.090   4.102   0.217  0.00  0.00    -0.647 OA
ENDBRANCH  24  25
ENDBRANCH   3  24
BRANCH   4  28
HETATM   28  C   UNK N   1       2.339   2.620  -0.299  0.00  0.00     0.385 C 
BRANCH  28  29
HETATM   29  C   UNK N   1       3.503   2.929   0.617  0.00  0.00     0.202 C 
HETATM   30  O   UNK N   1       3.979   4.050   0.609  0.00  0.00    -0.647 OA
HETATM   31  O   UNK N   1       4.122   1.954   1.314  0.00  0.00    -0.647 OA
ENDBRANCH  28  29
ENDBRANCH   4  28
BRANCH   1  32
HETATM   32  C   UNK N   1      -3.658  -1.490  -0.625  0.00  0.00     0.385 C 
BRANCH  32  33
HETATM   33  C   UNK N   1      -4.515  -2.020   0.471  0.00  0.00     0.202 C 
HETATM   34  O   UNK N   1      -5.171  -1.168   1.274  0.00  0.00    -0.647 OA
HETATM   35  O   UNK N   1      -4.699  -3.223   0.572  0.00  0.00    -0.647 OA
ENDBRANCH  32  33
ENDBRANCH   1  32
TORSDOF 16
