MODEL 1
REMARK VINA RESULT:      -5.8      0.000      0.000
REMARK  10 active torsions:
REMARK  status: ('A' for Active; 'I' for Inactive)
REMARK    1  A    between atoms: C_2  and  N_18 
REMARK    2  A    between atoms: C_8  and  C_11 
REMARK    3  A    between atoms: C_11  and  C_12 
REMARK    4  A    between atoms: C_12  and  C_13 
REMARK    5  A    between atoms: C_13  and  C_14 
REMARK    6  A    between atoms: C_14  and  O_16 
REMARK    7  A    between atoms: N_18  and  C_19 
REMARK    8  A    between atoms: N_18  and  C_20 
REMARK    9  A    between atoms: C_19  and  C_23 
REMARK   10  A    between atoms: C_20  and  C_21 
ROOT
HETATM    1  C   UNK N   1      24.733  18.194   4.410  0.00  0.00     0.061 A 
HETATM    2  C   UNK N   1      25.737  19.162   4.163  0.00  0.00     0.032 A 
HETATM    3  C   UNK N   1      25.395  20.359   3.472  0.00  0.00     0.031 A 
HETATM    4  C   UNK N   1      23.449  18.455   3.949  0.00  0.00     0.062 A 
HETATM    5  C   UNK N   1      23.135  19.606   3.293  0.00  0.00     0.062 A 
HETATM    6  C   UNK N   1      24.078  20.594   3.036  0.00  0.00     0.034 A 
HETATM    7  N   UNK N   1      21.839  19.573   2.962  0.00  0.00    -0.339 N 
HETATM    8  C   UNK N   1      21.388  18.379   3.423  0.00  0.00     0.084 A 
HETATM    9  N   UNK N   1      22.361  17.667   4.044  0.00  0.00    -0.344 N 
ATOM     10  HN  UNK N   1      22.287  16.748   4.481  1.00  0.00     0.167 HD
HETATM   11  C   UNK N   1      21.088  20.596   2.250  0.00  0.00     0.158 C 
ENDROOT
BRANCH   2  12
HETATM   12  N   UNK N   1      27.079  18.944   4.605  0.00  0.00    -0.379 N 
BRANCH  12  13
HETATM   13  C   UNK N   1      27.714  17.649   4.467  0.00  0.00     0.138 C 
BRANCH  13  14
HETATM   14  C   UNK N   1      29.210  17.762   4.700  0.00  0.00     0.134 C 
HETATM   15 Cl   UNK N   1      29.634  17.075   6.285  0.00  0.00    -0.129 Cl
ENDBRANCH  13  14
ENDBRANCH  12  13
BRANCH  12  16
HETATM   16  C   UNK N   1      27.841  20.030   5.182  0.00  0.00     0.138 C 
BRANCH  16  17
HETATM   17  C   UNK N   1      27.483  20.231   6.641  0.00  0.00     0.134 C 
HETATM   18 Cl   UNK N   1      26.443  21.667   6.783  0.00  0.00    -0.129 Cl
ENDBRANCH  16  17
ENDBRANCH  12  16
ENDBRANCH   2  12
BRANCH   8  19
HETATM   19  C   UNK N   1      20.000  17.870   3.233  0.00  0.00     0.077 C 
BRANCH  19  20
HETATM   20  C   UNK N   1      20.068  16.379   2.949  0.00  0.00     0.018 C 
BRANCH  20  21
HETATM   21  C   UNK N   1      20.571  16.111   1.538  0.00  0.00     0.110 C 
BRANCH  21  22
HETATM   22  C   UNK N   1      19.850  16.917   0.495  0.00  0.00     0.139 C 
HETATM   23  O   UNK N   1      20.441  17.749  -0.178  0.00  0.00    -0.650 OA
BRANCH  22  24
HETATM   24  O   UNK N   1      18.536  16.716   0.296  0.00  0.00    -0.776 OA
HETATM   25  H   UNK N   1      18.086  17.182  -0.381  0.00  0.00     0.167 HD
ENDBRANCH  22  24
ENDBRANCH  21  22
ENDBRANCH  20  21
ENDBRANCH  19  20
ENDBRANCH   8  19
TORSDOF 10
ENDMDL
MODEL 2
REMARK VINA RESULT:      -5.8     13.363     16.853
REMARK  10 active torsions:
REMARK  status: ('A' for Active; 'I' for Inactive)
REMARK    1  A    between atoms: C_2  and  N_18 
REMARK    2  A    between atoms: C_8  and  C_11 
REMARK    3  A    between atoms: C_11  and  C_12 
REMARK    4  A    between atoms: C_12  and  C_13 
REMARK    5  A    between atoms: C_13  and  C_14 
REMARK    6  A    between atoms: C_14  and  O_16 
REMARK    7  A    between atoms: N_18  and  C_19 
REMARK    8  A    between atoms: N_18  and  C_20 
REMARK    9  A    between atoms: C_19  and  C_23 
REMARK   10  A    between atoms: C_20  and  C_21 
ROOT
HETATM    1  C   UNK N   1      35.406  13.530  14.187  0.00  0.00     0.061 A 
HETATM    2  C   UNK N   1      36.055  12.495  14.902  0.00  0.00     0.032 A 
HETATM    3  C   UNK N   1      37.134  11.797  14.290  0.00  0.00     0.031 A 
HETATM    4  C   UNK N   1      35.849  13.811  12.901  0.00  0.00     0.062 A 
HETATM    5  C   UNK N   1      36.886  13.138  12.328  0.00  0.00     0.062 A 
HETATM    6  C   UNK N   1      37.566  12.122  12.991  0.00  0.00     0.034 A 
HETATM    7  N   UNK N   1      37.078  13.613  11.092  0.00  0.00    -0.339 N 
HETATM    8  C   UNK N   1      36.132  14.573  10.933  0.00  0.00     0.084 A 
HETATM    9  N   UNK N   1      35.360  14.722  12.038  0.00  0.00    -0.344 N 
ATOM     10  HN  UNK N   1      34.588  15.373  12.183  1.00  0.00     0.167 HD
HETATM   11  C   UNK N   1      38.079  13.178  10.130  0.00  0.00     0.158 C 
ENDROOT
BRANCH   2  12
HETATM   12  N   UNK N   1      35.635  12.154  16.226  0.00  0.00    -0.379 N 
BRANCH  12  13
HETATM   13  C   UNK N   1      34.749  13.018  16.978  0.00  0.00     0.138 C 
BRANCH  13  14
HETATM   14  C   UNK N   1      35.488  13.659  18.139  0.00  0.00     0.134 C 
HETATM   15 Cl   UNK N   1      35.068  12.836  19.658  0.00  0.00    -0.129 Cl
ENDBRANCH  13  14
ENDBRANCH  12  13
BRANCH  12  16
HETATM   16  C   UNK N   1      36.075  10.917  16.832  0.00  0.00     0.138 C 
BRANCH  16  17
HETATM   17  C   UNK N   1      35.002   9.850  16.730  0.00  0.00     0.134 C 
HETATM   18 Cl   UNK N   1      35.476   8.680  15.477  0.00  0.00    -0.129 Cl
ENDBRANCH  16  17
ENDBRANCH  12  16
ENDBRANCH   2  12
BRANCH   8  19
HETATM   19  C   UNK N   1      35.919  15.348   9.678  0.00  0.00     0.077 C 
BRANCH  19  20
HETATM   20  C   UNK N   1      35.222  16.651  10.030  0.00  0.00     0.018 C 
BRANCH  20  21
HETATM   21  C   UNK N   1      34.195  17.028   8.973  0.00  0.00     0.110 C 
BRANCH  21  22
HETATM   22  C   UNK N   1      34.633  18.178   8.112  0.00  0.00     0.139 C 
HETATM   23  O   UNK N   1      35.256  19.118   8.583  0.00  0.00    -0.650 OA
BRANCH  22  24
HETATM   24  O   UNK N   1      34.338  18.170   6.800  0.00  0.00    -0.776 OA
HETATM   25  H   UNK N   1      33.444  18.158   6.520  0.00  0.00     0.167 HD
ENDBRANCH  22  24
ENDBRANCH  21  22
ENDBRANCH  20  21
ENDBRANCH  19  20
ENDBRANCH   8  19
TORSDOF 10
ENDMDL
MODEL 3
REMARK VINA RESULT:      -5.8      0.098      2.117
REMARK  10 active torsions:
REMARK  status: ('A' for Active; 'I' for Inactive)
REMARK    1  A    between atoms: C_2  and  N_18 
REMARK    2  A    between atoms: C_8  and  C_11 
REMARK    3  A    between atoms: C_11  and  C_12 
REMARK    4  A    between atoms: C_12  and  C_13 
REMARK    5  A    between atoms: C_13  and  C_14 
REMARK    6  A    between atoms: C_14  and  O_16 
REMARK    7  A    between atoms: N_18  and  C_19 
REMARK    8  A    between atoms: N_18  and  C_20 
REMARK    9  A    between atoms: C_19  and  C_23 
REMARK   10  A    between atoms: C_20  and  C_21 
ROOT
HETATM    1  C   UNK N   1      24.693  18.134   4.462  0.00  0.00     0.061 A 
HETATM    2  C   UNK N   1      25.703  19.097   4.228  0.00  0.00     0.032 A 
HETATM    3  C   UNK N   1      25.376  20.294   3.531  0.00  0.00     0.031 A 
HETATM    4  C   UNK N   1      23.416  18.399   3.985  0.00  0.00     0.062 A 
HETATM    5  C   UNK N   1      23.115  19.550   3.323  0.00  0.00     0.062 A 
HETATM    6  C   UNK N   1      24.066  20.535   3.077  0.00  0.00     0.034 A 
HETATM    7  N   UNK N   1      21.823  19.523   2.976  0.00  0.00    -0.339 N 
HETATM    8  C   UNK N   1      21.361  18.332   3.432  0.00  0.00     0.084 A 
HETATM    9  N   UNK N   1      22.323  17.616   4.066  0.00  0.00    -0.344 N 
ATOM     10  HN  UNK N   1      22.239  16.698   4.504  1.00  0.00     0.167 HD
HETATM   11  C   UNK N   1      21.086  20.548   2.254  0.00  0.00     0.158 C 
ENDROOT
BRANCH   2  12
HETATM   12  N   UNK N   1      27.039  18.873   4.687  0.00  0.00    -0.379 N 
BRANCH  12  13
HETATM   13  C   UNK N   1      27.845  19.957   5.211  0.00  0.00     0.138 C 
BRANCH  13  14
HETATM   14  C   UNK N   1      27.503  20.219   6.667  0.00  0.00     0.134 C 
HETATM   15 Cl   UNK N   1      26.453  21.648   6.800  0.00  0.00    -0.129 Cl
ENDBRANCH  13  14
ENDBRANCH  12  13
BRANCH  12  16
HETATM   16  C   UNK N   1      27.605  17.542   4.658  0.00  0.00     0.138 C 
BRANCH  16  17
HETATM   17  C   UNK N   1      29.120  17.595   4.622  0.00  0.00     0.134 C 
HETATM   18 Cl   UNK N   1      29.751  17.030   6.186  0.00  0.00    -0.129 Cl
ENDBRANCH  16  17
ENDBRANCH  12  16
ENDBRANCH   2  12
BRANCH   8  19
HETATM   19  C   UNK N   1      19.973  17.829   3.225  0.00  0.00     0.077 C 
BRANCH  19  20
HETATM   20  C   UNK N   1      20.040  16.337   2.942  0.00  0.00     0.018 C 
BRANCH  20  21
HETATM   21  C   UNK N   1      20.550  16.067   1.534  0.00  0.00     0.110 C 
BRANCH  21  22
HETATM   22  C   UNK N   1      19.835  16.871   0.485  0.00  0.00     0.139 C 
HETATM   23  O   UNK N   1      20.437  17.670  -0.216  0.00  0.00    -0.650 OA
BRANCH  22  24
HETATM   24  O   UNK N   1      18.512  16.703   0.314  0.00  0.00    -0.776 OA
HETATM   25  H   UNK N   1      18.051  16.058   0.814  0.00  0.00     0.167 HD
ENDBRANCH  22  24
ENDBRANCH  21  22
ENDBRANCH  20  21
ENDBRANCH  19  20
ENDBRANCH   8  19
TORSDOF 10
ENDMDL
MODEL 4
REMARK VINA RESULT:      -5.8     10.819     13.961
REMARK  10 active torsions:
REMARK  status: ('A' for Active; 'I' for Inactive)
REMARK    1  A    between atoms: C_2  and  N_18 
REMARK    2  A    between atoms: C_8  and  C_11 
REMARK    3  A    between atoms: C_11  and  C_12 
REMARK    4  A    between atoms: C_12  and  C_13 
REMARK    5  A    between atoms: C_13  and  C_14 
REMARK    6  A    between atoms: C_14  and  O_16 
REMARK    7  A    between atoms: N_18  and  C_19 
REMARK    8  A    between atoms: N_18  and  C_20 
REMARK    9  A    between atoms: C_19  and  C_23 
REMARK   10  A    between atoms: C_20  and  C_21 
ROOT
HETATM    1  C   UNK N   1      35.088  15.005  11.664  0.00  0.00     0.061 A 
HETATM    2  C   UNK N   1      35.409  13.627  11.706  0.00  0.00     0.032 A 
HETATM    3  C   UNK N   1      35.598  12.919  10.485  0.00  0.00     0.031 A 
HETATM    4  C   UNK N   1      34.957  15.606  10.419  0.00  0.00     0.062 A 
HETATM    5  C   UNK N   1      35.144  14.919   9.259  0.00  0.00     0.062 A 
HETATM    6  C   UNK N   1      35.474  13.568   9.243  0.00  0.00     0.034 A 
HETATM    7  N   UNK N   1      34.942  15.748   8.229  0.00  0.00    -0.339 N 
HETATM    8  C   UNK N   1      34.620  16.939   8.793  0.00  0.00     0.084 A 
HETATM    9  N   UNK N   1      34.627  16.884  10.148  0.00  0.00    -0.344 N 
ATOM     10  HN  UNK N   1      34.428  17.635  10.810  1.00  0.00     0.167 HD
HETATM   11  C   UNK N   1      35.035  15.428   6.813  0.00  0.00     0.158 C 
ENDROOT
BRANCH   2  12
HETATM   12  N   UNK N   1      35.547  12.952  12.959  0.00  0.00    -0.379 N 
BRANCH  12  13
HETATM   13  C   UNK N   1      35.604  11.507  13.031  0.00  0.00     0.138 C 
BRANCH  13  14
HETATM   14  C   UNK N   1      34.206  10.916  12.997  0.00  0.00     0.134 C 
HETATM   15 Cl   UNK N   1      33.595  10.699  14.653  0.00  0.00    -0.129 Cl
ENDBRANCH  13  14
ENDBRANCH  12  13
BRANCH  12  16
HETATM   16  C   UNK N   1      35.657  13.711  14.186  0.00  0.00     0.138 C 
BRANCH  16  17
HETATM   17  C   UNK N   1      36.527  12.989  15.196  0.00  0.00     0.134 C 
HETATM   18 Cl   UNK N   1      35.588  12.736  16.685  0.00  0.00    -0.129 Cl
ENDBRANCH  16  17
ENDBRANCH  12  16
ENDBRANCH   2  12
BRANCH   8  19
HETATM   19  C   UNK N   1      34.250  18.163   8.028  0.00  0.00     0.077 C 
BRANCH  19  20
HETATM   20  C   UNK N   1      32.788  18.478   8.301  0.00  0.00     0.018 C 
BRANCH  20  21
HETATM   21  C   UNK N   1      31.878  17.406   7.719  0.00  0.00     0.110 C 
BRANCH  21  22
HETATM   22  C   UNK N   1      30.958  16.799   8.740  0.00  0.00     0.139 C 
HETATM   23  O   UNK N   1      29.761  17.045   8.735  0.00  0.00    -0.650 OA
BRANCH  22  24
HETATM   24  O   UNK N   1      31.460  15.968   9.669  0.00  0.00    -0.776 OA
HETATM   25  H   UNK N   1      32.386  15.842   9.736  0.00  0.00     0.167 HD
ENDBRANCH  22  24
ENDBRANCH  21  22
ENDBRANCH  20  21
ENDBRANCH  19  20
ENDBRANCH   8  19
TORSDOF 10
ENDMDL
MODEL 5
REMARK VINA RESULT:      -5.7      9.565     12.909
REMARK  10 active torsions:
REMARK  status: ('A' for Active; 'I' for Inactive)
REMARK    1  A    between atoms: C_2  and  N_18 
REMARK    2  A    between atoms: C_8  and  C_11 
REMARK    3  A    between atoms: C_11  and  C_12 
REMARK    4  A    between atoms: C_12  and  C_13 
REMARK    5  A    between atoms: C_13  and  C_14 
REMARK    6  A    between atoms: C_14  and  O_16 
REMARK    7  A    between atoms: N_18  and  C_19 
REMARK    8  A    between atoms: N_18  and  C_20 
REMARK    9  A    between atoms: C_19  and  C_23 
REMARK   10  A    between atoms: C_20  and  C_21 
ROOT
HETATM    1  C   UNK N   1      33.848  14.583  10.984  0.00  0.00     0.061 A 
HETATM    2  C   UNK N   1      35.075  14.628  11.689  0.00  0.00     0.032 A 
HETATM    3  C   UNK N   1      35.999  15.674  11.410  0.00  0.00     0.031 A 
HETATM    4  C   UNK N   1      33.606  15.565  10.033  0.00  0.00     0.062 A 
HETATM    5  C   UNK N   1      34.497  16.563   9.779  0.00  0.00     0.062 A 
HETATM    6  C   UNK N   1      35.711  16.662  10.451  0.00  0.00     0.034 A 
HETATM    7  N   UNK N   1      34.003  17.348   8.814  0.00  0.00    -0.339 N 
HETATM    8  C   UNK N   1      32.807  16.795   8.489  0.00  0.00     0.084 A 
HETATM    9  N   UNK N   1      32.531  15.694   9.232  0.00  0.00    -0.344 N 
ATOM     10  HN  UNK N   1      31.702  15.100   9.192  1.00  0.00     0.167 HD
HETATM   11  C   UNK N   1      34.627  18.527   8.236  0.00  0.00     0.158 C 
ENDROOT
BRANCH   2  12
HETATM   12  N   UNK N   1      35.383  13.637  12.672  0.00  0.00    -0.379 N 
BRANCH  12  13
HETATM   13  C   UNK N   1      35.106  12.235  12.438  0.00  0.00     0.138 C 
BRANCH  13  14
HETATM   14  C   UNK N   1      36.002  11.691  11.339  0.00  0.00     0.134 C 
HETATM   15 Cl   UNK N   1      37.680  11.584  11.917  0.00  0.00    -0.129 Cl
ENDBRANCH  13  14
ENDBRANCH  12  13
BRANCH  12  16
HETATM   16  C   UNK N   1      36.006  14.021  13.920  0.00  0.00     0.138 C 
BRANCH  16  17
HETATM   17  C   UNK N   1      36.001  12.869  14.907  0.00  0.00     0.134 C 
HETATM   18 Cl   UNK N   1      34.594  13.041  15.981  0.00  0.00    -0.129 Cl
ENDBRANCH  16  17
ENDBRANCH  12  16
ENDBRANCH   2  12
BRANCH   8  19
HETATM   19  C   UNK N   1      31.910  17.298   7.410  0.00  0.00     0.077 C 
BRANCH  19  20
HETATM   20  C   UNK N   1      30.493  16.834   7.708  0.00  0.00     0.018 C 
BRANCH  20  21
HETATM   21  C   UNK N   1      29.615  17.997   8.145  0.00  0.00     0.110 C 
BRANCH  21  22
HETATM   22  C   UNK N   1      28.768  17.676   9.344  0.00  0.00     0.139 C 
HETATM   23  O   UNK N   1      29.208  17.004  10.264  0.00  0.00    -0.650 OA
BRANCH  22  24
HETATM   24  O   UNK N   1      27.508  18.141   9.405  0.00  0.00    -0.776 OA
HETATM   25  H   UNK N   1      26.848  17.651   9.855  0.00  0.00     0.167 HD
ENDBRANCH  22  24
ENDBRANCH  21  22
ENDBRANCH  20  21
ENDBRANCH  19  20
ENDBRANCH   8  19
TORSDOF 10
ENDMDL
MODEL 6
REMARK VINA RESULT:      -5.6      9.873     13.563
REMARK  10 active torsions:
REMARK  status: ('A' for Active; 'I' for Inactive)
REMARK    1  A    between atoms: C_2  and  N_18 
REMARK    2  A    between atoms: C_8  and  C_11 
REMARK    3  A    between atoms: C_11  and  C_12 
REMARK    4  A    between atoms: C_12  and  C_13 
REMARK    5  A    between atoms: C_13  and  C_14 
REMARK    6  A    between atoms: C_14  and  O_16 
REMARK    7  A    between atoms: N_18  and  C_19 
REMARK    8  A    between atoms: N_18  and  C_20 
REMARK    9  A    between atoms: C_19  and  C_23 
REMARK   10  A    between atoms: C_20  and  C_21 
ROOT
HETATM    1  C   UNK N   1      34.584  14.234  11.639  0.00  0.00     0.061 A 
HETATM    2  C   UNK N   1      35.974  13.974  11.688  0.00  0.00     0.032 A 
HETATM    3  C   UNK N   1      36.783  14.297  10.562  0.00  0.00     0.031 A 
HETATM    4  C   UNK N   1      34.065  14.787  10.475  0.00  0.00     0.062 A 
HETATM    5  C   UNK N   1      34.850  15.094   9.406  0.00  0.00     0.062 A 
HETATM    6  C   UNK N   1      36.223  14.872   9.407  0.00  0.00     0.034 A 
HETATM    7  N   UNK N   1      34.079  15.596   8.435  0.00  0.00    -0.339 N 
HETATM    8  C   UNK N   1      32.819  15.572   8.937  0.00  0.00     0.084 A 
HETATM    9  N   UNK N   1      32.779  15.082  10.202  0.00  0.00    -0.344 N 
ATOM     10  HN  UNK N   1      31.965  14.964  10.805  1.00  0.00     0.167 HD
HETATM   11  C   UNK N   1      34.507  16.052   7.121  0.00  0.00     0.158 C 
ENDROOT
BRANCH   2  12
HETATM   12  N   UNK N   1      36.563  13.397  12.857  0.00  0.00    -0.379 N 
BRANCH  12  13
HETATM   13  C   UNK N   1      36.366  13.985  14.166  0.00  0.00     0.138 C 
BRANCH  13  14
HETATM   14  C   UNK N   1      35.480  13.096  15.021  0.00  0.00     0.134 C 
HETATM   15 Cl   UNK N   1      35.565  13.606  16.723  0.00  0.00    -0.129 Cl
ENDBRANCH  13  14
ENDBRANCH  12  13
BRANCH  12  16
HETATM   16  C   UNK N   1      37.353  12.190  12.752  0.00  0.00     0.138 C 
BRANCH  16  17
HETATM   17  C   UNK N   1      36.534  11.052  12.176  0.00  0.00     0.134 C 
HETATM   18 Cl   UNK N   1      37.163  10.653  10.561  0.00  0.00    -0.129 Cl
ENDBRANCH  16  17
ENDBRANCH  12  16
ENDBRANCH   2  12
BRANCH   8  19
HETATM   19  C   UNK N   1      31.602  15.987   8.184  0.00  0.00     0.077 C 
BRANCH  19  20
HETATM   20  C   UNK N   1      31.246  17.407   8.590  0.00  0.00     0.018 C 
BRANCH  20  21
HETATM   21  C   UNK N   1      29.803  17.735   8.235  0.00  0.00     0.110 C 
BRANCH  21  22
HETATM   22  C   UNK N   1      29.031  18.312   9.387  0.00  0.00     0.139 C 
HETATM   23  O   UNK N   1      29.603  18.841  10.328  0.00  0.00    -0.650 OA
BRANCH  22  24
HETATM   24  O   UNK N   1      27.688  18.247   9.379  0.00  0.00    -0.776 OA
HETATM   25  H   UNK N   1      27.257  17.430   9.220  0.00  0.00     0.167 HD
ENDBRANCH  22  24
ENDBRANCH  21  22
ENDBRANCH  20  21
ENDBRANCH  19  20
ENDBRANCH   8  19
TORSDOF 10
ENDMDL
MODEL 7
REMARK VINA RESULT:      -5.6     11.028     14.169
REMARK  10 active torsions:
REMARK  status: ('A' for Active; 'I' for Inactive)
REMARK    1  A    between atoms: C_2  and  N_18 
REMARK    2  A    between atoms: C_8  and  C_11 
REMARK    3  A    between atoms: C_11  and  C_12 
REMARK    4  A    between atoms: C_12  and  C_13 
REMARK    5  A    between atoms: C_13  and  C_14 
REMARK    6  A    between atoms: C_14  and  O_16 
REMARK    7  A    between atoms: N_18  and  C_19 
REMARK    8  A    between atoms: N_18  and  C_20 
REMARK    9  A    between atoms: C_19  and  C_23 
REMARK   10  A    between atoms: C_20  and  C_21 
ROOT
HETATM    1  C   UNK N   1      35.220  15.043  11.930  0.00  0.00     0.061 A 
HETATM    2  C   UNK N   1      35.505  13.659  12.022  0.00  0.00     0.032 A 
HETATM    3  C   UNK N   1      35.665  12.900  10.829  0.00  0.00     0.031 A 
HETATM    4  C   UNK N   1      35.096  15.599  10.664  0.00  0.00     0.062 A 
HETATM    5  C   UNK N   1      35.255  14.862   9.530  0.00  0.00     0.062 A 
HETATM    6  C   UNK N   1      35.548  13.503   9.563  0.00  0.00     0.034 A 
HETATM    7  N   UNK N   1      35.067  15.657   8.469  0.00  0.00    -0.339 N 
HETATM    8  C   UNK N   1      34.782  16.877   8.990  0.00  0.00     0.084 A 
HETATM    9  N   UNK N   1      34.798  16.874  10.346  0.00  0.00    -0.344 N 
ATOM     10  HN  UNK N   1      34.626  17.655  10.979  1.00  0.00     0.167 HD
HETATM   11  C   UNK N   1      35.140  15.280   7.066  0.00  0.00     0.158 C 
ENDROOT
BRANCH   2  12
HETATM   12  N   UNK N   1      35.635  13.029  13.300  0.00  0.00    -0.379 N 
BRANCH  12  13
HETATM   13  C   UNK N   1      36.835  13.184  14.095  0.00  0.00     0.138 C 
BRANCH  13  14
HETATM   14  C   UNK N   1      36.502  13.774  15.454  0.00  0.00     0.134 C 
HETATM   15 Cl   UNK N   1      37.375  15.306  15.685  0.00  0.00    -0.129 Cl
ENDBRANCH  13  14
ENDBRANCH  12  13
BRANCH  12  16
HETATM   16  C   UNK N   1      34.547  12.239  13.835  0.00  0.00     0.138 C 
BRANCH  16  17
HETATM   17  C   UNK N   1      34.817  10.757  13.664  0.00  0.00     0.134 C 
HETATM   18 Cl   UNK N   1      33.778  10.131  12.364  0.00  0.00    -0.129 Cl
ENDBRANCH  16  17
ENDBRANCH  12  16
ENDBRANCH   2  12
BRANCH   8  19
HETATM   19  C   UNK N   1      34.439  18.081   8.181  0.00  0.00     0.077 C 
BRANCH  19  20
HETATM   20  C   UNK N   1      32.959  18.374   8.359  0.00  0.00     0.018 C 
BRANCH  20  21
HETATM   21  C   UNK N   1      32.108  17.454   7.496  0.00  0.00     0.110 C 
BRANCH  21  22
HETATM   22  C   UNK N   1      31.534  16.295   8.260  0.00  0.00     0.139 C 
HETATM   23  O   UNK N   1      31.670  15.148   7.863  0.00  0.00    -0.650 OA
BRANCH  22  24
HETATM   24  O   UNK N   1      30.864  16.526   9.403  0.00  0.00    -0.776 OA
HETATM   25  H   UNK N   1      29.926  16.541   9.403  0.00  0.00     0.167 HD
ENDBRANCH  22  24
ENDBRANCH  21  22
ENDBRANCH  20  21
ENDBRANCH  19  20
ENDBRANCH   8  19
TORSDOF 10
ENDMDL
MODEL 8
REMARK VINA RESULT:      -5.4      9.454     12.732
REMARK  10 active torsions:
REMARK  status: ('A' for Active; 'I' for Inactive)
REMARK    1  A    between atoms: C_2  and  N_18 
REMARK    2  A    between atoms: C_8  and  C_11 
REMARK    3  A    between atoms: C_11  and  C_12 
REMARK    4  A    between atoms: C_12  and  C_13 
REMARK    5  A    between atoms: C_13  and  C_14 
REMARK    6  A    between atoms: C_14  and  O_16 
REMARK    7  A    between atoms: N_18  and  C_19 
REMARK    8  A    between atoms: N_18  and  C_20 
REMARK    9  A    between atoms: C_19  and  C_23 
REMARK   10  A    between atoms: C_20  and  C_21 
ROOT
HETATM    1  C   UNK N   1      34.630  14.947  10.789  0.00  0.00     0.061 A 
HETATM    2  C   UNK N   1      34.947  13.572  10.898  0.00  0.00     0.032 A 
HETATM    3  C   UNK N   1      34.444  12.662   9.926  0.00  0.00     0.031 A 
HETATM    4  C   UNK N   1      33.823  15.348   9.732  0.00  0.00     0.062 A 
HETATM    5  C   UNK N   1      33.352  14.468   8.806  0.00  0.00     0.062 A 
HETATM    6  C   UNK N   1      33.643  13.109   8.859  0.00  0.00     0.034 A 
HETATM    7  N   UNK N   1      32.599  15.134   7.922  0.00  0.00    -0.339 N 
HETATM    8  C   UNK N   1      32.620  16.423   8.343  0.00  0.00     0.084 A 
HETATM    9  N   UNK N   1      33.374  16.588   9.458  0.00  0.00    -0.344 N 
ATOM     10  HN  UNK N   1      33.559  17.451   9.971  1.00  0.00     0.167 HD
HETATM   11  C   UNK N   1      31.902  14.582   6.771  0.00  0.00     0.158 C 
ENDROOT
BRANCH   2  12
HETATM   12  N   UNK N   1      35.765  13.099  11.972  0.00  0.00    -0.379 N 
BRANCH  12  13
HETATM   13  C   UNK N   1      36.964  12.326  11.718  0.00  0.00     0.138 C 
BRANCH  13  14
HETATM   14  C   UNK N   1      37.927  13.108  10.842  0.00  0.00     0.134 C 
HETATM   15 Cl   UNK N   1      38.100  12.310   9.263  0.00  0.00    -0.129 Cl
ENDBRANCH  13  14
ENDBRANCH  12  13
BRANCH  12  16
HETATM   16  C   UNK N   1      35.419  13.410  13.341  0.00  0.00     0.138 C 
BRANCH  16  17
HETATM   17  C   UNK N   1      36.412  14.383  13.946  0.00  0.00     0.134 C 
HETATM   18 Cl   UNK N   1      36.901  13.783  15.547  0.00  0.00    -0.129 Cl
ENDBRANCH  16  17
ENDBRANCH  12  16
ENDBRANCH   2  12
BRANCH   8  19
HETATM   19  C   UNK N   1      31.866  17.535   7.696  0.00  0.00     0.077 C 
BRANCH  19  20
HETATM   20  C   UNK N   1      31.012  18.215   8.752  0.00  0.00     0.018 C 
BRANCH  20  21
HETATM   21  C   UNK N   1      29.552  18.267   8.328  0.00  0.00     0.110 C 
BRANCH  21  22
HETATM   22  C   UNK N   1      28.614  17.748   9.381  0.00  0.00     0.139 C 
HETATM   23  O   UNK N   1      28.998  16.965  10.236  0.00  0.00    -0.650 OA
BRANCH  22  24
HETATM   24  O   UNK N   1      27.333  18.156   9.383  0.00  0.00    -0.776 OA
HETATM   25  H   UNK N   1      26.885  18.293  10.195  0.00  0.00     0.167 HD
ENDBRANCH  22  24
ENDBRANCH  21  22
ENDBRANCH  20  21
ENDBRANCH  19  20
ENDBRANCH   8  19
TORSDOF 10
ENDMDL
MODEL 9
REMARK VINA RESULT:      -5.4      6.457     10.625
REMARK  10 active torsions:
REMARK  status: ('A' for Active; 'I' for Inactive)
REMARK    1  A    between atoms: C_2  and  N_18 
REMARK    2  A    between atoms: C_8  and  C_11 
REMARK    3  A    between atoms: C_11  and  C_12 
REMARK    4  A    between atoms: C_12  and  C_13 
REMARK    5  A    between atoms: C_13  and  C_14 
REMARK    6  A    between atoms: C_14  and  O_16 
REMARK    7  A    between atoms: N_18  and  C_19 
REMARK    8  A    between atoms: N_18  and  C_20 
REMARK    9  A    between atoms: C_19  and  C_23 
REMARK   10  A    between atoms: C_20  and  C_21 
ROOT
HETATM    1  C   UNK N   1      29.739  17.415   6.945  0.00  0.00     0.061 A 
HETATM    2  C   UNK N   1      29.270  17.767   5.657  0.00  0.00     0.032 A 
HETATM    3  C   UNK N   1      29.964  17.290   4.509  0.00  0.00     0.031 A 
HETATM    4  C   UNK N   1      30.876  16.622   7.031  0.00  0.00     0.062 A 
HETATM    5  C   UNK N   1      31.529  16.170   5.925  0.00  0.00     0.062 A 
HETATM    6  C   UNK N   1      31.104  16.474   4.636  0.00  0.00     0.034 A 
HETATM    7  N   UNK N   1      32.586  15.446   6.313  0.00  0.00    -0.339 N 
HETATM    8  C   UNK N   1      32.559  15.484   7.669  0.00  0.00     0.084 A 
HETATM    9  N   UNK N   1      31.509  16.200   8.142  0.00  0.00    -0.344 N 
ATOM     10  HN  UNK N   1      31.256  16.378   9.115  1.00  0.00     0.167 HD
HETATM   11  C   UNK N   1      33.556  14.780   5.458  0.00  0.00     0.158 C 
ENDROOT
BRANCH   2  12
HETATM   12  N   UNK N   1      28.110  18.589   5.507  0.00  0.00    -0.379 N 
BRANCH  12  13
HETATM   13  C   UNK N   1      27.722  19.534   6.534  0.00  0.00     0.138 C 
BRANCH  13  14
HETATM   14  C   UNK N   1      27.344  20.868   5.915  0.00  0.00     0.134 C 
HETATM   15 Cl   UNK N   1      26.278  21.771   7.016  0.00  0.00    -0.129 Cl
ENDBRANCH  13  14
ENDBRANCH  12  13
BRANCH  12  16
HETATM   16  C   UNK N   1      27.311  18.508   4.304  0.00  0.00     0.138 C 
BRANCH  16  17
HETATM   17  C   UNK N   1      26.169  17.526   4.475  0.00  0.00     0.134 C 
HETATM   18 Cl   UNK N   1      24.649  18.329   4.019  0.00  0.00    -0.129 Cl
ENDBRANCH  16  17
ENDBRANCH  12  16
ENDBRANCH   2  12
BRANCH   8  19
HETATM   19  C   UNK N   1      33.585  14.860   8.551  0.00  0.00     0.077 C 
BRANCH  19  20
HETATM   20  C   UNK N   1      34.740  15.834   8.710  0.00  0.00     0.018 C 
BRANCH  20  21
HETATM   21  C   UNK N   1      34.244  17.215   9.110  0.00  0.00     0.110 C 
BRANCH  21  22
HETATM   22  C   UNK N   1      34.701  18.298   8.175  0.00  0.00     0.139 C 
HETATM   23  O   UNK N   1      35.330  19.261   8.585  0.00  0.00    -0.650 OA
BRANCH  22  24
HETATM   24  O   UNK N   1      34.415  18.203   6.865  0.00  0.00    -0.776 OA
HETATM   25  H   UNK N   1      33.676  17.700   6.580  0.00  0.00     0.167 HD
ENDBRANCH  22  24
ENDBRANCH  21  22
ENDBRANCH  20  21
ENDBRANCH  19  20
ENDBRANCH   8  19
TORSDOF 10
ENDMDL
