MODEL 1
REMARK VINA RESULT:      -1.2      0.000      0.000
REMARK  1 active torsions:
REMARK  status: ('A' for Active; 'I' for Inactive)
REMARK    1  A    between atoms: Ca_1  and  Ca_1 
ROOT
HETATM    1 Ca   UNK N   1      35.636  21.382  12.738  0.00  0.00     0.000 Ca
ENDROOT
TORSDOF 1
ENDMDL
MODEL 2
REMARK VINA RESULT:      -1.2      4.336      4.336
REMARK  1 active torsions:
REMARK  status: ('A' for Active; 'I' for Inactive)
REMARK    1  A    between atoms: Ca_1  and  Ca_1 
ROOT
HETATM    1 Ca   UNK N   1      39.971  21.402  12.814  0.00  0.00     0.000 Ca
ENDROOT
TORSDOF 1
ENDMDL
MODEL 3
REMARK VINA RESULT:      -1.2     23.769     23.769
REMARK  1 active torsions:
REMARK  status: ('A' for Active; 'I' for Inactive)
REMARK    1  A    between atoms: Ca_1  and  Ca_1 
ROOT
HETATM    1 Ca   UNK N   1      21.453  21.778  -6.332  0.00  0.00     0.000 Ca
ENDROOT
TORSDOF 1
ENDMDL
MODEL 4
REMARK VINA RESULT:      -1.1     11.491     11.491
REMARK  1 active torsions:
REMARK  status: ('A' for Active; 'I' for Inactive)
REMARK    1  A    between atoms: Ca_1  and  Ca_1 
ROOT
HETATM    1 Ca   UNK N   1      43.320  25.304   5.147  0.00  0.00     0.000 Ca
ENDROOT
TORSDOF 1
ENDMDL
MODEL 5
REMARK VINA RESULT:      -1.0     24.557     24.557
REMARK  1 active torsions:
REMARK  status: ('A' for Active; 'I' for Inactive)
REMARK    1  A    between atoms: Ca_1  and  Ca_1 
ROOT
HETATM    1 Ca   UNK N   1      19.922  20.075  -6.089  0.00  0.00     0.000 Ca
ENDROOT
TORSDOF 1
ENDMDL
MODEL 6
REMARK VINA RESULT:      -1.0     11.083     11.083
REMARK  1 active torsions:
REMARK  status: ('A' for Active; 'I' for Inactive)
REMARK    1  A    between atoms: Ca_1  and  Ca_1 
ROOT
HETATM    1 Ca   UNK N   1      41.691  21.639  22.017  0.00  0.00     0.000 Ca
ENDROOT
TORSDOF 1
ENDMDL
MODEL 7
REMARK VINA RESULT:      -1.0     23.076     23.076
REMARK  1 active torsions:
REMARK  status: ('A' for Active; 'I' for Inactive)
REMARK    1  A    between atoms: Ca_1  and  Ca_1 
ROOT
HETATM    1 Ca   UNK N   1      16.938  17.311  -0.159  0.00  0.00     0.000 Ca
ENDROOT
TORSDOF 1
ENDMDL
MODEL 8
REMARK VINA RESULT:      -0.9      3.213      3.213
REMARK  1 active torsions:
REMARK  status: ('A' for Active; 'I' for Inactive)
REMARK    1  A    between atoms: Ca_1  and  Ca_1 
ROOT
HETATM    1 Ca   UNK N   1      36.345  19.944   9.954  0.00  0.00     0.000 Ca
ENDROOT
TORSDOF 1
ENDMDL
MODEL 9
REMARK VINA RESULT:      -0.9     20.343     20.343
REMARK  1 active torsions:
REMARK  status: ('A' for Active; 'I' for Inactive)
REMARK    1  A    between atoms: Ca_1  and  Ca_1 
ROOT
HETATM    1 Ca   UNK N   1      20.033  20.938  -0.308  0.00  0.00     0.000 Ca
ENDROOT
TORSDOF 1
ENDMDL
