MODEL 1
REMARK VINA RESULT:      -5.1      0.000      0.000
REMARK WARNING: 32 MAX_TORS EXCEEDED!!!
REMARK  36 active torsions:
REMARK  status: ('A' for Active; 'I' for Inactive)
REMARK    1  A    between atoms: C_2  and  C_3 
REMARK    2  A    between atoms: C_3  and  C_4 
REMARK    3  A    between atoms: C_4  and  C_5 
REMARK    4  A    between atoms: C_5  and  C_6 
REMARK    5  A    between atoms: C_6  and  C_7 
REMARK    6  A    between atoms: C_7  and  C_8 
REMARK    7  A    between atoms: C_8  and  C_9 
REMARK    8  A    between atoms: C_9  and  C_10 
REMARK    9  A    between atoms: C_13  and  O_16 
REMARK   10  A    between atoms: O_16  and  C_17 
REMARK   11  A    between atoms: C_17  and  C_18 
REMARK   12  A    between atoms: C_18  and  O_19 
REMARK   13  A    between atoms: O_19  and  C_20 
REMARK   14  A    between atoms: C_20  and  C_21 
REMARK   15  A    between atoms: C_21  and  O_22 
REMARK   16  A    between atoms: O_22  and  C_23 
REMARK   17  A    between atoms: C_23  and  C_24 
REMARK   18  A    between atoms: C_24  and  O_25 
REMARK   19  A    between atoms: O_25  and  C_26 
REMARK   20  A    between atoms: C_26  and  C_27 
REMARK   21  A    between atoms: C_27  and  O_28 
REMARK   22  A    between atoms: O_28  and  C_29 
REMARK   23  A    between atoms: C_29  and  C_30 
REMARK   24  A    between atoms: C_30  and  O_31 
REMARK   25  A    between atoms: O_31  and  C_32 
REMARK   26  A    between atoms: C_32  and  C_33 
REMARK   27  A    between atoms: C_33  and  O_34 
REMARK   28  A    between atoms: O_34  and  C_35 
REMARK   29  A    between atoms: C_35  and  C_36 
REMARK   30  A    between atoms: C_36  and  O_37 
REMARK   31  A    between atoms: O_37  and  C_38 
REMARK   32  A    between atoms: C_38  and  C_39 
REMARK   33  A    between atoms: C_39  and  O_40 
REMARK   34  A    between atoms: O_40  and  C_41 
REMARK   35  A    between atoms: C_41  and  C_42 
REMARK   36  A    between atoms: C_42  and  O_43 
ROOT
HETATM    1  O   UNK N   1      20.916  19.109   4.058  0.00  0.00    -0.387 OA
ENDROOT
BRANCH   1   2
HETATM    2  C   UNK N   1      21.586  19.826   3.062  0.00  0.00     0.193 C 
BRANCH   2   3
HETATM    3  C   UNK N   1      23.083  19.801   3.333  0.00  0.00     0.193 C 
BRANCH   3   4
HETATM    4  O   UNK N   1      23.740  20.700   2.485  0.00  0.00    -0.387 OA
BRANCH   4   5
HETATM    5  C   UNK N   1      25.106  20.549   2.757  0.00  0.00     0.194 C 
BRANCH   5   6
HETATM    6  C   UNK N   1      25.376  19.285   3.571  0.00  0.00     0.201 C 
BRANCH   6   7
HETATM    7  O   UNK N   1      26.725  19.026   3.700  0.00  0.00    -0.349 OA
BRANCH   7   8
HETATM    8  C   UNK N   1      27.322  18.738   4.882  0.00  0.00     0.068 A 
HETATM    9  C   UNK N   1      27.995  17.522   5.092  0.00  0.00     0.037 A 
HETATM   10  C   UNK N   1      28.611  17.251   6.314  0.00  0.00     0.010 A 
HETATM   11  C   UNK N   1      28.578  18.200   7.335  0.00  0.00    -0.058 A 
HETATM   12  C   UNK N   1      27.916  19.420   7.130  0.00  0.00     0.010 A 
HETATM   13  C   UNK N   1      27.277  19.679   5.915  0.00  0.00     0.037 A 
BRANCH  11  14
HETATM   14  C   UNK N   1      29.306  17.935   8.608  0.00  0.00     0.038 C 
BRANCH  14  15
HETATM   15  C   UNK N   1      30.802  18.137   8.443  0.00  0.00     0.005 C 
BRANCH  15  16
HETATM   16  C   UNK N   1      31.508  16.790   8.506  0.00  0.00     0.000 C 
BRANCH  16  17
HETATM   17  C   UNK N   1      32.167  16.421   7.180  0.00  0.00     0.000 C 
BRANCH  17  18
HETATM   18  C   UNK N   1      33.222  17.444   6.795  0.00  0.00     0.000 C 
BRANCH  18  19
HETATM   19  C   UNK N   1      33.366  17.507   5.285  0.00  0.00     0.000 C 
BRANCH  19  20
HETATM   20  C   UNK N   1      31.992  17.484   4.640  0.00  0.00    -0.000 C 
BRANCH  20  21
HETATM   21  C   UNK N   1      32.111  17.120   3.177  0.00  0.00    -0.005 C 
HETATM   22  C   UNK N   1      33.255  16.144   3.000  0.00  0.00     0.005 C 
ENDBRANCH  20  21
ENDBRANCH  19  20
ENDBRANCH  18  19
ENDBRANCH  17  18
ENDBRANCH  16  17
ENDBRANCH  15  16
ENDBRANCH  14  15
ENDBRANCH  11  14
ENDBRANCH   7   8
ENDBRANCH   6   7
ENDBRANCH   5   6
ENDBRANCH   4   5
ENDBRANCH   3   4
ENDBRANCH   2   3
ENDBRANCH   1   2
BRANCH   1  23
HETATM   23  C   UNK N   1      21.909  18.658   4.940  0.00  0.00     0.193 C 
BRANCH  23  24
HETATM   24  C   UNK N   1      21.317  17.727   5.991  0.00  0.00     0.193 C 
BRANCH  24  25
HETATM   25  O   UNK N   1      21.064  18.440   7.166  0.00  0.00    -0.387 OA
BRANCH  25  26
HETATM   26  C   UNK N   1      20.246  17.611   7.931  0.00  0.00     0.193 C 
BRANCH  26  27
HETATM   27  C   UNK N   1      19.942  16.350   7.153  0.00  0.00     0.193 C 
BRANCH  27  28
HETATM   28  O   UNK N   1      19.552  15.343   8.036  0.00  0.00    -0.387 OA
BRANCH  28  29
HETATM   29  C   UNK N   1      20.750  14.843   8.539  0.00  0.00     0.193 C 
BRANCH  29  30
HETATM   30  C   UNK N   1      20.495  14.049   9.812  0.00  0.00     0.193 C 
BRANCH  30  31
HETATM   31  O   UNK N   1      20.845  12.713   9.609  0.00  0.00    -0.387 OA
BRANCH  31  32
HETATM   32  C   UNK N   1      21.579  12.354  10.742  0.00  0.00     0.193 C 
BRANCH  32  33
HETATM   33  C   UNK N   1      23.059  12.591  10.492  0.00  0.00     0.193 C 
BRANCH  33  34
HETATM   34  O   UNK N   1      23.418  12.089   9.240  0.00  0.00    -0.387 OA
BRANCH  34  35
HETATM   35  C   UNK N   1      24.140  13.125   8.647  0.00  0.00     0.193 C 
BRANCH  35  36
HETATM   36  C   UNK N   1      24.254  12.900   7.150  0.00  0.00     0.193 C 
BRANCH  36  37
HETATM   37  O   UNK N   1      23.181  13.510   6.498  0.00  0.00    -0.387 OA
BRANCH  37  38
HETATM   38  C   UNK N   1      22.758  12.588   5.536  0.00  0.00     0.193 C 
BRANCH  38  39
HETATM   39  C   UNK N   1      21.524  13.118   4.824  0.00  0.00     0.193 C 
BRANCH  39  40
HETATM   40  O   UNK N   1      21.629  14.498   4.653  0.00  0.00    -0.387 OA
BRANCH  40  41
HETATM   41  C   UNK N   1      21.027  14.743   3.418  0.00  0.00     0.193 C 
BRANCH  41  42
HETATM   42  C   UNK N   1      19.668  15.383   3.629  0.00  0.00     0.190 C 
BRANCH  42  43
HETATM   43  O   UNK N   1      19.626  16.614   2.977  0.00  0.00    -0.399 OA
HETATM   44  H   UNK N   1      18.932  17.281   3.089  0.00  0.00     0.209 HD
ENDBRANCH  42  43
ENDBRANCH  41  42
ENDBRANCH  40  41
ENDBRANCH  39  40
ENDBRANCH  38  39
ENDBRANCH  37  38
ENDBRANCH  36  37
ENDBRANCH  35  36
ENDBRANCH  34  35
ENDBRANCH  33  34
ENDBRANCH  32  33
ENDBRANCH  31  32
ENDBRANCH  30  31
ENDBRANCH  29  30
ENDBRANCH  28  29
ENDBRANCH  27  28
ENDBRANCH  26  27
ENDBRANCH  25  26
ENDBRANCH  24  25
ENDBRANCH  23  24
ENDBRANCH   1  23
TORSDOF 36
ENDMDL
MODEL 2
REMARK VINA RESULT:      -4.8      3.097      8.383
REMARK WARNING: 32 MAX_TORS EXCEEDED!!!
REMARK  36 active torsions:
REMARK  status: ('A' for Active; 'I' for Inactive)
REMARK    1  A    between atoms: C_2  and  C_3 
REMARK    2  A    between atoms: C_3  and  C_4 
REMARK    3  A    between atoms: C_4  and  C_5 
REMARK    4  A    between atoms: C_5  and  C_6 
REMARK    5  A    between atoms: C_6  and  C_7 
REMARK    6  A    between atoms: C_7  and  C_8 
REMARK    7  A    between atoms: C_8  and  C_9 
REMARK    8  A    between atoms: C_9  and  C_10 
REMARK    9  A    between atoms: C_13  and  O_16 
REMARK   10  A    between atoms: O_16  and  C_17 
REMARK   11  A    between atoms: C_17  and  C_18 
REMARK   12  A    between atoms: C_18  and  O_19 
REMARK   13  A    between atoms: O_19  and  C_20 
REMARK   14  A    between atoms: C_20  and  C_21 
REMARK   15  A    between atoms: C_21  and  O_22 
REMARK   16  A    between atoms: O_22  and  C_23 
REMARK   17  A    between atoms: C_23  and  C_24 
REMARK   18  A    between atoms: C_24  and  O_25 
REMARK   19  A    between atoms: O_25  and  C_26 
REMARK   20  A    between atoms: C_26  and  C_27 
REMARK   21  A    between atoms: C_27  and  O_28 
REMARK   22  A    between atoms: O_28  and  C_29 
REMARK   23  A    between atoms: C_29  and  C_30 
REMARK   24  A    between atoms: C_30  and  O_31 
REMARK   25  A    between atoms: O_31  and  C_32 
REMARK   26  A    between atoms: C_32  and  C_33 
REMARK   27  A    between atoms: C_33  and  O_34 
REMARK   28  A    between atoms: O_34  and  C_35 
REMARK   29  A    between atoms: C_35  and  C_36 
REMARK   30  A    between atoms: C_36  and  O_37 
REMARK   31  A    between atoms: O_37  and  C_38 
REMARK   32  A    between atoms: C_38  and  C_39 
REMARK   33  A    between atoms: C_39  and  O_40 
REMARK   34  A    between atoms: O_40  and  C_41 
REMARK   35  A    between atoms: C_41  and  C_42 
REMARK   36  A    between atoms: C_42  and  O_43 
ROOT
HETATM    1  O   UNK N   1      24.725  20.815   2.145  0.00  0.00    -0.387 OA
ENDROOT
BRANCH   1   2
HETATM    2  C   UNK N   1      23.888  20.710   3.260  0.00  0.00     0.193 C 
BRANCH   2   3
HETATM    3  C   UNK N   1      22.572  20.064   2.850  0.00  0.00     0.193 C 
BRANCH   3   4
HETATM    4  O   UNK N   1      21.860  20.920   2.001  0.00  0.00    -0.387 OA
BRANCH   4   5
HETATM    5  C   UNK N   1      20.718  20.207   1.615  0.00  0.00     0.194 C 
BRANCH   5   6
HETATM    6  C   UNK N   1      20.012  19.589   2.821  0.00  0.00     0.201 C 
BRANCH   6   7
HETATM    7  O   UNK N   1      19.796  18.236   2.661  0.00  0.00    -0.349 OA
BRANCH   7   8
HETATM    8  C   UNK N   1      20.348  17.291   3.460  0.00  0.00     0.068 A 
HETATM    9  C   UNK N   1      20.518  15.965   3.025  0.00  0.00     0.037 A 
HETATM   10  C   UNK N   1      21.098  15.010   3.861  0.00  0.00     0.010 A 
HETATM   11  C   UNK N   1      21.534  15.375   5.135  0.00  0.00    -0.058 A 
HETATM   12  C   UNK N   1      21.377  16.698   5.572  0.00  0.00     0.010 A 
HETATM   13  C   UNK N   1      20.771  17.646   4.744  0.00  0.00     0.037 A 
BRANCH  11  14
HETATM   14  C   UNK N   1      22.224  14.368   5.990  0.00  0.00     0.038 C 
BRANCH  14  15
HETATM   15  C   UNK N   1      23.389  14.987   6.742  0.00  0.00     0.005 C 
BRANCH  15  16
HETATM   16  C   UNK N   1      24.691  14.350   6.277  0.00  0.00     0.000 C 
BRANCH  16  17
HETATM   17  C   UNK N   1      25.729  15.391   5.869  0.00  0.00     0.000 C 
BRANCH  17  18
HETATM   18  C   UNK N   1      25.073  16.565   5.163  0.00  0.00     0.000 C 
BRANCH  18  19
HETATM   19  C   UNK N   1      25.370  16.516   3.675  0.00  0.00     0.000 C 
BRANCH  19  20
HETATM   20  C   UNK N   1      24.439  15.524   3.001  0.00  0.00    -0.000 C 
BRANCH  20  21
HETATM   21  C   UNK N   1      25.213  14.667   2.024  0.00  0.00    -0.005 C 
HETATM   22  C   UNK N   1      26.676  15.055   2.074  0.00  0.00     0.005 C 
ENDBRANCH  20  21
ENDBRANCH  19  20
ENDBRANCH  18  19
ENDBRANCH  17  18
ENDBRANCH  16  17
ENDBRANCH  15  16
ENDBRANCH  14  15
ENDBRANCH  11  14
ENDBRANCH   7   8
ENDBRANCH   6   7
ENDBRANCH   5   6
ENDBRANCH   4   5
ENDBRANCH   3   4
ENDBRANCH   2   3
ENDBRANCH   1   2
BRANCH   1  23
HETATM   23  C   UNK N   1      26.036  20.771   2.643  0.00  0.00     0.193 C 
BRANCH  23  24
HETATM   24  C   UNK N   1      26.089  20.002   3.958  0.00  0.00     0.193 C 
BRANCH  24  25
HETATM   25  O   UNK N   1      27.223  20.380   4.681  0.00  0.00    -0.387 OA
BRANCH  25  26
HETATM   26  C   UNK N   1      26.804  20.454   6.008  0.00  0.00     0.193 C 
BRANCH  26  27
HETATM   27  C   UNK N   1      27.803  19.738   6.891  0.00  0.00     0.193 C 
BRANCH  27  28
HETATM   28  O   UNK N   1      27.703  18.362   6.681  0.00  0.00    -0.387 OA
BRANCH  28  29
HETATM   29  C   UNK N   1      28.763  17.826   7.408  0.00  0.00     0.193 C 
BRANCH  29  30
HETATM   30  C   UNK N   1      28.959  18.604   8.702  0.00  0.00     0.193 C 
BRANCH  30  31
HETATM   31  O   UNK N   1      30.305  18.568   9.071  0.00  0.00    -0.387 OA
BRANCH  31  32
HETATM   32  C   UNK N   1      30.694  17.238   8.894  0.00  0.00     0.193 C 
BRANCH  32  33
HETATM   33  C   UNK N   1      32.113  17.184   8.355  0.00  0.00     0.193 C 
BRANCH  33  34
HETATM   34  O   UNK N   1      32.688  18.455   8.397  0.00  0.00    -0.387 OA
BRANCH  34  35
HETATM   35  C   UNK N   1      33.994  18.258   7.946  0.00  0.00     0.193 C 
BRANCH  35  36
HETATM   36  C   UNK N   1      34.059  17.052   7.027  0.00  0.00     0.193 C 
BRANCH  36  37
HETATM   37  O   UNK N   1      34.076  17.472   5.695  0.00  0.00    -0.387 OA
BRANCH  37  38
HETATM   38  C   UNK N   1      33.105  16.701   5.051  0.00  0.00     0.193 C 
BRANCH  38  39
HETATM   39  C   UNK N   1      33.113  17.007   3.562  0.00  0.00     0.193 C 
BRANCH  39  40
HETATM   40  O   UNK N   1      31.823  17.319   3.132  0.00  0.00    -0.387 OA
BRANCH  40  41
HETATM   41  C   UNK N   1      31.007  17.008   4.222  0.00  0.00     0.193 C 
BRANCH  41  42
HETATM   42  C   UNK N   1      29.589  16.759   3.745  0.00  0.00     0.190 C 
BRANCH  42  43
HETATM   43  O   UNK N   1      28.835  17.921   3.898  0.00  0.00    -0.399 OA
HETATM   44  H   UNK N   1      27.916  18.031   3.610  0.00  0.00     0.209 HD
ENDBRANCH  42  43
ENDBRANCH  41  42
ENDBRANCH  40  41
ENDBRANCH  39  40
ENDBRANCH  38  39
ENDBRANCH  37  38
ENDBRANCH  36  37
ENDBRANCH  35  36
ENDBRANCH  34  35
ENDBRANCH  33  34
ENDBRANCH  32  33
ENDBRANCH  31  32
ENDBRANCH  30  31
ENDBRANCH  29  30
ENDBRANCH  28  29
ENDBRANCH  27  28
ENDBRANCH  26  27
ENDBRANCH  25  26
ENDBRANCH  24  25
ENDBRANCH  23  24
ENDBRANCH   1  23
TORSDOF 36
ENDMDL
MODEL 3
REMARK VINA RESULT:      -4.8      1.469      4.608
REMARK WARNING: 32 MAX_TORS EXCEEDED!!!
REMARK  36 active torsions:
REMARK  status: ('A' for Active; 'I' for Inactive)
REMARK    1  A    between atoms: C_2  and  C_3 
REMARK    2  A    between atoms: C_3  and  C_4 
REMARK    3  A    between atoms: C_4  and  C_5 
REMARK    4  A    between atoms: C_5  and  C_6 
REMARK    5  A    between atoms: C_6  and  C_7 
REMARK    6  A    between atoms: C_7  and  C_8 
REMARK    7  A    between atoms: C_8  and  C_9 
REMARK    8  A    between atoms: C_9  and  C_10 
REMARK    9  A    between atoms: C_13  and  O_16 
REMARK   10  A    between atoms: O_16  and  C_17 
REMARK   11  A    between atoms: C_17  and  C_18 
REMARK   12  A    between atoms: C_18  and  O_19 
REMARK   13  A    between atoms: O_19  and  C_20 
REMARK   14  A    between atoms: C_20  and  C_21 
REMARK   15  A    between atoms: C_21  and  O_22 
REMARK   16  A    between atoms: O_22  and  C_23 
REMARK   17  A    between atoms: C_23  and  C_24 
REMARK   18  A    between atoms: C_24  and  O_25 
REMARK   19  A    between atoms: O_25  and  C_26 
REMARK   20  A    between atoms: C_26  and  C_27 
REMARK   21  A    between atoms: C_27  and  O_28 
REMARK   22  A    between atoms: O_28  and  C_29 
REMARK   23  A    between atoms: C_29  and  C_30 
REMARK   24  A    between atoms: C_30  and  O_31 
REMARK   25  A    between atoms: O_31  and  C_32 
REMARK   26  A    between atoms: C_32  and  C_33 
REMARK   27  A    between atoms: C_33  and  O_34 
REMARK   28  A    between atoms: O_34  and  C_35 
REMARK   29  A    between atoms: C_35  and  C_36 
REMARK   30  A    between atoms: C_36  and  O_37 
REMARK   31  A    between atoms: O_37  and  C_38 
REMARK   32  A    between atoms: C_38  and  C_39 
REMARK   33  A    between atoms: C_39  and  O_40 
REMARK   34  A    between atoms: O_40  and  C_41 
REMARK   35  A    between atoms: C_41  and  C_42 
REMARK   36  A    between atoms: C_42  and  O_43 
ROOT
HETATM    1  O   UNK N   1      24.432  19.842   4.173  0.00  0.00    -0.387 OA
ENDROOT
BRANCH   1   2
HETATM    2  C   UNK N   1      25.632  19.160   3.947  0.00  0.00     0.193 C 
BRANCH   2   3
HETATM    3  C   UNK N   1      26.705  20.147   3.511  0.00  0.00     0.193 C 
BRANCH   3   4
HETATM    4  O   UNK N   1      27.624  20.347   4.548  0.00  0.00    -0.387 OA
BRANCH   4   5
HETATM    5  C   UNK N   1      26.860  20.691   5.670  0.00  0.00     0.194 C 
BRANCH   5   6
HETATM    6  C   UNK N   1      27.477  20.140   6.955  0.00  0.00     0.201 C 
BRANCH   6   7
HETATM    7  O   UNK N   1      27.733  18.787   6.872  0.00  0.00    -0.349 OA
BRANCH   7   8
HETATM    8  C   UNK N   1      28.882  18.214   7.307  0.00  0.00     0.068 A 
HETATM    9  C   UNK N   1      29.564  18.695   8.439  0.00  0.00     0.037 A 
HETATM   10  C   UNK N   1      30.739  18.083   8.874  0.00  0.00     0.010 A 
HETATM   11  C   UNK N   1      31.237  16.971   8.195  0.00  0.00    -0.058 A 
HETATM   12  C   UNK N   1      30.557  16.480   7.071  0.00  0.00     0.010 A 
HETATM   13  C   UNK N   1      29.394  17.110   6.620  0.00  0.00     0.037 A 
BRANCH  11  14
HETATM   14  C   UNK N   1      32.449  16.276   8.714  0.00  0.00     0.038 C 
BRANCH  14  15
HETATM   15  C   UNK N   1      33.630  17.226   8.817  0.00  0.00     0.005 C 
BRANCH  15  16
HETATM   16  C   UNK N   1      34.293  17.363   7.454  0.00  0.00     0.000 C 
BRANCH  16  17
HETATM   17  C   UNK N   1      34.303  16.049   6.680  0.00  0.00     0.000 C 
BRANCH  17  18
HETATM   18  C   UNK N   1      33.956  16.277   5.218  0.00  0.00     0.000 C 
BRANCH  18  19
HETATM   19  C   UNK N   1      33.368  17.663   5.028  0.00  0.00     0.000 C 
BRANCH  19  20
HETATM   20  C   UNK N   1      32.165  17.585   4.105  0.00  0.00    -0.000 C 
BRANCH  20  21
HETATM   21  C   UNK N   1      32.205  16.299   3.309  0.00  0.00    -0.005 C 
HETATM   22  C   UNK N   1      30.806  15.724   3.226  0.00  0.00     0.005 C 
ENDBRANCH  20  21
ENDBRANCH  19  20
ENDBRANCH  18  19
ENDBRANCH  17  18
ENDBRANCH  16  17
ENDBRANCH  15  16
ENDBRANCH  14  15
ENDBRANCH  11  14
ENDBRANCH   7   8
ENDBRANCH   6   7
ENDBRANCH   5   6
ENDBRANCH   4   5
ENDBRANCH   3   4
ENDBRANCH   2   3
ENDBRANCH   1   2
BRANCH   1  23
HETATM   23  C   UNK N   1      24.116  20.476   2.962  0.00  0.00     0.193 C 
BRANCH  23  24
HETATM   24  C   UNK N   1      22.613  20.451   2.714  0.00  0.00     0.193 C 
BRANCH  24  25
HETATM   25  O   UNK N   1      21.967  19.827   3.784  0.00  0.00    -0.387 OA
BRANCH  25  26
HETATM   26  C   UNK N   1      20.609  20.063   3.582  0.00  0.00     0.193 C 
BRANCH  26  27
HETATM   27  C   UNK N   1      20.157  19.351   2.326  0.00  0.00     0.193 C 
BRANCH  27  28
HETATM   28  O   UNK N   1      19.436  18.208   2.675  0.00  0.00    -0.387 OA
BRANCH  28  29
HETATM   29  C   UNK N   1      20.124  17.166   2.058  0.00  0.00     0.193 C 
BRANCH  29  30
HETATM   30  C   UNK N   1      20.658  16.198   3.104  0.00  0.00     0.193 C 
BRANCH  30  31
HETATM   31  O   UNK N   1      21.961  16.560   3.456  0.00  0.00    -0.387 OA
BRANCH  31  32
HETATM   32  C   UNK N   1      22.046  16.318   4.829  0.00  0.00     0.193 C 
BRANCH  32  33
HETATM   33  C   UNK N   1      20.666  16.009   5.382  0.00  0.00     0.193 C 
BRANCH  33  34
HETATM   34  O   UNK N   1      20.385  16.848   6.462  0.00  0.00    -0.387 OA
BRANCH  34  35
HETATM   35  C   UNK N   1      21.119  16.308   7.519  0.00  0.00     0.193 C 
BRANCH  35  36
HETATM   36  C   UNK N   1      20.382  15.129   8.127  0.00  0.00     0.193 C 
BRANCH  36  37
HETATM   37  O   UNK N   1      21.274  14.080   8.357  0.00  0.00    -0.387 OA
BRANCH  37  38
HETATM   38  C   UNK N   1      21.419  14.014   9.745  0.00  0.00     0.193 C 
BRANCH  38  39
HETATM   39  C   UNK N   1      22.373  12.887  10.107  0.00  0.00     0.193 C 
BRANCH  39  40
HETATM   40  O   UNK N   1      22.514  12.016   9.028  0.00  0.00    -0.387 OA
BRANCH  40  41
HETATM   41  C   UNK N   1      23.888  11.779   8.947  0.00  0.00     0.193 C 
BRANCH  41  42
HETATM   42  C   UNK N   1      24.458  12.488   7.734  0.00  0.00     0.190 C 
BRANCH  42  43
HETATM   43  O   UNK N   1      23.436  12.748   6.823  0.00  0.00    -0.399 OA
HETATM   44  H   UNK N   1      22.651  13.288   7.003  0.00  0.00     0.209 HD
ENDBRANCH  42  43
ENDBRANCH  41  42
ENDBRANCH  40  41
ENDBRANCH  39  40
ENDBRANCH  38  39
ENDBRANCH  37  38
ENDBRANCH  36  37
ENDBRANCH  35  36
ENDBRANCH  34  35
ENDBRANCH  33  34
ENDBRANCH  32  33
ENDBRANCH  31  32
ENDBRANCH  30  31
ENDBRANCH  29  30
ENDBRANCH  28  29
ENDBRANCH  27  28
ENDBRANCH  26  27
ENDBRANCH  25  26
ENDBRANCH  24  25
ENDBRANCH  23  24
ENDBRANCH   1  23
TORSDOF 36
ENDMDL
MODEL 4
REMARK VINA RESULT:      -4.7      1.587      2.835
REMARK WARNING: 32 MAX_TORS EXCEEDED!!!
REMARK  36 active torsions:
REMARK  status: ('A' for Active; 'I' for Inactive)
REMARK    1  A    between atoms: C_2  and  C_3 
REMARK    2  A    between atoms: C_3  and  C_4 
REMARK    3  A    between atoms: C_4  and  C_5 
REMARK    4  A    between atoms: C_5  and  C_6 
REMARK    5  A    between atoms: C_6  and  C_7 
REMARK    6  A    between atoms: C_7  and  C_8 
REMARK    7  A    between atoms: C_8  and  C_9 
REMARK    8  A    between atoms: C_9  and  C_10 
REMARK    9  A    between atoms: C_13  and  O_16 
REMARK   10  A    between atoms: O_16  and  C_17 
REMARK   11  A    between atoms: C_17  and  C_18 
REMARK   12  A    between atoms: C_18  and  O_19 
REMARK   13  A    between atoms: O_19  and  C_20 
REMARK   14  A    between atoms: C_20  and  C_21 
REMARK   15  A    between atoms: C_21  and  O_22 
REMARK   16  A    between atoms: O_22  and  C_23 
REMARK   17  A    between atoms: C_23  and  C_24 
REMARK   18  A    between atoms: C_24  and  O_25 
REMARK   19  A    between atoms: O_25  and  C_26 
REMARK   20  A    between atoms: C_26  and  C_27 
REMARK   21  A    between atoms: C_27  and  O_28 
REMARK   22  A    between atoms: O_28  and  C_29 
REMARK   23  A    between atoms: C_29  and  C_30 
REMARK   24  A    between atoms: C_30  and  O_31 
REMARK   25  A    between atoms: O_31  and  C_32 
REMARK   26  A    between atoms: C_32  and  C_33 
REMARK   27  A    between atoms: C_33  and  O_34 
REMARK   28  A    between atoms: O_34  and  C_35 
REMARK   29  A    between atoms: C_35  and  C_36 
REMARK   30  A    between atoms: C_36  and  O_37 
REMARK   31  A    between atoms: O_37  and  C_38 
REMARK   32  A    between atoms: C_38  and  C_39 
REMARK   33  A    between atoms: C_39  and  O_40 
REMARK   34  A    between atoms: O_40  and  C_41 
REMARK   35  A    between atoms: C_41  and  C_42 
REMARK   36  A    between atoms: C_42  and  O_43 
ROOT
HETATM    1  O   UNK N   1      20.739  20.020   2.881  0.00  0.00    -0.387 OA
ENDROOT
BRANCH   1   2
HETATM    2  C   UNK N   1      21.955  19.548   3.383  0.00  0.00     0.193 C 
BRANCH   2   3
HETATM    3  C   UNK N   1      23.098  20.375   2.813  0.00  0.00     0.193 C 
BRANCH   3   4
HETATM    4  O   UNK N   1      24.269  20.147   3.547  0.00  0.00    -0.387 OA
BRANCH   4   5
HETATM    5  C   UNK N   1      25.318  20.227   2.622  0.00  0.00     0.194 C 
BRANCH   5   6
HETATM    6  C   UNK N   1      26.642  20.557   3.308  0.00  0.00     0.201 C 
BRANCH   6   7
HETATM    7  O   UNK N   1      26.529  20.565   4.683  0.00  0.00    -0.349 OA
BRANCH   7   8
HETATM    8  C   UNK N   1      27.297  19.805   5.501  0.00  0.00     0.068 A 
HETATM    9  C   UNK N   1      27.335  20.022   6.890  0.00  0.00     0.037 A 
HETATM   10  C   UNK N   1      28.126  19.222   7.714  0.00  0.00     0.010 A 
HETATM   11  C   UNK N   1      28.873  18.182   7.163  0.00  0.00    -0.058 A 
HETATM   12  C   UNK N   1      28.833  17.952   5.780  0.00  0.00     0.010 A 
HETATM   13  C   UNK N   1      28.062  18.772   4.953  0.00  0.00     0.037 A 
BRANCH  11  14
HETATM   14  C   UNK N   1      29.652  17.283   8.061  0.00  0.00     0.038 C 
BRANCH  14  15
HETATM   15  C   UNK N   1      30.827  18.011   8.690  0.00  0.00     0.005 C 
BRANCH  15  16
HETATM   16  C   UNK N   1      32.118  17.276   8.360  0.00  0.00     0.000 C 
BRANCH  16  17
HETATM   17  C   UNK N   1      33.261  18.233   8.033  0.00  0.00     0.000 C 
BRANCH  17  18
HETATM   18  C   UNK N   1      34.212  17.617   7.020  0.00  0.00     0.000 C 
BRANCH  18  19
HETATM   19  C   UNK N   1      33.442  16.760   6.031  0.00  0.00     0.000 C 
BRANCH  19  20
HETATM   20  C   UNK N   1      32.886  17.636   4.923  0.00  0.00    -0.000 C 
BRANCH  20  21
HETATM   21  C   UNK N   1      32.017  16.813   3.998  0.00  0.00    -0.005 C 
HETATM   22  C   UNK N   1      31.358  15.704   4.792  0.00  0.00     0.005 C 
ENDBRANCH  20  21
ENDBRANCH  19  20
ENDBRANCH  18  19
ENDBRANCH  17  18
ENDBRANCH  16  17
ENDBRANCH  15  16
ENDBRANCH  14  15
ENDBRANCH  11  14
ENDBRANCH   7   8
ENDBRANCH   6   7
ENDBRANCH   5   6
ENDBRANCH   4   5
ENDBRANCH   3   4
ENDBRANCH   2   3
ENDBRANCH   1   2
BRANCH   1  23
HETATM   23  C   UNK N   1      19.875  18.914   2.864  0.00  0.00     0.193 C 
BRANCH  23  24
HETATM   24  C   UNK N   1      20.477  17.745   3.634  0.00  0.00     0.193 C 
BRANCH  24  25
HETATM   25  O   UNK N   1      20.086  16.540   3.046  0.00  0.00    -0.387 OA
BRANCH  25  26
HETATM   26  C   UNK N   1      20.070  15.612   4.085  0.00  0.00     0.193 C 
BRANCH  26  27
HETATM   27  C   UNK N   1      18.976  15.973   5.065  0.00  0.00     0.193 C 
BRANCH  27  28
HETATM   28  O   UNK N   1      19.206  15.324   6.278  0.00  0.00    -0.387 OA
BRANCH  28  29
HETATM   29  C   UNK N   1      19.808  16.294   7.076  0.00  0.00     0.193 C 
BRANCH  29  30
HETATM   30  C   UNK N   1      19.174  16.301   8.460  0.00  0.00     0.193 C 
BRANCH  30  31
HETATM   31  O   UNK N   1      19.504  15.122   9.132  0.00  0.00    -0.387 OA
BRANCH  31  32
HETATM   32  C   UNK N   1      20.899  15.123   9.202  0.00  0.00     0.193 C 
BRANCH  32  33
HETATM   33  C   UNK N   1      21.400  13.717   9.485  0.00  0.00     0.193 C 
BRANCH  33  34
HETATM   34  O   UNK N   1      20.702  12.795   8.704  0.00  0.00    -0.387 OA
BRANCH  34  35
HETATM   35  C   UNK N   1      21.358  12.818   7.473  0.00  0.00     0.193 C 
BRANCH  35  36
HETATM   36  C   UNK N   1      22.660  12.042   7.553  0.00  0.00     0.193 C 
BRANCH  36  37
HETATM   37  O   UNK N   1      23.712  12.833   7.087  0.00  0.00    -0.387 OA
BRANCH  37  38
HETATM   38  C   UNK N   1      23.660  12.738   5.694  0.00  0.00     0.193 C 
BRANCH  38  39
HETATM   39  C   UNK N   1      23.746  14.126   5.082  0.00  0.00     0.193 C 
BRANCH  39  40
HETATM   40  O   UNK N   1      24.905  14.768   5.517  0.00  0.00    -0.387 OA
BRANCH  40  41
HETATM   41  C   UNK N   1      25.602  15.064   4.344  0.00  0.00     0.193 C 
BRANCH  41  42
HETATM   42  C   UNK N   1      27.050  14.637   4.488  0.00  0.00     0.190 C 
BRANCH  42  43
HETATM   43  O   UNK N   1      27.464  14.830   5.805  0.00  0.00    -0.399 OA
HETATM   44  H   UNK N   1      27.236  14.255   6.552  0.00  0.00     0.209 HD
ENDBRANCH  42  43
ENDBRANCH  41  42
ENDBRANCH  40  41
ENDBRANCH  39  40
ENDBRANCH  38  39
ENDBRANCH  37  38
ENDBRANCH  36  37
ENDBRANCH  35  36
ENDBRANCH  34  35
ENDBRANCH  33  34
ENDBRANCH  32  33
ENDBRANCH  31  32
ENDBRANCH  30  31
ENDBRANCH  29  30
ENDBRANCH  28  29
ENDBRANCH  27  28
ENDBRANCH  26  27
ENDBRANCH  25  26
ENDBRANCH  24  25
ENDBRANCH  23  24
ENDBRANCH   1  23
TORSDOF 36
ENDMDL
MODEL 5
REMARK VINA RESULT:      -4.7      3.894     10.100
REMARK WARNING: 32 MAX_TORS EXCEEDED!!!
REMARK  36 active torsions:
REMARK  status: ('A' for Active; 'I' for Inactive)
REMARK    1  A    between atoms: C_2  and  C_3 
REMARK    2  A    between atoms: C_3  and  C_4 
REMARK    3  A    between atoms: C_4  and  C_5 
REMARK    4  A    between atoms: C_5  and  C_6 
REMARK    5  A    between atoms: C_6  and  C_7 
REMARK    6  A    between atoms: C_7  and  C_8 
REMARK    7  A    between atoms: C_8  and  C_9 
REMARK    8  A    between atoms: C_9  and  C_10 
REMARK    9  A    between atoms: C_13  and  O_16 
REMARK   10  A    between atoms: O_16  and  C_17 
REMARK   11  A    between atoms: C_17  and  C_18 
REMARK   12  A    between atoms: C_18  and  O_19 
REMARK   13  A    between atoms: O_19  and  C_20 
REMARK   14  A    between atoms: C_20  and  C_21 
REMARK   15  A    between atoms: C_21  and  O_22 
REMARK   16  A    between atoms: O_22  and  C_23 
REMARK   17  A    between atoms: C_23  and  C_24 
REMARK   18  A    between atoms: C_24  and  O_25 
REMARK   19  A    between atoms: O_25  and  C_26 
REMARK   20  A    between atoms: C_26  and  C_27 
REMARK   21  A    between atoms: C_27  and  O_28 
REMARK   22  A    between atoms: O_28  and  C_29 
REMARK   23  A    between atoms: C_29  and  C_30 
REMARK   24  A    between atoms: C_30  and  O_31 
REMARK   25  A    between atoms: O_31  and  C_32 
REMARK   26  A    between atoms: C_32  and  C_33 
REMARK   27  A    between atoms: C_33  and  O_34 
REMARK   28  A    between atoms: O_34  and  C_35 
REMARK   29  A    between atoms: C_35  and  C_36 
REMARK   30  A    between atoms: C_36  and  O_37 
REMARK   31  A    between atoms: O_37  and  C_38 
REMARK   32  A    between atoms: C_38  and  C_39 
REMARK   33  A    between atoms: C_39  and  O_40 
REMARK   34  A    between atoms: O_40  and  C_41 
REMARK   35  A    between atoms: C_41  and  C_42 
REMARK   36  A    between atoms: C_42  and  O_43 
ROOT
HETATM    1  O   UNK N   1      21.881  20.627   3.239  0.00  0.00    -0.387 OA
ENDROOT
BRANCH   1   2
HETATM    2  C   UNK N   1      20.546  20.250   3.418  0.00  0.00     0.193 C 
BRANCH   2   3
HETATM    3  C   UNK N   1      20.151  19.247   2.344  0.00  0.00     0.193 C 
BRANCH   3   4
HETATM    4  O   UNK N   1      19.549  18.128   2.931  0.00  0.00    -0.387 OA
BRANCH   4   5
HETATM    5  C   UNK N   1      20.026  17.022   2.216  0.00  0.00     0.194 C 
BRANCH   5   6
HETATM    6  C   UNK N   1      19.953  15.744   3.051  0.00  0.00     0.201 C 
BRANCH   6   7
HETATM    7  O   UNK N   1      21.102  15.537   3.786  0.00  0.00    -0.349 OA
BRANCH   7   8
HETATM    8  C   UNK N   1      21.107  15.349   5.129  0.00  0.00     0.068 A 
HETATM    9  C   UNK N   1      21.241  16.425   6.024  0.00  0.00     0.037 A 
HETATM   10  C   UNK N   1      21.235  16.209   7.402  0.00  0.00     0.010 A 
HETATM   11  C   UNK N   1      21.074  14.918   7.902  0.00  0.00    -0.058 A 
HETATM   12  C   UNK N   1      20.929  13.840   7.016  0.00  0.00     0.010 A 
HETATM   13  C   UNK N   1      20.964  14.055   5.636  0.00  0.00     0.037 A 
BRANCH  11  14
HETATM   14  C   UNK N   1      20.988  14.707   9.375  0.00  0.00     0.038 C 
BRANCH  14  15
HETATM   15  C   UNK N   1      20.972  13.229   9.723  0.00  0.00     0.005 C 
BRANCH  15  16
HETATM   16  C   UNK N   1      22.189  12.892  10.573  0.00  0.00     0.000 C 
BRANCH  16  17
HETATM   17  C   UNK N   1      23.485  12.937   9.770  0.00  0.00     0.000 C 
BRANCH  17  18
HETATM   18  C   UNK N   1      23.497  11.862   8.696  0.00  0.00     0.000 C 
BRANCH  18  19
HETATM   19  C   UNK N   1      24.303  12.326   7.496  0.00  0.00     0.000 C 
BRANCH  19  20
HETATM   20  C   UNK N   1      25.034  13.611   7.840  0.00  0.00    -0.000 C 
BRANCH  20  21
HETATM   21  C   UNK N   1      24.555  14.735   6.948  0.00  0.00    -0.005 C 
HETATM   22  C   UNK N   1      25.527  14.906   5.799  0.00  0.00     0.005 C 
ENDBRANCH  20  21
ENDBRANCH  19  20
ENDBRANCH  18  19
ENDBRANCH  17  18
ENDBRANCH  16  17
ENDBRANCH  15  16
ENDBRANCH  14  15
ENDBRANCH  11  14
ENDBRANCH   7   8
ENDBRANCH   6   7
ENDBRANCH   5   6
ENDBRANCH   4   5
ENDBRANCH   3   4
ENDBRANCH   2   3
ENDBRANCH   1   2
BRANCH   1  23
HETATM   23  C   UNK N   1      22.639  19.465   3.442  0.00  0.00     0.193 C 
BRANCH  23  24
HETATM   24  C   UNK N   1      24.103  19.810   3.688  0.00  0.00     0.193 C 
BRANCH  24  25
HETATM   25  O   UNK N   1      24.586  20.599   2.641  0.00  0.00    -0.387 OA
BRANCH  25  26
HETATM   26  C   UNK N   1      25.968  20.634   2.814  0.00  0.00     0.193 C 
BRANCH  26  27
HETATM   27  C   UNK N   1      26.332  19.928   4.102  0.00  0.00     0.193 C 
BRANCH  27  28
HETATM   28  O   UNK N   1      27.583  19.328   3.964  0.00  0.00    -0.387 OA
BRANCH  28  29
HETATM   29  C   UNK N   1      27.319  17.962   4.027  0.00  0.00     0.193 C 
BRANCH  29  30
HETATM   30  C   UNK N   1      28.598  17.169   3.800  0.00  0.00     0.193 C 
BRANCH  30  31
HETATM   31  O   UNK N   1      29.643  17.750   4.523  0.00  0.00    -0.387 OA
BRANCH  31  32
HETATM   32  C   UNK N   1      30.576  16.725   4.698  0.00  0.00     0.193 C 
BRANCH  32  33
HETATM   33  C   UNK N   1      31.012  16.670   6.152  0.00  0.00     0.193 C 
BRANCH  33  34
HETATM   34  O   UNK N   1      32.064  17.560   6.369  0.00  0.00    -0.387 OA
BRANCH  34  35
HETATM   35  C   UNK N   1      32.371  17.409   7.722  0.00  0.00     0.193 C 
BRANCH  35  36
HETATM   36  C   UNK N   1      33.668  18.124   8.053  0.00  0.00     0.193 C 
BRANCH  36  37
HETATM   37  O   UNK N   1      34.729  17.218   8.023  0.00  0.00    -0.387 OA
BRANCH  37  38
HETATM   38  C   UNK N   1      34.509  16.353   9.098  0.00  0.00     0.193 C 
BRANCH  38  39
HETATM   39  C   UNK N   1      35.243  16.865  10.327  0.00  0.00     0.193 C 
BRANCH  39  40
HETATM   40  O   UNK N   1      36.178  15.922  10.752  0.00  0.00    -0.387 OA
BRANCH  40  41
HETATM   41  C   UNK N   1      35.470  15.096  11.627  0.00  0.00     0.193 C 
BRANCH  41  42
HETATM   42  C   UNK N   1      36.411  14.080  12.245  0.00  0.00     0.190 C 
BRANCH  42  43
HETATM   43  O   UNK N   1      37.574  13.997  11.483  0.00  0.00    -0.399 OA
HETATM   44  H   UNK N   1      38.155  14.743  11.267  0.00  0.00     0.209 HD
ENDBRANCH  42  43
ENDBRANCH  41  42
ENDBRANCH  40  41
ENDBRANCH  39  40
ENDBRANCH  38  39
ENDBRANCH  37  38
ENDBRANCH  36  37
ENDBRANCH  35  36
ENDBRANCH  34  35
ENDBRANCH  33  34
ENDBRANCH  32  33
ENDBRANCH  31  32
ENDBRANCH  30  31
ENDBRANCH  29  30
ENDBRANCH  28  29
ENDBRANCH  27  28
ENDBRANCH  26  27
ENDBRANCH  25  26
ENDBRANCH  24  25
ENDBRANCH  23  24
ENDBRANCH   1  23
TORSDOF 36
ENDMDL
MODEL 6
REMARK VINA RESULT:      -4.7      1.756      3.702
REMARK WARNING: 32 MAX_TORS EXCEEDED!!!
REMARK  36 active torsions:
REMARK  status: ('A' for Active; 'I' for Inactive)
REMARK    1  A    between atoms: C_2  and  C_3 
REMARK    2  A    between atoms: C_3  and  C_4 
REMARK    3  A    between atoms: C_4  and  C_5 
REMARK    4  A    between atoms: C_5  and  C_6 
REMARK    5  A    between atoms: C_6  and  C_7 
REMARK    6  A    between atoms: C_7  and  C_8 
REMARK    7  A    between atoms: C_8  and  C_9 
REMARK    8  A    between atoms: C_9  and  C_10 
REMARK    9  A    between atoms: C_13  and  O_16 
REMARK   10  A    between atoms: O_16  and  C_17 
REMARK   11  A    between atoms: C_17  and  C_18 
REMARK   12  A    between atoms: C_18  and  O_19 
REMARK   13  A    between atoms: O_19  and  C_20 
REMARK   14  A    between atoms: C_20  and  C_21 
REMARK   15  A    between atoms: C_21  and  O_22 
REMARK   16  A    between atoms: O_22  and  C_23 
REMARK   17  A    between atoms: C_23  and  C_24 
REMARK   18  A    between atoms: C_24  and  O_25 
REMARK   19  A    between atoms: O_25  and  C_26 
REMARK   20  A    between atoms: C_26  and  C_27 
REMARK   21  A    between atoms: C_27  and  O_28 
REMARK   22  A    between atoms: O_28  and  C_29 
REMARK   23  A    between atoms: C_29  and  C_30 
REMARK   24  A    between atoms: C_30  and  O_31 
REMARK   25  A    between atoms: O_31  and  C_32 
REMARK   26  A    between atoms: C_32  and  C_33 
REMARK   27  A    between atoms: C_33  and  O_34 
REMARK   28  A    between atoms: O_34  and  C_35 
REMARK   29  A    between atoms: C_35  and  C_36 
REMARK   30  A    between atoms: C_36  and  O_37 
REMARK   31  A    between atoms: O_37  and  C_38 
REMARK   32  A    between atoms: C_38  and  C_39 
REMARK   33  A    between atoms: C_39  and  O_40 
REMARK   34  A    between atoms: O_40  and  C_41 
REMARK   35  A    between atoms: C_41  and  C_42 
REMARK   36  A    between atoms: C_42  and  O_43 
ROOT
HETATM    1  O   UNK N   1      21.357  16.179   6.262  0.00  0.00    -0.387 OA
ENDROOT
BRANCH   1   2
HETATM    2  C   UNK N   1      20.809  17.119   5.383  0.00  0.00     0.193 C 
BRANCH   2   3
HETATM    3  C   UNK N   1      21.757  18.301   5.244  0.00  0.00     0.193 C 
BRANCH   3   4
HETATM    4  O   UNK N   1      22.422  18.242   4.013  0.00  0.00    -0.387 OA
BRANCH   4   5
HETATM    5  C   UNK N   1      22.221  19.491   3.413  0.00  0.00     0.194 C 
BRANCH   5   6
HETATM    6  C   UNK N   1      23.547  20.146   3.031  0.00  0.00     0.201 C 
BRANCH   6   7
HETATM    7  O   UNK N   1      24.335  20.406   4.133  0.00  0.00    -0.349 OA
BRANCH   7   8
HETATM    8  C   UNK N   1      25.558  19.853   4.326  0.00  0.00     0.068 A 
HETATM    9  C   UNK N   1      25.903  18.611   3.764  0.00  0.00     0.037 A 
HETATM   10  C   UNK N   1      27.171  18.066   3.968  0.00  0.00     0.010 A 
HETATM   11  C   UNK N   1      28.115  18.764   4.719  0.00  0.00    -0.058 A 
HETATM   12  C   UNK N   1      27.782  20.008   5.274  0.00  0.00     0.010 A 
HETATM   13  C   UNK N   1      26.503  20.540   5.092  0.00  0.00     0.037 A 
BRANCH  11  14
HETATM   14  C   UNK N   1      29.492  18.211   4.865  0.00  0.00     0.038 C 
BRANCH  14  15
HETATM   15  C   UNK N   1      29.468  16.700   5.014  0.00  0.00     0.005 C 
BRANCH  15  16
HETATM   16  C   UNK N   1      30.236  16.299   6.265  0.00  0.00     0.000 C 
BRANCH  16  17
HETATM   17  C   UNK N   1      31.572  17.026   6.381  0.00  0.00     0.000 C 
BRANCH  17  18
HETATM   18  C   UNK N   1      31.961  17.219   7.838  0.00  0.00     0.000 C 
BRANCH  18  19
HETATM   19  C   UNK N   1      30.728  17.159   8.722  0.00  0.00     0.000 C 
BRANCH  19  20
HETATM   20  C   UNK N   1      30.271  18.567   9.056  0.00  0.00    -0.000 C 
BRANCH  20  21
HETATM   21  C   UNK N   1      28.852  18.780   8.575  0.00  0.00    -0.005 C 
HETATM   22  C   UNK N   1      27.984  17.644   9.074  0.00  0.00     0.005 C 
ENDBRANCH  20  21
ENDBRANCH  19  20
ENDBRANCH  18  19
ENDBRANCH  17  18
ENDBRANCH  16  17
ENDBRANCH  15  16
ENDBRANCH  14  15
ENDBRANCH  11  14
ENDBRANCH   7   8
ENDBRANCH   6   7
ENDBRANCH   5   6
ENDBRANCH   4   5
ENDBRANCH   3   4
ENDBRANCH   2   3
ENDBRANCH   1   2
BRANCH   1  23
HETATM   23  C   UNK N   1      20.285  15.700   7.030  0.00  0.00     0.193 C 
BRANCH  23  24
HETATM   24  C   UNK N   1      20.356  16.240   8.453  0.00  0.00     0.193 C 
BRANCH  24  25
HETATM   25  O   UNK N   1      21.107  15.373   9.251  0.00  0.00    -0.387 OA
BRANCH  25  26
HETATM   26  C   UNK N   1      20.531  14.117   9.074  0.00  0.00     0.193 C 
BRANCH  26  27
HETATM   27  C   UNK N   1      21.051  13.172  10.135  0.00  0.00     0.193 C 
BRANCH  27  28
HETATM   28  O   UNK N   1      22.430  13.334  10.264  0.00  0.00    -0.387 OA
BRANCH  28  29
HETATM   29  C   UNK N   1      22.931  12.034  10.254  0.00  0.00     0.193 C 
BRANCH  29  30
HETATM   30  C   UNK N   1      23.705  11.780   8.968  0.00  0.00     0.193 C 
BRANCH  30  31
HETATM   31  O   UNK N   1      24.626  12.811   8.766  0.00  0.00    -0.387 OA
BRANCH  31  32
HETATM   32  C   UNK N   1      24.718  12.948   7.378  0.00  0.00     0.193 C 
BRANCH  32  33
HETATM   33  C   UNK N   1      25.288  14.313   7.034  0.00  0.00     0.193 C 
BRANCH  33  34
HETATM   34  O   UNK N   1      25.908  14.270   5.784  0.00  0.00    -0.387 OA
BRANCH  34  35
HETATM   35  C   UNK N   1      25.158  15.146   4.997  0.00  0.00     0.193 C 
BRANCH  35  36
HETATM   36  C   UNK N   1      24.470  14.391   3.875  0.00  0.00     0.193 C 
BRANCH  36  37
HETATM   37  O   UNK N   1      23.085  14.466   4.034  0.00  0.00    -0.387 OA
BRANCH  37  38
HETATM   38  C   UNK N   1      22.547  13.874   2.889  0.00  0.00     0.193 C 
BRANCH  38  39
HETATM   39  C   UNK N   1      23.056  14.594   1.651  0.00  0.00     0.193 C 
BRANCH  39  40
HETATM   40  O   UNK N   1      22.029  14.720   0.716  0.00  0.00    -0.387 OA
BRANCH  40  41
HETATM   41  C   UNK N   1      21.015  15.393   1.400  0.00  0.00     0.193 C 
BRANCH  41  42
HETATM   42  C   UNK N   1      19.663  14.956   0.870  0.00  0.00     0.190 C 
BRANCH  42  43
HETATM   43  O   UNK N   1      18.842  14.588   1.934  0.00  0.00    -0.399 OA
HETATM   44  H   UNK N   1      19.004  14.805   2.865  0.00  0.00     0.209 HD
ENDBRANCH  42  43
ENDBRANCH  41  42
ENDBRANCH  40  41
ENDBRANCH  39  40
ENDBRANCH  38  39
ENDBRANCH  37  38
ENDBRANCH  36  37
ENDBRANCH  35  36
ENDBRANCH  34  35
ENDBRANCH  33  34
ENDBRANCH  32  33
ENDBRANCH  31  32
ENDBRANCH  30  31
ENDBRANCH  29  30
ENDBRANCH  28  29
ENDBRANCH  27  28
ENDBRANCH  26  27
ENDBRANCH  25  26
ENDBRANCH  24  25
ENDBRANCH  23  24
ENDBRANCH   1  23
TORSDOF 36
ENDMDL
MODEL 7
REMARK VINA RESULT:      -4.6      2.086      5.037
REMARK WARNING: 32 MAX_TORS EXCEEDED!!!
REMARK  36 active torsions:
REMARK  status: ('A' for Active; 'I' for Inactive)
REMARK    1  A    between atoms: C_2  and  C_3 
REMARK    2  A    between atoms: C_3  and  C_4 
REMARK    3  A    between atoms: C_4  and  C_5 
REMARK    4  A    between atoms: C_5  and  C_6 
REMARK    5  A    between atoms: C_6  and  C_7 
REMARK    6  A    between atoms: C_7  and  C_8 
REMARK    7  A    between atoms: C_8  and  C_9 
REMARK    8  A    between atoms: C_9  and  C_10 
REMARK    9  A    between atoms: C_13  and  O_16 
REMARK   10  A    between atoms: O_16  and  C_17 
REMARK   11  A    between atoms: C_17  and  C_18 
REMARK   12  A    between atoms: C_18  and  O_19 
REMARK   13  A    between atoms: O_19  and  C_20 
REMARK   14  A    between atoms: C_20  and  C_21 
REMARK   15  A    between atoms: C_21  and  O_22 
REMARK   16  A    between atoms: O_22  and  C_23 
REMARK   17  A    between atoms: C_23  and  C_24 
REMARK   18  A    between atoms: C_24  and  O_25 
REMARK   19  A    between atoms: O_25  and  C_26 
REMARK   20  A    between atoms: C_26  and  C_27 
REMARK   21  A    between atoms: C_27  and  O_28 
REMARK   22  A    between atoms: O_28  and  C_29 
REMARK   23  A    between atoms: C_29  and  C_30 
REMARK   24  A    between atoms: C_30  and  O_31 
REMARK   25  A    between atoms: O_31  and  C_32 
REMARK   26  A    between atoms: C_32  and  C_33 
REMARK   27  A    between atoms: C_33  and  O_34 
REMARK   28  A    between atoms: O_34  and  C_35 
REMARK   29  A    between atoms: C_35  and  C_36 
REMARK   30  A    between atoms: C_36  and  O_37 
REMARK   31  A    between atoms: O_37  and  C_38 
REMARK   32  A    between atoms: C_38  and  C_39 
REMARK   33  A    between atoms: C_39  and  O_40 
REMARK   34  A    between atoms: O_40  and  C_41 
REMARK   35  A    between atoms: C_41  and  C_42 
REMARK   36  A    between atoms: C_42  and  O_43 
ROOT
HETATM    1  O   UNK N   1      19.615  18.392   2.862  0.00  0.00    -0.387 OA
ENDROOT
BRANCH   1   2
HETATM    2  C   UNK N   1      20.705  19.049   2.284  0.00  0.00     0.193 C 
BRANCH   2   3
HETATM    3  C   UNK N   1      20.558  20.551   2.478  0.00  0.00     0.193 C 
BRANCH   3   4
HETATM    4  O   UNK N   1      21.733  21.083   3.021  0.00  0.00    -0.387 OA
BRANCH   4   5
HETATM    5  C   UNK N   1      22.666  20.038   3.004  0.00  0.00     0.194 C 
BRANCH   5   6
HETATM    6  C   UNK N   1      24.097  20.568   2.947  0.00  0.00     0.201 C 
BRANCH   6   7
HETATM    7  O   UNK N   1      24.673  20.651   4.198  0.00  0.00    -0.349 OA
BRANCH   7   8
HETATM    8  C   UNK N   1      25.784  19.964   4.557  0.00  0.00     0.068 A 
HETATM    9  C   UNK N   1      27.046  20.581   4.620  0.00  0.00     0.037 A 
HETATM   10  C   UNK N   1      28.175  19.856   5.003  0.00  0.00     0.010 A 
HETATM   11  C   UNK N   1      28.053  18.510   5.346  0.00  0.00    -0.058 A 
HETATM   12  C   UNK N   1      26.796  17.890   5.295  0.00  0.00     0.010 A 
HETATM   13  C   UNK N   1      25.671  18.610   4.886  0.00  0.00     0.037 A 
BRANCH  11  14
HETATM   14  C   UNK N   1      29.250  17.765   5.829  0.00  0.00     0.038 C 
BRANCH  14  15
HETATM   15  C   UNK N   1      29.313  16.371   5.231  0.00  0.00     0.005 C 
BRANCH  15  16
HETATM   16  C   UNK N   1      30.179  16.392   3.979  0.00  0.00     0.000 C 
BRANCH  16  17
HETATM   17  C   UNK N   1      31.651  16.144   4.290  0.00  0.00     0.000 C 
BRANCH  17  18
HETATM   18  C   UNK N   1      32.467  17.413   4.101  0.00  0.00     0.000 C 
BRANCH  18  19
HETATM   19  C   UNK N   1      33.431  17.595   5.259  0.00  0.00     0.000 C 
BRANCH  19  20
HETATM   20  C   UNK N   1      32.843  16.978   6.515  0.00  0.00    -0.000 C 
BRANCH  20  21
HETATM   21  C   UNK N   1      32.960  17.944   7.673  0.00  0.00    -0.005 C 
HETATM   22  C   UNK N   1      34.330  17.798   8.303  0.00  0.00     0.005 C 
ENDBRANCH  20  21
ENDBRANCH  19  20
ENDBRANCH  18  19
ENDBRANCH  17  18
ENDBRANCH  16  17
ENDBRANCH  15  16
ENDBRANCH  14  15
ENDBRANCH  11  14
ENDBRANCH   7   8
ENDBRANCH   6   7
ENDBRANCH   5   6
ENDBRANCH   4   5
ENDBRANCH   3   4
ENDBRANCH   2   3
ENDBRANCH   1   2
BRANCH   1  23
HETATM   23  C   UNK N   1      19.825  17.024   2.634  0.00  0.00     0.193 C 
BRANCH  23  24
HETATM   24  C   UNK N   1      20.497  16.372   3.837  0.00  0.00     0.193 C 
BRANCH  24  25
HETATM   25  O   UNK N   1      20.931  15.088   3.498  0.00  0.00    -0.387 OA
BRANCH  25  26
HETATM   26  C   UNK N   1      21.293  15.165   2.155  0.00  0.00     0.193 C 
BRANCH  26  27
HETATM   27  C   UNK N   1      22.320  14.096   1.850  0.00  0.00     0.193 C 
BRANCH  27  28
HETATM   28  O   UNK N   1      22.923  14.370   0.623  0.00  0.00    -0.387 OA
BRANCH  28  29
HETATM   29  C   UNK N   1      24.277  14.495   0.925  0.00  0.00     0.193 C 
BRANCH  29  30
HETATM   30  C   UNK N   1      24.650  13.553   2.061  0.00  0.00     0.193 C 
BRANCH  30  31
HETATM   31  O   UNK N   1      25.810  14.014   2.689  0.00  0.00    -0.387 OA
BRANCH  31  32
HETATM   32  C   UNK N   1      25.751  13.494   3.984  0.00  0.00     0.193 C 
BRANCH  32  33
HETATM   33  C   UNK N   1      25.239  14.556   4.941  0.00  0.00     0.193 C 
BRANCH  33  34
HETATM   34  O   UNK N   1      24.034  14.143   5.512  0.00  0.00    -0.387 OA
BRANCH  34  35
HETATM   35  C   UNK N   1      23.403  15.331   5.884  0.00  0.00     0.193 C 
BRANCH  35  36
HETATM   36  C   UNK N   1      22.399  15.072   6.992  0.00  0.00     0.193 C 
BRANCH  36  37
HETATM   37  O   UNK N   1      22.881  14.077   7.844  0.00  0.00    -0.387 OA
BRANCH  37  38
HETATM   38  C   UNK N   1      21.749  13.392   8.294  0.00  0.00     0.193 C 
BRANCH  38  39
HETATM   39  C   UNK N   1      22.153  12.361   9.335  0.00  0.00     0.193 C 
BRANCH  39  40
HETATM   40  O   UNK N   1      22.145  12.938  10.605  0.00  0.00    -0.387 OA
BRANCH  40  41
HETATM   41  C   UNK N   1      23.090  12.207  11.327  0.00  0.00     0.193 C 
BRANCH  41  42
HETATM   42  C   UNK N   1      24.388  12.138  10.545  0.00  0.00     0.190 C 
BRANCH  42  43
HETATM   43  O   UNK N   1      25.373  12.864  11.211  0.00  0.00    -0.399 OA
HETATM   44  H   UNK N   1      25.218  13.666  11.735  0.00  0.00     0.209 HD
ENDBRANCH  42  43
ENDBRANCH  41  42
ENDBRANCH  40  41
ENDBRANCH  39  40
ENDBRANCH  38  39
ENDBRANCH  37  38
ENDBRANCH  36  37
ENDBRANCH  35  36
ENDBRANCH  34  35
ENDBRANCH  33  34
ENDBRANCH  32  33
ENDBRANCH  31  32
ENDBRANCH  30  31
ENDBRANCH  29  30
ENDBRANCH  28  29
ENDBRANCH  27  28
ENDBRANCH  26  27
ENDBRANCH  25  26
ENDBRANCH  24  25
ENDBRANCH  23  24
ENDBRANCH   1  23
TORSDOF 36
ENDMDL
MODEL 8
REMARK VINA RESULT:      -4.6      1.230      2.526
REMARK WARNING: 32 MAX_TORS EXCEEDED!!!
REMARK  36 active torsions:
REMARK  status: ('A' for Active; 'I' for Inactive)
REMARK    1  A    between atoms: C_2  and  C_3 
REMARK    2  A    between atoms: C_3  and  C_4 
REMARK    3  A    between atoms: C_4  and  C_5 
REMARK    4  A    between atoms: C_5  and  C_6 
REMARK    5  A    between atoms: C_6  and  C_7 
REMARK    6  A    between atoms: C_7  and  C_8 
REMARK    7  A    between atoms: C_8  and  C_9 
REMARK    8  A    between atoms: C_9  and  C_10 
REMARK    9  A    between atoms: C_13  and  O_16 
REMARK   10  A    between atoms: O_16  and  C_17 
REMARK   11  A    between atoms: C_17  and  C_18 
REMARK   12  A    between atoms: C_18  and  O_19 
REMARK   13  A    between atoms: O_19  and  C_20 
REMARK   14  A    between atoms: C_20  and  C_21 
REMARK   15  A    between atoms: C_21  and  O_22 
REMARK   16  A    between atoms: O_22  and  C_23 
REMARK   17  A    between atoms: C_23  and  C_24 
REMARK   18  A    between atoms: C_24  and  O_25 
REMARK   19  A    between atoms: O_25  and  C_26 
REMARK   20  A    between atoms: C_26  and  C_27 
REMARK   21  A    between atoms: C_27  and  O_28 
REMARK   22  A    between atoms: O_28  and  C_29 
REMARK   23  A    between atoms: C_29  and  C_30 
REMARK   24  A    between atoms: C_30  and  O_31 
REMARK   25  A    between atoms: O_31  and  C_32 
REMARK   26  A    between atoms: C_32  and  C_33 
REMARK   27  A    between atoms: C_33  and  O_34 
REMARK   28  A    between atoms: O_34  and  C_35 
REMARK   29  A    between atoms: C_35  and  C_36 
REMARK   30  A    between atoms: C_36  and  O_37 
REMARK   31  A    between atoms: O_37  and  C_38 
REMARK   32  A    between atoms: C_38  and  C_39 
REMARK   33  A    between atoms: C_39  and  O_40 
REMARK   34  A    between atoms: O_40  and  C_41 
REMARK   35  A    between atoms: C_41  and  C_42 
REMARK   36  A    between atoms: C_42  and  O_43 
ROOT
HETATM    1  O   UNK N   1      21.792  18.723   3.229  0.00  0.00    -0.387 OA
ENDROOT
BRANCH   1   2
HETATM    2  C   UNK N   1      22.116  19.993   2.740  0.00  0.00     0.193 C 
BRANCH   2   3
HETATM    3  C   UNK N   1      23.452  20.437   3.319  0.00  0.00     0.193 C 
BRANCH   3   4
HETATM    4  O   UNK N   1      24.323  20.806   2.287  0.00  0.00    -0.387 OA
BRANCH   4   5
HETATM    5  C   UNK N   1      25.574  20.284   2.641  0.00  0.00     0.194 C 
BRANCH   5   6
HETATM    6  C   UNK N   1      25.754  20.248   4.158  0.00  0.00     0.201 C 
BRANCH   6   7
HETATM    7  O   UNK N   1      26.025  18.976   4.620  0.00  0.00    -0.349 OA
BRANCH   7   8
HETATM    8  C   UNK N   1      27.226  18.367   4.474  0.00  0.00     0.068 A 
HETATM    9  C   UNK N   1      28.376  18.834   5.135  0.00  0.00     0.037 A 
HETATM   10  C   UNK N   1      29.601  18.185   4.978  0.00  0.00     0.010 A 
HETATM   11  C   UNK N   1      29.687  17.049   4.173  0.00  0.00    -0.058 A 
HETATM   12  C   UNK N   1      28.542  16.571   3.518  0.00  0.00     0.010 A 
HETATM   13  C   UNK N   1      27.322  17.239   3.655  0.00  0.00     0.037 A 
BRANCH  11  14
HETATM   14  C   UNK N   1      30.981  16.317   4.074  0.00  0.00     0.038 C 
BRANCH  14  15
HETATM   15  C   UNK N   1      32.134  17.156   4.595  0.00  0.00     0.005 C 
BRANCH  15  16
HETATM   16  C   UNK N   1      33.245  16.243   5.094  0.00  0.00     0.000 C 
BRANCH  16  17
HETATM   17  C   UNK N   1      33.460  16.363   6.599  0.00  0.00     0.000 C 
BRANCH  17  18
HETATM   18  C   UNK N   1      33.618  17.818   7.011  0.00  0.00     0.000 C 
BRANCH  18  19
HETATM   19  C   UNK N   1      32.688  18.141   8.167  0.00  0.00     0.000 C 
BRANCH  19  20
HETATM   20  C   UNK N   1      31.742  16.977   8.400  0.00  0.00    -0.000 C 
BRANCH  20  21
HETATM   21  C   UNK N   1      30.308  17.440   8.271  0.00  0.00    -0.005 C 
HETATM   22  C   UNK N   1      29.986  18.383   9.411  0.00  0.00     0.005 C 
ENDBRANCH  20  21
ENDBRANCH  19  20
ENDBRANCH  18  19
ENDBRANCH  17  18
ENDBRANCH  16  17
ENDBRANCH  15  16
ENDBRANCH  14  15
ENDBRANCH  11  14
ENDBRANCH   7   8
ENDBRANCH   6   7
ENDBRANCH   5   6
ENDBRANCH   4   5
ENDBRANCH   3   4
ENDBRANCH   2   3
ENDBRANCH   1   2
BRANCH   1  23
HETATM   23  C   UNK N   1      22.261  18.689   4.551  0.00  0.00     0.193 C 
BRANCH  23  24
HETATM   24  C   UNK N   1      21.261  17.987   5.461  0.00  0.00     0.193 C 
BRANCH  24  25
HETATM   25  O   UNK N   1      21.312  18.545   6.741  0.00  0.00    -0.387 OA
BRANCH  25  26
HETATM   26  C   UNK N   1      20.557  17.694   7.545  0.00  0.00     0.193 C 
BRANCH  26  27
HETATM   27  C   UNK N   1      20.221  16.439   6.770  0.00  0.00     0.193 C 
BRANCH  27  28
HETATM   28  O   UNK N   1      19.609  15.519   7.622  0.00  0.00    -0.387 OA
BRANCH  28  29
HETATM   29  C   UNK N   1      20.205  15.746   8.859  0.00  0.00     0.193 C 
BRANCH  29  30
HETATM   30  C   UNK N   1      20.836  14.463   9.382  0.00  0.00     0.193 C 
BRANCH  30  31
HETATM   31  O   UNK N   1      20.675  13.446   8.438  0.00  0.00    -0.387 OA
BRANCH  31  32
HETATM   32  C   UNK N   1      21.671  12.513   8.739  0.00  0.00     0.193 C 
BRANCH  32  33
HETATM   33  C   UNK N   1      22.996  13.226   8.948  0.00  0.00     0.193 C 
BRANCH  33  34
HETATM   34  O   UNK N   1      23.513  13.644   7.722  0.00  0.00    -0.387 OA
BRANCH  34  35
HETATM   35  C   UNK N   1      23.572  12.478   6.957  0.00  0.00     0.193 C 
BRANCH  35  36
HETATM   36  C   UNK N   1      23.429  12.805   5.481  0.00  0.00     0.193 C 
BRANCH  36  37
HETATM   37  O   UNK N   1      22.243  13.510   5.267  0.00  0.00    -0.387 OA
BRANCH  37  38
HETATM   38  C   UNK N   1      22.611  14.643   4.537  0.00  0.00     0.193 C 
BRANCH  38  39
HETATM   39  C   UNK N   1      22.142  14.500   3.098  0.00  0.00     0.193 C 
BRANCH  39  40
HETATM   40  O   UNK N   1      20.805  14.104   3.069  0.00  0.00    -0.387 OA
BRANCH  40  41
HETATM   41  C   UNK N   1      20.085  15.298   3.142  0.00  0.00     0.193 C 
BRANCH  41  42
HETATM   42  C   UNK N   1      20.094  15.983   1.789  0.00  0.00     0.190 C 
BRANCH  42  43
HETATM   43  O   UNK N   1      19.586  17.275   1.917  0.00  0.00    -0.399 OA
HETATM   44  H   UNK N   1      19.286  17.677   2.747  0.00  0.00     0.209 HD
ENDBRANCH  42  43
ENDBRANCH  41  42
ENDBRANCH  40  41
ENDBRANCH  39  40
ENDBRANCH  38  39
ENDBRANCH  37  38
ENDBRANCH  36  37
ENDBRANCH  35  36
ENDBRANCH  34  35
ENDBRANCH  33  34
ENDBRANCH  32  33
ENDBRANCH  31  32
ENDBRANCH  30  31
ENDBRANCH  29  30
ENDBRANCH  28  29
ENDBRANCH  27  28
ENDBRANCH  26  27
ENDBRANCH  25  26
ENDBRANCH  24  25
ENDBRANCH  23  24
ENDBRANCH   1  23
TORSDOF 36
ENDMDL
MODEL 9
REMARK VINA RESULT:      -4.6      1.685      5.555
REMARK WARNING: 32 MAX_TORS EXCEEDED!!!
REMARK  36 active torsions:
REMARK  status: ('A' for Active; 'I' for Inactive)
REMARK    1  A    between atoms: C_2  and  C_3 
REMARK    2  A    between atoms: C_3  and  C_4 
REMARK    3  A    between atoms: C_4  and  C_5 
REMARK    4  A    between atoms: C_5  and  C_6 
REMARK    5  A    between atoms: C_6  and  C_7 
REMARK    6  A    between atoms: C_7  and  C_8 
REMARK    7  A    between atoms: C_8  and  C_9 
REMARK    8  A    between atoms: C_9  and  C_10 
REMARK    9  A    between atoms: C_13  and  O_16 
REMARK   10  A    between atoms: O_16  and  C_17 
REMARK   11  A    between atoms: C_17  and  C_18 
REMARK   12  A    between atoms: C_18  and  O_19 
REMARK   13  A    between atoms: O_19  and  C_20 
REMARK   14  A    between atoms: C_20  and  C_21 
REMARK   15  A    between atoms: C_21  and  O_22 
REMARK   16  A    between atoms: O_22  and  C_23 
REMARK   17  A    between atoms: C_23  and  C_24 
REMARK   18  A    between atoms: C_24  and  O_25 
REMARK   19  A    between atoms: O_25  and  C_26 
REMARK   20  A    between atoms: C_26  and  C_27 
REMARK   21  A    between atoms: C_27  and  O_28 
REMARK   22  A    between atoms: O_28  and  C_29 
REMARK   23  A    between atoms: C_29  and  C_30 
REMARK   24  A    between atoms: C_30  and  O_31 
REMARK   25  A    between atoms: O_31  and  C_32 
REMARK   26  A    between atoms: C_32  and  C_33 
REMARK   27  A    between atoms: C_33  and  O_34 
REMARK   28  A    between atoms: O_34  and  C_35 
REMARK   29  A    between atoms: C_35  and  C_36 
REMARK   30  A    between atoms: C_36  and  O_37 
REMARK   31  A    between atoms: O_37  and  C_38 
REMARK   32  A    between atoms: C_38  and  C_39 
REMARK   33  A    between atoms: C_39  and  O_40 
REMARK   34  A    between atoms: O_40  and  C_41 
REMARK   35  A    between atoms: C_41  and  C_42 
REMARK   36  A    between atoms: C_42  and  O_43 
ROOT
HETATM    1  O   UNK N   1      24.361  11.895   6.841  0.00  0.00    -0.387 OA
ENDROOT
BRANCH   1   2
HETATM    2  C   UNK N   1      24.658  10.984   5.823  0.00  0.00     0.193 C 
BRANCH   2   3
HETATM    3  C   UNK N   1      25.006  11.739   4.548  0.00  0.00     0.193 C 
BRANCH   3   4
HETATM    4  O   UNK N   1      26.021  12.669   4.803  0.00  0.00    -0.387 OA
BRANCH   4   5
HETATM    5  C   UNK N   1      26.116  13.453   3.646  0.00  0.00     0.194 C 
BRANCH   5   6
HETATM    6  C   UNK N   1      27.382  14.309   3.654  0.00  0.00     0.201 C 
BRANCH   6   7
HETATM    7  O   UNK N   1      27.097  15.659   3.654  0.00  0.00    -0.349 OA
BRANCH   7   8
HETATM    8  C   UNK N   1      27.436  16.495   4.664  0.00  0.00     0.068 A 
HETATM    9  C   UNK N   1      27.928  17.789   4.418  0.00  0.00     0.037 A 
HETATM   10  C   UNK N   1      28.261  18.637   5.475  0.00  0.00     0.010 A 
HETATM   11  C   UNK N   1      28.086  18.209   6.791  0.00  0.00    -0.058 A 
HETATM   12  C   UNK N   1      27.586  16.924   7.044  0.00  0.00     0.010 A 
HETATM   13  C   UNK N   1      27.279  16.066   5.985  0.00  0.00     0.037 A 
BRANCH  11  14
HETATM   14  C   UNK N   1      28.369  19.150   7.912  0.00  0.00     0.038 C 
BRANCH  14  15
HETATM   15  C   UNK N   1      29.022  18.436   9.082  0.00  0.00     0.005 C 
BRANCH  15  16
HETATM   16  C   UNK N   1      30.518  18.311   8.833  0.00  0.00     0.000 C 
BRANCH  16  17
HETATM   17  C   UNK N   1      31.011  16.875   8.982  0.00  0.00     0.000 C 
BRANCH  17  18
HETATM   18  C   UNK N   1      31.248  16.240   7.622  0.00  0.00     0.000 C 
BRANCH  18  19
HETATM   19  C   UNK N   1      31.993  17.203   6.715  0.00  0.00     0.000 C 
BRANCH  19  20
HETATM   20  C   UNK N   1      31.555  16.991   5.277  0.00  0.00    -0.000 C 
BRANCH  20  21
HETATM   21  C   UNK N   1      32.762  16.949   4.366  0.00  0.00    -0.005 C 
HETATM   22  C   UNK N   1      32.308  17.115   2.931  0.00  0.00     0.005 C 
ENDBRANCH  20  21
ENDBRANCH  19  20
ENDBRANCH  18  19
ENDBRANCH  17  18
ENDBRANCH  16  17
ENDBRANCH  15  16
ENDBRANCH  14  15
ENDBRANCH  11  14
ENDBRANCH   7   8
ENDBRANCH   6   7
ENDBRANCH   5   6
ENDBRANCH   4   5
ENDBRANCH   3   4
ENDBRANCH   2   3
ENDBRANCH   1   2
BRANCH   1  23
HETATM   23  C   UNK N   1      23.105  11.519   7.339  0.00  0.00     0.193 C 
BRANCH  23  24
HETATM   24  C   UNK N   1      22.257  12.747   7.652  0.00  0.00     0.193 C 
BRANCH  24  25
HETATM   25  O   UNK N   1      21.156  12.376   8.428  0.00  0.00    -0.387 OA
BRANCH  25  26
HETATM   26  C   UNK N   1      21.158  13.252   9.511  0.00  0.00     0.193 C 
BRANCH  26  27
HETATM   27  C   UNK N   1      20.989  14.670   9.012  0.00  0.00     0.193 C 
BRANCH  27  28
HETATM   28  O   UNK N   1      19.648  14.896   8.702  0.00  0.00    -0.387 OA
BRANCH  28  29
HETATM   29  C   UNK N   1      19.672  16.004   7.859  0.00  0.00     0.193 C 
BRANCH  29  30
HETATM   30  C   UNK N   1      20.016  17.258   8.651  0.00  0.00     0.193 C 
BRANCH  30  31
HETATM   31  O   UNK N   1      20.436  18.263   7.776  0.00  0.00    -0.387 OA
BRANCH  31  32
HETATM   32  C   UNK N   1      21.237  17.612   6.835  0.00  0.00     0.193 C 
BRANCH  32  33
HETATM   33  C   UNK N   1      21.463  18.520   5.638  0.00  0.00     0.193 C 
BRANCH  33  34
HETATM   34  O   UNK N   1      21.716  17.754   4.499  0.00  0.00    -0.387 OA
BRANCH  34  35
HETATM   35  C   UNK N   1      20.539  17.843   3.755  0.00  0.00     0.193 C 
BRANCH  35  36
HETATM   36  C   UNK N   1      20.787  18.594   2.460  0.00  0.00     0.193 C 
BRANCH  36  37
HETATM   37  O   UNK N   1      19.965  19.721   2.402  0.00  0.00    -0.387 OA
BRANCH  37  38
HETATM   38  C   UNK N   1      20.833  20.815   2.413  0.00  0.00     0.193 C 
BRANCH  38  39
HETATM   39  C   UNK N   1      22.266  20.335   2.253  0.00  0.00     0.193 C 
BRANCH  39  40
HETATM   40  O   UNK N   1      23.095  20.996   3.160  0.00  0.00    -0.387 OA
BRANCH  40  41
HETATM   41  C   UNK N   1      24.383  20.572   2.828  0.00  0.00     0.193 C 
BRANCH  41  42
HETATM   42  C   UNK N   1      24.642  19.204   3.432  0.00  0.00     0.190 C 
BRANCH  42  43
HETATM   43  O   UNK N   1      24.585  19.290   4.821  0.00  0.00    -0.399 OA
HETATM   44  H   UNK N   1      25.351  19.401   5.406  0.00  0.00     0.209 HD
ENDBRANCH  42  43
ENDBRANCH  41  42
ENDBRANCH  40  41
ENDBRANCH  39  40
ENDBRANCH  38  39
ENDBRANCH  37  38
ENDBRANCH  36  37
ENDBRANCH  35  36
ENDBRANCH  34  35
ENDBRANCH  33  34
ENDBRANCH  32  33
ENDBRANCH  31  32
ENDBRANCH  30  31
ENDBRANCH  29  30
ENDBRANCH  28  29
ENDBRANCH  27  28
ENDBRANCH  26  27
ENDBRANCH  25  26
ENDBRANCH  24  25
ENDBRANCH  23  24
ENDBRANCH   1  23
TORSDOF 36
ENDMDL
