MODEL 1
REMARK VINA RESULT:      -7.6      0.000      0.000
REMARK  7 active torsions:
REMARK  status: ('A' for Active; 'I' for Inactive)
REMARK    1  A    between atoms: C_18  and  O_2 
REMARK    2  A    between atoms: C_20  and  O_3 
REMARK    3  A    between atoms: O_4  and  C_22 
REMARK    4  A    between atoms: C_19  and  N_6 
REMARK       I    between atoms: N_13  and  C_27 
REMARK    5  A    between atoms: N_14  and  C_26 
REMARK       I    between atoms: N_17  and  C_31 
REMARK    6  A    between atoms: C_21  and  C_22 
REMARK    7  A    between atoms: C_29  and  C_31 
ROOT
HETATM    1  N   UNK N   1      24.070  19.605   3.479  0.00  0.00    -0.297 N 
HETATM    2  N   UNK N   1      26.252  20.036   3.109  0.00  0.00    -0.346 N 
ATOM      3  HN  UNK N   1      27.112  20.485   2.794  1.00  0.00     0.167 HD
HETATM    4  N   UNK N   1      24.400  17.586   4.703  0.00  0.00    -0.172 N 
ATOM      5  HN  UNK N   1      23.399  17.427   4.826  1.00  0.00     0.186 HD
HETATM    6  N   UNK N   1      26.644  16.919   5.042  0.00  0.00    -0.173 N 
ATOM      7  HN  UNK N   1      27.318  16.264   5.437  1.00  0.00     0.186 HD
HETATM    8  N   UNK N   1      24.774  15.682   6.069  0.00  0.00    -0.097 N 
HETATM    9  N   UNK N   1      25.442  14.815   6.809  0.00  0.00    -0.290 N 
ATOM     10  HN  UNK N   1      26.454  14.690   6.820  1.00  0.00     0.187 HD
HETATM   11  C   UNK N   1      24.826  18.650   4.021  0.00  0.00     0.157 A 
HETATM   12  C   UNK N   1      24.963  20.458   2.909  0.00  0.00     0.188 A 
HETATM   13  C   UNK N   1      26.124  18.894   3.813  0.00  0.00     0.123 A 
HETATM   14  C   UNK N   1      27.081  18.006   4.315  0.00  0.00     0.145 A 
HETATM   15  C   UNK N   1      25.293  16.718   5.232  0.00  0.00     0.706 A 
HETATM   16  C   UNK N   1      23.458  15.577   6.302  0.00  0.00     0.153 A 
HETATM   17  C   UNK N   1      23.275  14.604   7.234  0.00  0.00     0.067 A 
HETATM   18  C   UNK N   1      24.540  14.121   7.549  0.00  0.00     0.126 A 
ENDROOT
BRANCH   1  19
HETATM   19  C   UNK N   1      22.593  19.662   3.442  0.00  0.00     0.262 C 
HETATM   20  O   UNK N   1      22.025  18.392   3.199  0.00  0.00    -0.353 OA
HETATM   21  C   UNK N   1      20.857  18.627   2.429  0.00  0.00     0.179 C 
HETATM   22  C   UNK N   1      20.645  20.114   2.333  0.00  0.00     0.182 C 
HETATM   23  C   UNK N   1      22.032  20.609   2.388  0.00  0.00     0.198 C 
BRANCH  21  24
HETATM   24  C   UNK N   1      19.634  18.033   3.104  0.00  0.00     0.198 C 
BRANCH  24  25
HETATM   25  O   UNK N   1      18.474  18.490   2.484  0.00  0.00    -0.398 OA
HETATM   26  H   UNK N   1      18.227  19.428   2.456  0.00  0.00     0.209 HD
ENDBRANCH  24  25
ENDBRANCH  21  24
BRANCH  22  27
HETATM   27  O   UNK N   1      20.016  20.478   1.141  0.00  0.00    -0.390 OA
HETATM   28  H   UNK N   1      19.427  21.206   0.886  0.00  0.00     0.210 HD
ENDBRANCH  22  27
BRANCH  23  29
HETATM   29  O   UNK N   1      22.010  21.932   2.833  0.00  0.00    -0.388 OA
HETATM   30  H   UNK N   1      21.322  22.615   2.869  0.00  0.00     0.210 HD
ENDBRANCH  23  29
ENDBRANCH   1  19
BRANCH  14  31
HETATM   31  N   UNK N   1      28.459  18.223   4.107  0.00  0.00    -0.383 N 
HETATM   32  H   UNK N   1      29.129  17.724   4.627  0.00  0.00     0.157 HD
HETATM   33  H   UNK N   1      28.754  18.880   3.436  0.00  0.00     0.157 HD
ENDBRANCH  14  31
BRANCH  17  34
HETATM   34  C   UNK N   1      21.954  14.265   7.789  0.00  0.00     0.254 C 
HETATM   35  O   UNK N   1      21.042  13.972   7.025  0.00  0.00    -0.268 OA
HETATM   36  N   UNK N   1      21.733  14.315   9.122  0.00  0.00    -0.361 N 
HETATM   37  C   UNK N   1      20.430  14.038   9.673  0.00  0.00     0.149 C 
HETATM   38  H   UNK N   1      22.475  14.547   9.726  0.00  0.00     0.162 HD
ENDBRANCH  17  34
TORSDOF 7
ENDMDL
MODEL 2
REMARK VINA RESULT:      -7.1      1.655      2.230
REMARK  7 active torsions:
REMARK  status: ('A' for Active; 'I' for Inactive)
REMARK    1  A    between atoms: C_18  and  O_2 
REMARK    2  A    between atoms: C_20  and  O_3 
REMARK    3  A    between atoms: O_4  and  C_22 
REMARK    4  A    between atoms: C_19  and  N_6 
REMARK       I    between atoms: N_13  and  C_27 
REMARK    5  A    between atoms: N_14  and  C_26 
REMARK       I    between atoms: N_17  and  C_31 
REMARK    6  A    between atoms: C_21  and  C_22 
REMARK    7  A    between atoms: C_29  and  C_31 
ROOT
HETATM    1  N   UNK N   1      24.166  18.299   3.952  0.00  0.00    -0.297 N 
HETATM    2  N   UNK N   1      26.286  17.575   3.701  0.00  0.00    -0.346 N 
ATOM      3  HN  UNK N   1      27.255  17.499   3.390  1.00  0.00     0.167 HD
HETATM    4  N   UNK N   1      23.495  16.627   5.513  0.00  0.00    -0.172 N 
ATOM      5  HN  UNK N   1      22.540  16.984   5.577  1.00  0.00     0.186 HD
HETATM    6  N   UNK N   1      25.147  15.056   6.144  0.00  0.00    -0.173 N 
ATOM      7  HN  UNK N   1      25.428  14.246   6.696  1.00  0.00     0.186 HD
HETATM    8  N   UNK N   1      22.919  15.059   7.199  0.00  0.00    -0.097 N 
HETATM    9  N   UNK N   1      23.093  14.133   8.124  0.00  0.00    -0.290 N 
ATOM     10  HN  UNK N   1      23.921  13.550   8.241  1.00  0.00     0.187 HD
HETATM   11  C   UNK N   1      24.375  17.219   4.705  0.00  0.00     0.157 A 
HETATM   12  C   UNK N   1      25.356  18.509   3.328  0.00  0.00     0.188 A 
HETATM   13  C   UNK N   1      25.630  16.780   4.570  0.00  0.00     0.123 A 
HETATM   14  C   UNK N   1      26.048  15.654   5.288  0.00  0.00     0.145 A 
HETATM   15  C   UNK N   1      23.866  15.555   6.251  0.00  0.00     0.706 A 
HETATM   16  C   UNK N   1      21.714  15.633   7.335  0.00  0.00     0.153 A 
HETATM   17  C   UNK N   1      21.091  15.051   8.395  0.00  0.00     0.067 A 
HETATM   18  C   UNK N   1      21.973  14.096   8.890  0.00  0.00     0.126 A 
ENDROOT
BRANCH   1  19
HETATM   19  C   UNK N   1      22.896  19.039   3.784  0.00  0.00     0.262 C 
HETATM   20  O   UNK N   1      21.830  18.178   3.441  0.00  0.00    -0.353 OA
HETATM   21  C   UNK N   1      20.988  18.924   2.577  0.00  0.00     0.179 C 
HETATM   22  C   UNK N   1      21.502  20.338   2.520  0.00  0.00     0.182 C 
HETATM   23  C   UNK N   1      22.947  20.129   2.719  0.00  0.00     0.198 C 
BRANCH  21  24
HETATM   24  C   UNK N   1      19.569  18.975   3.115  0.00  0.00     0.198 C 
BRANCH  24  25
HETATM   25  O   UNK N   1      18.672  18.539   2.144  0.00  0.00    -0.398 OA
HETATM   26  H   UNK N   1      18.459  19.060   1.353  0.00  0.00     0.209 HD
ENDBRANCH  24  25
ENDBRANCH  21  24
BRANCH  22  27
HETATM   27  O   UNK N   1      21.236  20.943   1.290  0.00  0.00    -0.390 OA
HETATM   28  H   UNK N   1      20.608  21.622   0.996  0.00  0.00     0.210 HD
ENDBRANCH  22  27
BRANCH  23  29
HETATM   29  O   UNK N   1      23.499  21.313   3.211  0.00  0.00    -0.388 OA
HETATM   30  H   UNK N   1      23.132  22.186   3.421  0.00  0.00     0.210 HD
ENDBRANCH  23  29
ENDBRANCH   1  19
BRANCH  14  31
HETATM   31  N   UNK N   1      27.361  15.153   5.164  0.00  0.00    -0.383 N 
HETATM   32  H   UNK N   1      27.878  14.901   5.961  0.00  0.00     0.157 HD
HETATM   33  H   UNK N   1      27.763  15.055   4.270  0.00  0.00     0.157 HD
ENDBRANCH  14  31
BRANCH  17  34
HETATM   34  C   UNK N   1      19.772  15.483   8.885  0.00  0.00     0.254 C 
HETATM   35  O   UNK N   1      19.063  14.680   9.479  0.00  0.00    -0.268 OA
HETATM   36  N   UNK N   1      19.327  16.739   8.651  0.00  0.00    -0.361 N 
HETATM   37  C   UNK N   1      18.016  17.157   9.079  0.00  0.00     0.149 C 
HETATM   38  H   UNK N   1      19.909  17.377   8.177  0.00  0.00     0.162 HD
ENDBRANCH  17  34
TORSDOF 7
ENDMDL
MODEL 3
REMARK VINA RESULT:      -7.0      7.923     10.703
REMARK  7 active torsions:
REMARK  status: ('A' for Active; 'I' for Inactive)
REMARK    1  A    between atoms: C_18  and  O_2 
REMARK    2  A    between atoms: C_20  and  O_3 
REMARK    3  A    between atoms: O_4  and  C_22 
REMARK    4  A    between atoms: C_19  and  N_6 
REMARK       I    between atoms: N_13  and  C_27 
REMARK    5  A    between atoms: N_14  and  C_26 
REMARK       I    between atoms: N_17  and  C_31 
REMARK    6  A    between atoms: C_21  and  C_22 
REMARK    7  A    between atoms: C_29  and  C_31 
ROOT
HETATM    1  N   UNK N   1      34.697  15.163   6.842  0.00  0.00    -0.297 N 
HETATM    2  N   UNK N   1      35.675  14.311   8.686  0.00  0.00    -0.346 N 
ATOM      3  HN  UNK N   1      36.354  13.876   9.311  1.00  0.00     0.167 HD
HETATM    4  N   UNK N   1      32.649  15.788   7.889  0.00  0.00    -0.172 N 
ATOM      5  HN  UNK N   1      32.244  16.144   7.022  1.00  0.00     0.186 HD
HETATM    6  N   UNK N   1      32.479  15.349  10.208  0.00  0.00    -0.173 N 
ATOM      7  HN  UNK N   1      31.947  15.395  11.077  1.00  0.00     0.186 HD
HETATM    8  N   UNK N   1      30.700  16.559   9.003  0.00  0.00    -0.097 N 
HETATM    9  N   UNK N   1      29.911  16.885  10.011  0.00  0.00    -0.290 N 
ATOM     10  HN  UNK N   1      30.024  16.592  10.981  1.00  0.00     0.187 HD
HETATM   11  C   UNK N   1      33.873  15.260   7.885  0.00  0.00     0.157 A 
HETATM   12  C   UNK N   1      35.810  14.567   7.346  0.00  0.00     0.188 A 
HETATM   13  C   UNK N   1      34.442  14.762   8.989  0.00  0.00     0.123 A 
HETATM   14  C   UNK N   1      33.735  14.780  10.196  0.00  0.00     0.145 A 
HETATM   15  C   UNK N   1      31.943  15.854   9.042  0.00  0.00     0.706 A 
HETATM   16  C   UNK N   1      30.258  17.116   7.866  0.00  0.00     0.153 A 
HETATM   17  C   UNK N   1      29.139  17.832   8.159  0.00  0.00     0.067 A 
HETATM   18  C   UNK N   1      28.922  17.677   9.523  0.00  0.00     0.126 A 
ENDROOT
BRANCH   1  19
HETATM   19  C   UNK N   1      34.414  15.546   5.442  0.00  0.00     0.262 C 
HETATM   20  O   UNK N   1      33.339  16.457   5.355  0.00  0.00    -0.353 OA
HETATM   21  C   UNK N   1      32.663  16.151   4.146  0.00  0.00     0.179 C 
HETATM   22  C   UNK N   1      33.457  15.105   3.412  0.00  0.00     0.182 C 
HETATM   23  C   UNK N   1      34.074  14.371   4.531  0.00  0.00     0.198 C 
BRANCH  21  24
HETATM   24  C   UNK N   1      32.577  17.373   3.249  0.00  0.00     0.198 C 
BRANCH  24  25
HETATM   25  O   UNK N   1      31.705  17.130   2.190  0.00  0.00    -0.398 OA
HETATM   26  H   UNK N   1      30.967  17.720   1.972  0.00  0.00     0.209 HD
ENDBRANCH  24  25
ENDBRANCH  21  24
BRANCH  22  27
HETATM   27  O   UNK N   1      32.642  14.273   2.641  0.00  0.00    -0.390 OA
HETATM   28  H   UNK N   1      32.409  14.246   1.699  0.00  0.00     0.210 HD
ENDBRANCH  22  27
BRANCH  23  29
HETATM   29  O   UNK N   1      35.220  13.729   4.058  0.00  0.00    -0.388 OA
HETATM   30  H   UNK N   1      35.558  12.823   4.130  0.00  0.00     0.210 HD
ENDBRANCH  23  29
ENDBRANCH   1  19
BRANCH  14  31
HETATM   31  N   UNK N   1      34.296  14.254  11.379  0.00  0.00    -0.383 N 
HETATM   32  H   UNK N   1      33.720  13.998  12.135  0.00  0.00     0.157 HD
HETATM   33  H   UNK N   1      35.271  14.142  11.449  0.00  0.00     0.157 HD
ENDBRANCH  14  31
BRANCH  17  34
HETATM   34  C   UNK N   1      28.423  18.642   7.159  0.00  0.00     0.254 C 
HETATM   35  O   UNK N   1      28.645  18.456   5.969  0.00  0.00    -0.268 OA
HETATM   36  N   UNK N   1      27.559  19.608   7.546  0.00  0.00    -0.361 N 
HETATM   37  C   UNK N   1      26.892  20.443   6.579  0.00  0.00     0.149 C 
HETATM   38  H   UNK N   1      27.385  19.744   8.506  0.00  0.00     0.162 HD
ENDBRANCH  17  34
TORSDOF 7
ENDMDL
MODEL 4
REMARK VINA RESULT:      -7.0      3.159      7.403
REMARK  7 active torsions:
REMARK  status: ('A' for Active; 'I' for Inactive)
REMARK    1  A    between atoms: C_18  and  O_2 
REMARK    2  A    between atoms: C_20  and  O_3 
REMARK    3  A    between atoms: O_4  and  C_22 
REMARK    4  A    between atoms: C_19  and  N_6 
REMARK       I    between atoms: N_13  and  C_27 
REMARK    5  A    between atoms: N_14  and  C_26 
REMARK       I    between atoms: N_17  and  C_31 
REMARK    6  A    between atoms: C_21  and  C_22 
REMARK    7  A    between atoms: C_29  and  C_31 
ROOT
HETATM    1  N   UNK N   1      20.635  15.771   5.791  0.00  0.00    -0.297 N 
HETATM    2  N   UNK N   1      18.851  16.194   4.479  0.00  0.00    -0.346 N 
ATOM      3  HN  UNK N   1      17.915  16.161   4.073  1.00  0.00     0.167 HD
HETATM    4  N   UNK N   1      22.103  17.341   4.762  0.00  0.00    -0.172 N 
ATOM      5  HN  UNK N   1      22.886  17.099   5.371  1.00  0.00     0.186 HD
HETATM    6  N   UNK N   1      21.200  18.614   2.984  0.00  0.00    -0.173 N 
ATOM      7  HN  UNK N   1      21.309  19.339   2.275  1.00  0.00     0.186 HD
HETATM    8  N   UNK N   1      23.476  19.040   3.833  0.00  0.00    -0.097 N 
HETATM    9  N   UNK N   1      23.795  20.110   3.127  0.00  0.00    -0.290 N 
ATOM     10  HN  UNK N   1      23.237  20.527   2.383  1.00  0.00     0.187 HD
HETATM   11  C   UNK N   1      20.937  16.708   4.894  0.00  0.00     0.157 A 
HETATM   12  C   UNK N   1      19.340  15.452   5.522  0.00  0.00     0.188 A 
HETATM   13  C   UNK N   1      19.887  16.974   4.110  0.00  0.00     0.123 A 
HETATM   14  C   UNK N   1      20.003  17.941   3.105  0.00  0.00     0.145 A 
HETATM   15  C   UNK N   1      22.250  18.306   3.824  0.00  0.00     0.706 A 
HETATM   16  C   UNK N   1      24.436  18.768   4.728  0.00  0.00     0.153 A 
HETATM   17  C   UNK N   1      25.412  19.706   4.593  0.00  0.00     0.067 A 
HETATM   18  C   UNK N   1      24.999  20.554   3.571  0.00  0.00     0.126 A 
ENDROOT
BRANCH   1  19
HETATM   19  C   UNK N   1      21.542  15.166   6.791  0.00  0.00     0.262 C 
HETATM   20  O   UNK N   1      22.807  14.868   6.238  0.00  0.00    -0.353 OA
HETATM   21  C   UNK N   1      23.250  13.688   6.890  0.00  0.00     0.179 C 
HETATM   22  C   UNK N   1      22.268  13.352   7.980  0.00  0.00     0.182 C 
HETATM   23  C   UNK N   1      21.013  13.877   7.412  0.00  0.00     0.198 C 
BRANCH  21  24
HETATM   24  C   UNK N   1      24.602  13.907   7.544  0.00  0.00     0.198 C 
BRANCH  24  25
HETATM   25  O   UNK N   1      24.592  13.410   8.845  0.00  0.00    -0.398 OA
HETATM   26  H   UNK N   1      23.782  13.337   9.373  0.00  0.00     0.209 HD
ENDBRANCH  24  25
ENDBRANCH  21  24
BRANCH  22  27
HETATM   27  O   UNK N   1      22.191  11.978   8.211  0.00  0.00    -0.390 OA
HETATM   28  H   UNK N   1      21.758  11.432   8.886  0.00  0.00     0.210 HD
ENDBRANCH  22  27
BRANCH  23  29
HETATM   29  O   UNK N   1      20.127  14.129   8.460  0.00  0.00    -0.388 OA
HETATM   30  H   UNK N   1      20.001  14.876   9.067  0.00  0.00     0.210 HD
ENDBRANCH  23  29
ENDBRANCH   1  19
BRANCH  14  31
HETATM   31  N   UNK N   1      18.921  18.241   2.251  0.00  0.00    -0.383 N 
HETATM   32  H   UNK N   1      18.298  18.970   2.470  0.00  0.00     0.157 HD
HETATM   33  H   UNK N   1      18.789  17.716   1.429  0.00  0.00     0.157 HD
ENDBRANCH  14  31
BRANCH  17  34
HETATM   34  C   UNK N   1      26.594  19.764   5.467  0.00  0.00     0.254 C 
HETATM   35  O   UNK N   1      27.284  20.777   5.474  0.00  0.00    -0.268 OA
HETATM   36  N   UNK N   1      26.944  18.700   6.226  0.00  0.00    -0.361 N 
HETATM   37  C   UNK N   1      28.130  18.726   7.046  0.00  0.00     0.149 C 
HETATM   38  H   UNK N   1      26.379  17.894   6.217  0.00  0.00     0.162 HD
ENDBRANCH  17  34
TORSDOF 7
ENDMDL
MODEL 5
REMARK VINA RESULT:      -6.9     12.747     14.791
REMARK  7 active torsions:
REMARK  status: ('A' for Active; 'I' for Inactive)
REMARK    1  A    between atoms: C_18  and  O_2 
REMARK    2  A    between atoms: C_20  and  O_3 
REMARK    3  A    between atoms: O_4  and  C_22 
REMARK    4  A    between atoms: C_19  and  N_6 
REMARK       I    between atoms: N_13  and  C_27 
REMARK    5  A    between atoms: N_14  and  C_26 
REMARK       I    between atoms: N_17  and  C_31 
REMARK    6  A    between atoms: C_21  and  C_22 
REMARK    7  A    between atoms: C_29  and  C_31 
ROOT
HETATM    1  N   UNK N   1      28.830  23.023  -5.776  0.00  0.00    -0.297 N 
HETATM    2  N   UNK N   1      27.331  22.419  -7.348  0.00  0.00    -0.346 N 
ATOM      3  HN  UNK N   1      26.811  21.870  -8.033  1.00  0.00     0.167 HD
HETATM    4  N   UNK N   1      28.055  25.262  -5.512  0.00  0.00    -0.172 N 
ATOM      5  HN  UNK N   1      28.767  25.490  -4.817  1.00  0.00     0.186 HD
HETATM    6  N   UNK N   1      26.196  25.891  -6.833  0.00  0.00    -0.173 N 
ATOM      7  HN  UNK N   1      25.508  26.592  -7.110  1.00  0.00     0.186 HD
HETATM    8  N   UNK N   1      27.141  27.421  -5.146  0.00  0.00    -0.097 N 
HETATM    9  N   UNK N   1      26.269  28.411  -5.209  0.00  0.00    -0.290 N 
ATOM     10  HN  UNK N   1      25.498  28.491  -5.872  1.00  0.00     0.187 HD
HETATM   11  C   UNK N   1      28.025  24.046  -6.060  0.00  0.00     0.157 A 
HETATM   12  C   UNK N   1      28.396  22.019  -6.584  0.00  0.00     0.188 A 
HETATM   13  C   UNK N   1      27.126  23.702  -6.989  0.00  0.00     0.123 A 
HETATM   14  C   UNK N   1      26.183  24.642  -7.417  0.00  0.00     0.145 A 
HETATM   15  C   UNK N   1      27.141  26.192  -5.874  0.00  0.00     0.706 A 
HETATM   16  C   UNK N   1      28.021  27.637  -4.157  0.00  0.00     0.153 A 
HETATM   17  C   UNK N   1      27.696  28.814  -3.558  0.00  0.00     0.067 A 
HETATM   18  C   UNK N   1      26.583  29.303  -4.234  0.00  0.00     0.126 A 
ENDROOT
BRANCH   1  19
HETATM   19  C   UNK N   1      29.983  23.024  -4.850  0.00  0.00     0.262 C 
HETATM   20  O   UNK N   1      30.552  21.738  -4.720  0.00  0.00    -0.353 OA
HETATM   21  C   UNK N   1      31.008  21.646  -3.380  0.00  0.00     0.179 C 
HETATM   22  C   UNK N   1      30.830  22.989  -2.726  0.00  0.00     0.182 C 
HETATM   23  C   UNK N   1      29.650  23.507  -3.443  0.00  0.00     0.198 C 
BRANCH  21  24
HETATM   24  C   UNK N   1      32.486  21.306  -3.332  0.00  0.00     0.198 C 
BRANCH  24  25
HETATM   25  O   UNK N   1      32.898  21.139  -2.013  0.00  0.00    -0.398 OA
HETATM   26  H   UNK N   1      33.595  21.679  -1.607  0.00  0.00     0.209 HD
ENDBRANCH  24  25
ENDBRANCH  21  24
BRANCH  22  27
HETATM   27  O   UNK N   1      30.589  22.878  -1.355  0.00  0.00    -0.390 OA
HETATM   28  H   UNK N   1      30.311  23.504  -0.668  0.00  0.00     0.210 HD
ENDBRANCH  22  27
BRANCH  23  29
HETATM   29  O   UNK N   1      29.658  24.900  -3.354  0.00  0.00    -0.388 OA
HETATM   30  H   UNK N   1      29.965  25.527  -2.680  0.00  0.00     0.210 HD
ENDBRANCH  23  29
ENDBRANCH   1  19
BRANCH  14  31
HETATM   31  N   UNK N   1      25.226  24.321  -8.402  0.00  0.00    -0.383 N 
HETATM   32  H   UNK N   1      25.204  24.808  -9.257  0.00  0.00     0.157 HD
HETATM   33  H   UNK N   1      24.575  23.602  -8.234  0.00  0.00     0.157 HD
ENDBRANCH  14  31
BRANCH  17  34
HETATM   34  C   UNK N   1      28.406  29.335  -2.378  0.00  0.00     0.254 C 
HETATM   35  O   UNK N   1      29.619  29.492  -2.432  0.00  0.00    -0.268 OA
HETATM   36  N   UNK N   1      27.737  29.601  -1.233  0.00  0.00    -0.361 N 
HETATM   37  C   UNK N   1      28.429  30.060  -0.054  0.00  0.00     0.149 C 
HETATM   38  H   UNK N   1      26.761  29.476  -1.204  0.00  0.00     0.162 HD
ENDBRANCH  17  34
TORSDOF 7
ENDMDL
MODEL 6
REMARK VINA RESULT:      -6.9      9.117     11.301
REMARK  7 active torsions:
REMARK  status: ('A' for Active; 'I' for Inactive)
REMARK    1  A    between atoms: C_18  and  O_2 
REMARK    2  A    between atoms: C_20  and  O_3 
REMARK    3  A    between atoms: O_4  and  C_22 
REMARK    4  A    between atoms: C_19  and  N_6 
REMARK       I    between atoms: N_13  and  C_27 
REMARK    5  A    between atoms: N_14  and  C_26 
REMARK       I    between atoms: N_17  and  C_31 
REMARK    6  A    between atoms: C_21  and  C_22 
REMARK    7  A    between atoms: C_29  and  C_31 
ROOT
HETATM    1  N   UNK N   1      31.853  15.969   6.271  0.00  0.00    -0.297 N 
HETATM    2  N   UNK N   1      32.611  15.662   4.170  0.00  0.00    -0.346 N 
ATOM      3  HN  UNK N   1      32.696  15.698   3.154  1.00  0.00     0.167 HD
HETATM    4  N   UNK N   1      33.588  14.753   7.363  0.00  0.00    -0.172 N 
ATOM      5  HN  UNK N   1      33.192  14.905   8.292  1.00  0.00     0.186 HD
HETATM    6  N   UNK N   1      35.261  13.830   5.968  0.00  0.00    -0.173 N 
ATOM      7  HN  UNK N   1      36.129  13.305   5.862  1.00  0.00     0.186 HD
HETATM    8  N   UNK N   1      35.426  13.691   8.425  0.00  0.00    -0.097 N 
HETATM    9  N   UNK N   1      36.624  13.149   8.552  0.00  0.00    -0.290 N 
ATOM     10  HN  UNK N   1      37.215  12.816   7.791  1.00  0.00     0.187 HD
HETATM   11  C   UNK N   1      32.968  15.239   6.287  0.00  0.00     0.157 A 
HETATM   12  C   UNK N   1      31.636  16.222   4.953  0.00  0.00     0.188 A 
HETATM   13  C   UNK N   1      33.433  15.052   5.048  0.00  0.00     0.123 A 
HETATM   14  C   UNK N   1      34.606  14.313   4.855  0.00  0.00     0.145 A 
HETATM   15  C   UNK N   1      34.742  14.059   7.225  0.00  0.00     0.706 A 
HETATM   16  C   UNK N   1      34.930  14.014   9.628  0.00  0.00     0.153 A 
HETATM   17  C   UNK N   1      35.852  13.667  10.566  0.00  0.00     0.067 A 
HETATM   18  C   UNK N   1      36.925  13.115   9.875  0.00  0.00     0.126 A 
ENDROOT
BRANCH   1  19
HETATM   19  C   UNK N   1      31.011  16.340   7.429  0.00  0.00     0.262 C 
HETATM   20  O   UNK N   1      29.686  16.636   7.040  0.00  0.00    -0.353 OA
HETATM   21  C   UNK N   1      29.241  17.660   7.915  0.00  0.00     0.179 C 
HETATM   22  C   UNK N   1      30.300  17.881   8.961  0.00  0.00     0.182 C 
HETATM   23  C   UNK N   1      31.524  17.543   8.212  0.00  0.00     0.198 C 
BRANCH  21  24
HETATM   24  C   UNK N   1      27.969  17.246   8.632  0.00  0.00     0.198 C 
BRANCH  24  25
HETATM   25  O   UNK N   1      27.477  18.307   9.388  0.00  0.00    -0.398 OA
HETATM   26  H   UNK N   1      26.538  18.551   9.402  0.00  0.00     0.209 HD
ENDBRANCH  24  25
ENDBRANCH  21  24
BRANCH  22  27
HETATM   27  O   UNK N   1      30.324  19.202   9.413  0.00  0.00    -0.390 OA
HETATM   28  H   UNK N   1      29.793  19.704  10.051  0.00  0.00     0.210 HD
ENDBRANCH  22  27
BRANCH  23  29
HETATM   29  O   UNK N   1      32.515  17.186   9.127  0.00  0.00    -0.388 OA
HETATM   30  H   UNK N   1      32.811  17.557   9.973  0.00  0.00     0.210 HD
ENDBRANCH  23  29
ENDBRANCH   1  19
BRANCH  14  31
HETATM   31  N   UNK N   1      35.121  14.083   3.563  0.00  0.00    -0.383 N 
HETATM   32  H   UNK N   1      34.943  14.719   2.833  0.00  0.00     0.157 HD
HETATM   33  H   UNK N   1      35.664  13.280   3.389  0.00  0.00     0.157 HD
ENDBRANCH  14  31
BRANCH  17  34
HETATM   34  C   UNK N   1      35.677  13.943  12.002  0.00  0.00     0.254 C 
HETATM   35  O   UNK N   1      34.554  14.174  12.433  0.00  0.00    -0.268 OA
HETATM   36  N   UNK N   1      36.745  13.984  12.831  0.00  0.00    -0.361 N 
HETATM   37  C   UNK N   1      36.592  14.307  14.228  0.00  0.00     0.149 C 
HETATM   38  H   UNK N   1      37.641  13.792  12.474  0.00  0.00     0.162 HD
ENDBRANCH  17  34
TORSDOF 7
ENDMDL
MODEL 7
REMARK VINA RESULT:      -6.7      3.053      6.320
REMARK  7 active torsions:
REMARK  status: ('A' for Active; 'I' for Inactive)
REMARK    1  A    between atoms: C_18  and  O_2 
REMARK    2  A    between atoms: C_20  and  O_3 
REMARK    3  A    between atoms: O_4  and  C_22 
REMARK    4  A    between atoms: C_19  and  N_6 
REMARK       I    between atoms: N_13  and  C_27 
REMARK    5  A    between atoms: N_14  and  C_26 
REMARK       I    between atoms: N_17  and  C_31 
REMARK    6  A    between atoms: C_21  and  C_22 
REMARK    7  A    between atoms: C_29  and  C_31 
ROOT
HETATM    1  N   UNK N   1      20.798  17.270   4.079  0.00  0.00    -0.297 N 
HETATM    2  N   UNK N   1      19.570  18.739   2.889  0.00  0.00    -0.346 N 
ATOM      3  HN  UNK N   1      18.784  19.193   2.421  1.00  0.00     0.167 HD
HETATM    4  N   UNK N   1      22.866  18.440   3.897  0.00  0.00    -0.172 N 
ATOM      5  HN  UNK N   1      23.381  17.735   4.426  1.00  0.00     0.186 HD
HETATM    6  N   UNK N   1      22.817  20.480   2.699  0.00  0.00    -0.173 N 
ATOM      7  HN  UNK N   1      23.297  21.308   2.349  1.00  0.00     0.186 HD
HETATM    8  N   UNK N   1      24.863  19.723   3.848  0.00  0.00    -0.097 N 
HETATM    9  N   UNK N   1      25.643  20.772   3.658  0.00  0.00    -0.290 N 
ATOM     10  HN  UNK N   1      25.420  21.591   3.094  1.00  0.00     0.187 HD
HETATM   11  C   UNK N   1      21.564  18.276   3.660  0.00  0.00     0.157 A 
HETATM   12  C   UNK N   1      19.562  17.562   3.590  0.00  0.00     0.188 A 
HETATM   13  C   UNK N   1      20.849  19.159   2.955  0.00  0.00     0.123 A 
HETATM   14  C   UNK N   1      21.476  20.296   2.433  0.00  0.00     0.145 A 
HETATM   15  C   UNK N   1      23.506  19.541   3.438  0.00  0.00     0.706 A 
HETATM   16  C   UNK N   1      25.468  18.829   4.644  0.00  0.00     0.153 A 
HETATM   17  C   UNK N   1      26.687  19.329   4.981  0.00  0.00     0.067 A 
HETATM   18  C   UNK N   1      26.793  20.563   4.348  0.00  0.00     0.126 A 
ENDROOT
BRANCH   1  19
HETATM   19  C   UNK N   1      21.229  16.073   4.832  0.00  0.00     0.262 C 
HETATM   20  O   UNK N   1      20.227  15.078   4.854  0.00  0.00    -0.353 OA
HETATM   21  C   UNK N   1      20.339  14.436   6.114  0.00  0.00     0.179 C 
HETATM   22  C   UNK N   1      21.556  14.979   6.814  0.00  0.00     0.182 C 
HETATM   23  C   UNK N   1      21.608  16.353   6.282  0.00  0.00     0.198 C 
BRANCH  21  24
HETATM   24  C   UNK N   1      20.538  12.941   5.944  0.00  0.00     0.198 C 
BRANCH  24  25
HETATM   25  O   UNK N   1      20.688  12.332   7.187  0.00  0.00    -0.398 OA
HETATM   26  H   UNK N   1      20.527  12.797   8.023  0.00  0.00     0.209 HD
ENDBRANCH  24  25
ENDBRANCH  21  24
BRANCH  22  27
HETATM   27  O   UNK N   1      21.409  14.971   8.202  0.00  0.00    -0.390 OA
HETATM   28  H   UNK N   1      21.447  15.658   8.887  0.00  0.00     0.210 HD
ENDBRANCH  22  27
BRANCH  23  29
HETATM   29  O   UNK N   1      22.918  16.820   6.398  0.00  0.00    -0.388 OA
HETATM   30  H   UNK N   1      23.714  16.481   6.837  0.00  0.00     0.210 HD
ENDBRANCH  23  29
ENDBRANCH   1  19
BRANCH  14  31
HETATM   31  N   UNK N   1      20.758  21.244   1.676  0.00  0.00    -0.383 N 
HETATM   32  H   UNK N   1      20.267  21.972   2.120  0.00  0.00     0.157 HD
HETATM   33  H   UNK N   1      20.747  21.177   0.693  0.00  0.00     0.157 HD
ENDBRANCH  14  31
BRANCH  17  34
HETATM   34  C   UNK N   1      27.604  18.646   5.909  0.00  0.00     0.254 C 
HETATM   35  O   UNK N   1      28.471  17.908   5.458  0.00  0.00    -0.268 OA
HETATM   36  N   UNK N   1      27.468  18.795   7.247  0.00  0.00    -0.361 N 
HETATM   37  C   UNK N   1      28.325  18.090   8.167  0.00  0.00     0.149 C 
HETATM   38  H   UNK N   1      26.771  19.395   7.597  0.00  0.00     0.162 HD
ENDBRANCH  17  34
TORSDOF 7
ENDMDL
MODEL 8
REMARK VINA RESULT:      -6.7     12.748     14.547
REMARK  7 active torsions:
REMARK  status: ('A' for Active; 'I' for Inactive)
REMARK    1  A    between atoms: C_18  and  O_2 
REMARK    2  A    between atoms: C_20  and  O_3 
REMARK    3  A    between atoms: O_4  and  C_22 
REMARK    4  A    between atoms: C_19  and  N_6 
REMARK       I    between atoms: N_13  and  C_27 
REMARK    5  A    between atoms: N_14  and  C_26 
REMARK       I    between atoms: N_17  and  C_31 
REMARK    6  A    between atoms: C_21  and  C_22 
REMARK    7  A    between atoms: C_29  and  C_31 
ROOT
HETATM    1  N   UNK N   1      29.340  21.747  -6.285  0.00  0.00    -0.297 N 
HETATM    2  N   UNK N   1      28.329  20.581  -7.928  0.00  0.00    -0.346 N 
ATOM      3  HN  UNK N   1      28.106  19.849  -8.602  1.00  0.00     0.167 HD
HETATM    4  N   UNK N   1      27.855  23.611  -6.325  0.00  0.00    -0.172 N 
ATOM      5  HN  UNK N   1      28.360  24.106  -5.590  1.00  0.00     0.186 HD
HETATM    6  N   UNK N   1      26.075  23.502  -7.880  0.00  0.00    -0.173 N 
ATOM      7  HN  UNK N   1      25.239  23.915  -8.293  1.00  0.00     0.186 HD
HETATM    8  N   UNK N   1      26.253  25.361  -6.271  0.00  0.00    -0.097 N 
HETATM    9  N   UNK N   1      25.122  25.998  -6.519  0.00  0.00    -0.290 N 
ATOM     10  HN  UNK N   1      24.458  25.775  -7.259  1.00  0.00     0.187 HD
HETATM   11  C   UNK N   1      28.289  22.424  -6.749  0.00  0.00     0.157 A 
HETATM   12  C   UNK N   1      29.360  20.607  -7.027  0.00  0.00     0.188 A 
HETATM   13  C   UNK N   1      27.676  21.743  -7.722  0.00  0.00     0.123 A 
HETATM   14  C   UNK N   1      26.541  22.286  -8.334  0.00  0.00     0.145 A 
HETATM   15  C   UNK N   1      26.742  24.159  -6.868  0.00  0.00     0.706 A 
HETATM   16  C   UNK N   1      26.883  25.919  -5.226  0.00  0.00     0.153 A 
HETATM   17  C   UNK N   1      26.121  26.955  -4.784  0.00  0.00     0.067 A 
HETATM   18  C   UNK N   1      25.005  27.002  -5.613  0.00  0.00     0.126 A 
ENDROOT
BRANCH   1  19
HETATM   19  C   UNK N   1      30.303  22.190  -5.253  0.00  0.00     0.262 C 
HETATM   20  O   UNK N   1      31.121  21.128  -4.810  0.00  0.00    -0.353 OA
HETATM   21  C   UNK N   1      31.371  21.373  -3.436  0.00  0.00     0.179 C 
HETATM   22  C   UNK N   1      30.793  22.717  -3.083  0.00  0.00     0.182 C 
HETATM   23  C   UNK N   1      29.653  22.797  -4.015  0.00  0.00     0.198 C 
BRANCH  21  24
HETATM   24  C   UNK N   1      32.862  21.429  -3.157  0.00  0.00     0.198 C 
BRANCH  24  25
HETATM   25  O   UNK N   1      33.114  21.106  -1.827  0.00  0.00    -0.398 OA
HETATM   26  H   UNK N   1      33.537  20.275  -1.559  0.00  0.00     0.209 HD
ENDBRANCH  24  25
ENDBRANCH  21  24
BRANCH  22  27
HETATM   27  O   UNK N   1      30.372  22.774  -1.753  0.00  0.00    -0.390 OA
HETATM   28  H   UNK N   1      30.308  23.487  -1.098  0.00  0.00     0.210 HD
ENDBRANCH  22  27
BRANCH  23  29
HETATM   29  O   UNK N   1      29.331  24.142  -4.201  0.00  0.00    -0.388 OA
HETATM   30  H   UNK N   1      29.597  24.811  -4.851  0.00  0.00     0.210 HD
ENDBRANCH  23  29
ENDBRANCH   1  19
BRANCH  14  31
HETATM   31  N   UNK N   1      25.873  21.604  -9.372  0.00  0.00    -0.383 N 
HETATM   32  H   UNK N   1      26.291  20.830  -9.812  0.00  0.00     0.157 HD
HETATM   33  H   UNK N   1      24.981  21.904  -9.659  0.00  0.00     0.157 HD
ENDBRANCH  14  31
BRANCH  17  34
HETATM   34  C   UNK N   1      26.468  27.756  -3.598  0.00  0.00     0.254 C 
HETATM   35  O   UNK N   1      25.712  27.754  -2.634  0.00  0.00    -0.268 OA
HETATM   36  N   UNK N   1      27.586  28.517  -3.583  0.00  0.00    -0.361 N 
HETATM   37  C   UNK N   1      27.908  29.347  -2.449  0.00  0.00     0.149 C 
HETATM   38  H   UNK N   1      28.188  28.506  -4.362  0.00  0.00     0.162 HD
ENDBRANCH  17  34
TORSDOF 7
ENDMDL
MODEL 9
REMARK VINA RESULT:      -6.6      3.461      5.527
REMARK  7 active torsions:
REMARK  status: ('A' for Active; 'I' for Inactive)
REMARK    1  A    between atoms: C_18  and  O_2 
REMARK    2  A    between atoms: C_20  and  O_3 
REMARK    3  A    between atoms: O_4  and  C_22 
REMARK    4  A    between atoms: C_19  and  N_6 
REMARK       I    between atoms: N_13  and  C_27 
REMARK    5  A    between atoms: N_14  and  C_26 
REMARK       I    between atoms: N_17  and  C_31 
REMARK    6  A    between atoms: C_21  and  C_22 
REMARK    7  A    between atoms: C_29  and  C_31 
ROOT
HETATM    1  N   UNK N   1      25.727  19.456   4.384  0.00  0.00    -0.297 N 
HETATM    2  N   UNK N   1      24.279  20.485   2.996  0.00  0.00    -0.346 N 
ATOM      3  HN  UNK N   1      23.884  21.124   2.306  1.00  0.00     0.167 HD
HETATM    4  N   UNK N   1      24.189  17.843   5.229  0.00  0.00    -0.172 N 
ATOM      5  HN  UNK N   1      24.878  17.424   5.855  1.00  0.00     0.186 HD
HETATM    6  N   UNK N   1      21.994  17.924   4.349  0.00  0.00    -0.173 N 
ATOM      7  HN  UNK N   1      21.046  17.549   4.309  1.00  0.00     0.186 HD
HETATM    8  N   UNK N   1      22.680  16.142   5.910  0.00  0.00    -0.097 N 
HETATM    9  N   UNK N   1      21.595  15.388   5.899  0.00  0.00    -0.290 N 
ATOM     10  HN  UNK N   1      20.718  15.604   5.427  1.00  0.00     0.187 HD
HETATM   11  C   UNK N   1      24.527  18.882   4.465  0.00  0.00     0.157 A 
HETATM   12  C   UNK N   1      25.563  20.453   3.474  0.00  0.00     0.188 A 
HETATM   13  C   UNK N   1      23.657  19.479   3.643  0.00  0.00     0.123 A 
HETATM   14  C   UNK N   1      22.339  19.014   3.578  0.00  0.00     0.145 A 
HETATM   15  C   UNK N   1      22.933  17.341   5.174  0.00  0.00     0.706 A 
HETATM   16  C   UNK N   1      23.649  15.556   6.628  0.00  0.00     0.153 A 
HETATM   17  C   UNK N   1      23.165  14.374   7.095  0.00  0.00     0.067 A 
HETATM   18  C   UNK N   1      21.858  14.275   6.631  0.00  0.00     0.126 A 
ENDROOT
BRANCH   1  19
HETATM   19  C   UNK N   1      26.932  19.122   5.174  0.00  0.00     0.262 C 
HETATM   20  O   UNK N   1      27.053  17.731   5.383  0.00  0.00    -0.353 OA
HETATM   21  C   UNK N   1      27.633  17.577   6.668  0.00  0.00     0.179 C 
HETATM   22  C   UNK N   1      28.006  18.941   7.185  0.00  0.00     0.182 C 
HETATM   23  C   UNK N   1      26.978  19.783   6.547  0.00  0.00     0.198 C 
BRANCH  21  24
HETATM   24  C   UNK N   1      28.906  16.754   6.592  0.00  0.00     0.198 C 
BRANCH  24  25
HETATM   25  O   UNK N   1      29.961  17.445   7.182  0.00  0.00    -0.398 OA
HETATM   26  H   UNK N   1      30.836  17.049   7.323  0.00  0.00     0.209 HD
ENDBRANCH  24  25
ENDBRANCH  21  24
BRANCH  22  27
HETATM   27  O   UNK N   1      27.935  19.011   8.578  0.00  0.00    -0.390 OA
HETATM   28  H   UNK N   1      27.444  19.571   9.199  0.00  0.00     0.210 HD
ENDBRANCH  22  27
BRANCH  23  29
HETATM   29  O   UNK N   1      27.461  21.091   6.480  0.00  0.00    -0.388 OA
HETATM   30  H   UNK N   1      27.070  21.937   6.209  0.00  0.00     0.210 HD
ENDBRANCH  23  29
ENDBRANCH   1  19
BRANCH  14  31
HETATM   31  N   UNK N   1      21.389  19.625   2.733  0.00  0.00    -0.383 N 
HETATM   32  H   UNK N   1      21.211  19.262   1.836  0.00  0.00     0.157 HD
HETATM   33  H   UNK N   1      20.901  20.421   3.043  0.00  0.00     0.157 HD
ENDBRANCH  14  31
BRANCH  17  34
HETATM   34  C   UNK N   1      23.982  13.423   7.867  0.00  0.00     0.254 C 
HETATM   35  O   UNK N   1      24.873  12.802   7.299  0.00  0.00    -0.268 OA
HETATM   36  N   UNK N   1      23.731  13.203   9.178  0.00  0.00    -0.361 N 
HETATM   37  C   UNK N   1      24.490  12.235   9.930  0.00  0.00     0.149 C 
HETATM   38  H   UNK N   1      23.017  13.712   9.624  0.00  0.00     0.162 HD
ENDBRANCH  17  34
TORSDOF 7
ENDMDL
