REMARK  1 active torsions:
REMARK  status: ('A' for Active; 'I' for Inactive)
REMARK    1  A    between atoms: N_6  and  C_5 
ROOT
HETATM    1  C   UNK N   1      -0.513   1.011  -0.000  0.00  0.00     0.046 A 
HETATM    2  C   UNK N   1       1.903   0.994   0.000  0.00  0.00     0.046 A 
HETATM    3  C   UNK N   1      -0.502  -0.386   0.000  0.00  0.00     0.089 A 
HETATM    4  C   UNK N   1       1.873  -0.402  -0.000  0.00  0.00     0.089 A 
HETATM    5  C   UNK N   1       0.700   1.701   0.000  0.00  0.00     0.028 A 
HETATM    6  N   UNK N   1       0.681  -1.059  -0.000  0.00  0.00    -0.375 N 
HETATM    7  H   UNK N   1       0.675  -2.043  -0.000  0.00  0.00     0.164 HD
ENDROOT
BRANCH   5   8
HETATM    8  N   UNK N   1       0.708   2.979  -0.000  0.00  0.00    -0.399 N 
HETATM    9  H   UNK N   1       1.564   3.465  -0.000  0.00  0.00     0.156 HD
ATOM     10  HN  UNK N   1      -0.172   3.494  -0.000  1.00  0.00     0.156 HD
ENDBRANCH   5   8
TORSDOF 1
