MODEL 1
REMARK VINA RESULT:      -6.2      0.000      0.000
REMARK  3 active torsions:
REMARK  status: ('A' for Active; 'I' for Inactive)
REMARK    1  A    between atoms: Zn_10  and  S_11 
REMARK    2  A    between atoms: S_11  and  C_12 
REMARK    3  A    between atoms: N_17  and  O_18 
ROOT
HETATM    1  O   UNK N   1      32.543  15.080  10.114  0.00  0.00    -0.282 OA
ATOM      2  HO  UNK N   1      33.174  14.775  10.754  1.00  0.00     0.245 HD
HETATM    3  N   UNK N   1      32.900  16.053   9.284  0.00  0.00    -0.229 N 
HETATM    4  C   UNK N   1      31.994  16.490   8.365  0.00  0.00     0.124 A 
HETATM    5  C   UNK N   1      32.328  17.507   7.469  0.00  0.00     0.020 A 
HETATM    6  C   UNK N   1      33.600  18.070   7.520  0.00  0.00     0.004 A 
HETATM    7  C   UNK N   1      34.517  17.616   8.464  0.00  0.00     0.040 A 
HETATM    8  C   UNK N   1      34.154  16.600   9.350  0.00  0.00     0.109 A 
HETATM    9  S   UNK N   1      35.382  16.057  10.543  0.00  0.00    -0.030 SA
HETATM   10 Zn   UNK N   1      34.165  14.824  11.950  0.00  0.00     0.000 Zn
ENDROOT
BRANCH  10  11
HETATM   11  S   UNK N   1      35.279  12.894  12.088  0.00  0.00    -0.030 SA
BRANCH  11  12
HETATM   12  C   UNK N   1      35.374  12.903  13.872  0.00  0.00     0.109 A 
HETATM   13  C   UNK N   1      34.621  11.970  14.589  0.00  0.00     0.040 A 
HETATM   14  C   UNK N   1      34.663  11.981  15.982  0.00  0.00     0.004 A 
HETATM   15  C   UNK N   1      35.455  12.920  16.641  0.00  0.00     0.020 A 
HETATM   16  C   UNK N   1      36.197  13.836  15.893  0.00  0.00     0.124 A 
HETATM   17  N   UNK N   1      36.146  13.815  14.533  0.00  0.00    -0.229 N 
BRANCH  17  18
HETATM   18  O   UNK N   1      36.861  14.707  13.852  0.00  0.00    -0.282 OA
ATOM     19  HO  UNK N   1      36.559  15.607  13.819  1.00  0.00     0.245 HD
ENDBRANCH  17  18
ENDBRANCH  11  12
ENDBRANCH  10  11
TORSDOF 3
ENDMDL
MODEL 2
REMARK VINA RESULT:      -6.2     10.204     13.127
REMARK  3 active torsions:
REMARK  status: ('A' for Active; 'I' for Inactive)
REMARK    1  A    between atoms: Zn_10  and  S_11 
REMARK    2  A    between atoms: S_11  and  C_12 
REMARK    3  A    between atoms: N_17  and  O_18 
ROOT
HETATM    1  O   UNK N   1      23.548  21.153   3.030  0.00  0.00    -0.282 OA
ATOM      2  HO  UNK N   1      24.355  20.944   3.484  1.00  0.00     0.245 HD
HETATM    3  N   UNK N   1      22.573  20.251   3.019  0.00  0.00    -0.229 N 
HETATM    4  C   UNK N   1      21.415  20.551   2.367  0.00  0.00     0.124 A 
HETATM    5  C   UNK N   1      20.362  19.636   2.334  0.00  0.00     0.020 A 
HETATM    6  C   UNK N   1      20.505  18.409   2.978  0.00  0.00     0.004 A 
HETATM    7  C   UNK N   1      21.693  18.113   3.639  0.00  0.00     0.040 A 
HETATM    8  C   UNK N   1      22.731  19.047   3.653  0.00  0.00     0.109 A 
HETATM    9  S   UNK N   1      24.238  18.606   4.524  0.00  0.00    -0.030 SA
HETATM   10 Zn   UNK N   1      25.661  20.183   3.842  0.00  0.00     0.000 Zn
ENDROOT
BRANCH  10  11
HETATM   11  S   UNK N   1      26.518  21.001   5.733  0.00  0.00    -0.030 SA
BRANCH  11  12
HETATM   12  C   UNK N   1      27.640  19.636   5.993  0.00  0.00     0.109 A 
HETATM   13  C   UNK N   1      27.948  19.259   7.302  0.00  0.00     0.040 A 
HETATM   14  C   UNK N   1      28.843  18.214   7.522  0.00  0.00     0.004 A 
HETATM   15  C   UNK N   1      29.418  17.558   6.436  0.00  0.00     0.020 A 
HETATM   16  C   UNK N   1      29.087  17.958   5.140  0.00  0.00     0.124 A 
HETATM   17  N   UNK N   1      28.213  18.982   4.939  0.00  0.00    -0.229 N 
BRANCH  17  18
HETATM   18  O   UNK N   1      27.924  19.342   3.691  0.00  0.00    -0.282 OA
ATOM     19  HO  UNK N   1      28.611  19.316   3.036  1.00  0.00     0.245 HD
ENDBRANCH  17  18
ENDBRANCH  11  12
ENDBRANCH  10  11
TORSDOF 3
ENDMDL
MODEL 3
REMARK VINA RESULT:      -6.0      1.949      7.098
REMARK  3 active torsions:
REMARK  status: ('A' for Active; 'I' for Inactive)
REMARK    1  A    between atoms: Zn_10  and  S_11 
REMARK    2  A    between atoms: S_11  and  C_12 
REMARK    3  A    between atoms: N_17  and  O_18 
ROOT
HETATM    1  O   UNK N   1      34.630  12.530  11.939  0.00  0.00    -0.282 OA
ATOM      2  HO  UNK N   1      35.116  13.302  11.674  1.00  0.00     0.245 HD
HETATM    3  N   UNK N   1      34.666  12.164  13.216  0.00  0.00    -0.229 N 
HETATM    4  C   UNK N   1      33.970  11.057  13.596  0.00  0.00     0.124 A 
HETATM    5  C   UNK N   1      33.975  10.639  14.927  0.00  0.00     0.020 A 
HETATM    6  C   UNK N   1      34.699  11.367  15.868  0.00  0.00     0.004 A 
HETATM    7  C   UNK N   1      35.408  12.495  15.467  0.00  0.00     0.040 A 
HETATM    8  C   UNK N   1      35.388  12.888  14.128  0.00  0.00     0.109 A 
HETATM    9  S   UNK N   1      36.322  14.353  13.675  0.00  0.00    -0.030 SA
HETATM   10 Zn   UNK N   1      36.332  14.241  11.446  0.00  0.00     0.000 Zn
ENDROOT
BRANCH  10  11
HETATM   11  S   UNK N   1      35.620  16.253  10.794  0.00  0.00    -0.030 SA
BRANCH  11  12
HETATM   12  C   UNK N   1      34.519  15.624   9.537  0.00  0.00     0.109 A 
HETATM   13  C   UNK N   1      34.887  15.750   8.196  0.00  0.00     0.040 A 
HETATM   14  C   UNK N   1      34.027  15.289   7.202  0.00  0.00     0.004 A 
HETATM   15  C   UNK N   1      32.811  14.707   7.557  0.00  0.00     0.020 A 
HETATM   16  C   UNK N   1      32.475  14.593   8.907  0.00  0.00     0.124 A 
HETATM   17  N   UNK N   1      33.324  15.049   9.868  0.00  0.00    -0.229 N 
BRANCH  17  18
HETATM   18  O   UNK N   1      32.969  14.931  11.145  0.00  0.00    -0.282 OA
ATOM     19  HO  UNK N   1      33.139  15.655  11.736  1.00  0.00     0.245 HD
ENDBRANCH  17  18
ENDBRANCH  11  12
ENDBRANCH  10  11
TORSDOF 3
ENDMDL
MODEL 4
REMARK VINA RESULT:      -5.8      2.560      7.416
REMARK  3 active torsions:
REMARK  status: ('A' for Active; 'I' for Inactive)
REMARK    1  A    between atoms: Zn_10  and  S_11 
REMARK    2  A    between atoms: S_11  and  C_12 
REMARK    3  A    between atoms: N_17  and  O_18 
ROOT
HETATM    1  O   UNK N   1      34.720  13.428  14.775  0.00  0.00    -0.282 OA
ATOM      2  HO  UNK N   1      34.561  13.065  13.912  1.00  0.00     0.245 HD
HETATM    3  N   UNK N   1      34.858  12.594  15.799  0.00  0.00    -0.229 N 
HETATM    4  C   UNK N   1      35.088  13.114  17.037  0.00  0.00     0.124 A 
HETATM    5  C   UNK N   1      35.244  12.274  18.141  0.00  0.00     0.020 A 
HETATM    6  C   UNK N   1      35.166  10.895  17.965  0.00  0.00     0.004 A 
HETATM    7  C   UNK N   1      34.929  10.375  16.696  0.00  0.00     0.040 A 
HETATM    8  C   UNK N   1      34.773  11.239  15.611  0.00  0.00     0.109 A 
HETATM    9  S   UNK N   1      34.471  10.507  13.999  0.00  0.00    -0.030 SA
HETATM   10 Zn   UNK N   1      33.847  12.271  12.784  0.00  0.00     0.000 Zn
ENDROOT
BRANCH  10  11
HETATM   11  S   UNK N   1      35.157  12.182  10.978  0.00  0.00    -0.030 SA
BRANCH  11  12
HETATM   12  C   UNK N   1      35.121  13.943  10.679  0.00  0.00     0.109 A 
HETATM   13  C   UNK N   1      34.382  14.425   9.597  0.00  0.00     0.040 A 
HETATM   14  C   UNK N   1      34.366  15.793   9.333  0.00  0.00     0.004 A 
HETATM   15  C   UNK N   1      35.085  16.662  10.152  0.00  0.00     0.020 A 
HETATM   16  C   UNK N   1      35.810  16.147  11.227  0.00  0.00     0.124 A 
HETATM   17  N   UNK N   1      35.819  14.808  11.473  0.00  0.00    -0.229 N 
BRANCH  17  18
HETATM   18  O   UNK N   1      36.527  14.350  12.503  0.00  0.00    -0.282 OA
ATOM     19  HO  UNK N   1      36.531  14.847  13.313  1.00  0.00     0.245 HD
ENDBRANCH  17  18
ENDBRANCH  11  12
ENDBRANCH  10  11
TORSDOF 3
ENDMDL
MODEL 5
REMARK VINA RESULT:      -5.8      7.250      8.998
REMARK  3 active torsions:
REMARK  status: ('A' for Active; 'I' for Inactive)
REMARK    1  A    between atoms: Zn_10  and  S_11 
REMARK    2  A    between atoms: S_11  and  C_12 
REMARK    3  A    between atoms: N_17  and  O_18 
ROOT
HETATM    1  O   UNK N   1      28.714  17.625   5.414  0.00  0.00    -0.282 OA
ATOM      2  HO  UNK N   1      29.066  17.281   6.226  1.00  0.00     0.245 HD
HETATM    3  N   UNK N   1      28.003  18.746   5.455  0.00  0.00    -0.229 N 
HETATM    4  C   UNK N   1      27.498  19.240   4.290  0.00  0.00     0.124 A 
HETATM    5  C   UNK N   1      26.750  20.418   4.285  0.00  0.00     0.020 A 
HETATM    6  C   UNK N   1      26.526  21.089   5.485  0.00  0.00     0.004 A 
HETATM    7  C   UNK N   1      27.045  20.574   6.669  0.00  0.00     0.040 A 
HETATM    8  C   UNK N   1      27.787  19.391   6.644  0.00  0.00     0.109 A 
HETATM    9  S   UNK N   1      28.432  18.779   8.205  0.00  0.00    -0.030 SA
HETATM   10 Zn   UNK N   1      29.085  16.713   7.671  0.00  0.00     0.000 Zn
ENDROOT
BRANCH  10  11
HETATM   11  S   UNK N   1      31.188  16.597   8.410  0.00  0.00    -0.030 SA
BRANCH  11  12
HETATM   12  C   UNK N   1      31.921  16.622   6.782  0.00  0.00     0.109 A 
HETATM   13  C   UNK N   1      33.045  17.422   6.563  0.00  0.00     0.040 A 
HETATM   14  C   UNK N   1      33.613  17.474   5.292  0.00  0.00     0.004 A 
HETATM   15  C   UNK N   1      33.055  16.729   4.256  0.00  0.00     0.020 A 
HETATM   16  C   UNK N   1      31.933  15.937   4.509  0.00  0.00     0.124 A 
HETATM   17  N   UNK N   1      31.387  15.896   5.755  0.00  0.00    -0.229 N 
BRANCH  17  18
HETATM   18  O   UNK N   1      30.314  15.137   5.960  0.00  0.00    -0.282 OA
ATOM     19  HO  UNK N   1      30.182  14.373   5.410  1.00  0.00     0.245 HD
ENDBRANCH  17  18
ENDBRANCH  11  12
ENDBRANCH  10  11
TORSDOF 3
ENDMDL
MODEL 6
REMARK VINA RESULT:      -5.6     17.407     19.595
REMARK  3 active torsions:
REMARK  status: ('A' for Active; 'I' for Inactive)
REMARK    1  A    between atoms: Zn_10  and  S_11 
REMARK    2  A    between atoms: S_11  and  C_12 
REMARK    3  A    between atoms: N_17  and  O_18 
ROOT
HETATM    1  O   UNK N   1      29.201  26.278  -4.627  0.00  0.00    -0.282 OA
ATOM      2  HO  UNK N   1      29.180  25.362  -4.380  1.00  0.00     0.245 HD
HETATM    3  N   UNK N   1      28.110  27.012  -4.437  0.00  0.00    -0.229 N 
HETATM    4  C   UNK N   1      28.140  28.327  -4.790  0.00  0.00     0.124 A 
HETATM    5  C   UNK N   1      27.019  29.137  -4.603  0.00  0.00     0.020 A 
HETATM    6  C   UNK N   1      25.866  28.587  -4.048  0.00  0.00     0.004 A 
HETATM    7  C   UNK N   1      25.847  27.242  -3.692  0.00  0.00     0.040 A 
HETATM    8  C   UNK N   1      26.982  26.455  -3.894  0.00  0.00     0.109 A 
HETATM    9  S   UNK N   1      26.894  24.727  -3.413  0.00  0.00    -0.030 SA
HETATM   10 Zn   UNK N   1      28.726  23.876  -4.362  0.00  0.00     0.000 Zn
ENDROOT
BRANCH  10  11
HETATM   11  S   UNK N   1      29.750  22.794  -2.700  0.00  0.00    -0.030 SA
BRANCH  11  12
HETATM   12  C   UNK N   1      30.692  21.723  -3.775  0.00  0.00     0.109 A 
HETATM   13  C   UNK N   1      30.187  21.431  -5.044  0.00  0.00     0.040 A 
HETATM   14  C   UNK N   1      30.896  20.576  -5.885  0.00  0.00     0.004 A 
HETATM   15  C   UNK N   1      32.099  20.024  -5.451  0.00  0.00     0.020 A 
HETATM   16  C   UNK N   1      32.578  20.339  -4.178  0.00  0.00     0.124 A 
HETATM   17  N   UNK N   1      31.875  21.174  -3.366  0.00  0.00    -0.229 N 
BRANCH  17  18
HETATM   18  O   UNK N   1      32.357  21.448  -2.156  0.00  0.00    -0.282 OA
ATOM     19  HO  UNK N   1      31.774  21.823  -1.505  1.00  0.00     0.245 HD
ENDBRANCH  17  18
ENDBRANCH  11  12
ENDBRANCH  10  11
TORSDOF 3
ENDMDL
MODEL 7
REMARK VINA RESULT:      -5.6     11.797     15.071
REMARK  3 active torsions:
REMARK  status: ('A' for Active; 'I' for Inactive)
REMARK    1  A    between atoms: Zn_10  and  S_11 
REMARK    2  A    between atoms: S_11  and  C_12 
REMARK    3  A    between atoms: N_17  and  O_18 
ROOT
HETATM    1  O   UNK N   1      23.638  13.902   8.379  0.00  0.00    -0.282 OA
ATOM      2  HO  UNK N   1      22.873  14.325   8.010  1.00  0.00     0.245 HD
HETATM    3  N   UNK N   1      23.509  13.241   9.524  0.00  0.00    -0.229 N 
HETATM    4  C   UNK N   1      24.607  12.633  10.053  0.00  0.00     0.124 A 
HETATM    5  C   UNK N   1      24.516  11.924  11.252  0.00  0.00     0.020 A 
HETATM    6  C   UNK N   1      23.288  11.840  11.902  0.00  0.00     0.004 A 
HETATM    7  C   UNK N   1      22.173  12.466  11.353  0.00  0.00     0.040 A 
HETATM    8  C   UNK N   1      22.295  13.172  10.155  0.00  0.00     0.109 A 
HETATM    9  S   UNK N   1      20.819  13.957   9.497  0.00  0.00    -0.030 SA
HETATM   10 Zn   UNK N   1      21.655  15.284   7.909  0.00  0.00     0.000 Zn
ENDROOT
BRANCH  10  11
HETATM   11  S   UNK N   1      20.452  14.789   6.095  0.00  0.00    -0.030 SA
BRANCH  11  12
HETATM   12  C   UNK N   1      20.869  16.291   5.223  0.00  0.00     0.109 A 
HETATM   13  C   UNK N   1      20.955  16.258   3.830  0.00  0.00     0.040 A 
HETATM   14  C   UNK N   1      21.305  17.415   3.136  0.00  0.00     0.004 A 
HETATM   15  C   UNK N   1      21.564  18.589   3.840  0.00  0.00     0.020 A 
HETATM   16  C   UNK N   1      21.465  18.589   5.233  0.00  0.00     0.124 A 
HETATM   17  N   UNK N   1      21.124  17.452   5.898  0.00  0.00    -0.229 N 
BRANCH  17  18
HETATM   18  O   UNK N   1      21.045  17.485   7.226  0.00  0.00    -0.282 OA
ATOM     19  HO  UNK N   1      21.419  16.767   7.725  1.00  0.00     0.245 HD
ENDBRANCH  17  18
ENDBRANCH  11  12
ENDBRANCH  10  11
TORSDOF 3
ENDMDL
MODEL 8
REMARK VINA RESULT:      -5.6      3.076      8.272
REMARK  3 active torsions:
REMARK  status: ('A' for Active; 'I' for Inactive)
REMARK    1  A    between atoms: Zn_10  and  S_11 
REMARK    2  A    between atoms: S_11  and  C_12 
REMARK    3  A    between atoms: N_17  and  O_18 
ROOT
HETATM    1  O   UNK N   1      33.495  14.945  11.170  0.00  0.00    -0.282 OA
ATOM      2  HO  UNK N   1      33.206  15.363  10.368  1.00  0.00     0.245 HD
HETATM    3  N   UNK N   1      34.709  14.407  11.206  0.00  0.00    -0.229 N 
HETATM    4  C   UNK N   1      35.122  13.808  12.357  0.00  0.00     0.124 A 
HETATM    5  C   UNK N   1      36.392  13.235  12.441  0.00  0.00     0.020 A 
HETATM    6  C   UNK N   1      37.236  13.282  11.335  0.00  0.00     0.004 A 
HETATM    7  C   UNK N   1      36.802  13.894  10.163  0.00  0.00     0.040 A 
HETATM    8  C   UNK N   1      35.525  14.457  10.107  0.00  0.00     0.109 A 
HETATM    9  S   UNK N   1      35.024  15.234   8.567  0.00  0.00    -0.030 SA
HETATM   10 Zn   UNK N   1      32.831  15.515   8.868  0.00  0.00     0.000 Zn
ENDROOT
BRANCH  10  11
HETATM   11  S   UNK N   1      32.486  17.669   8.391  0.00  0.00    -0.030 SA
BRANCH  11  12
HETATM   12  C   UNK N   1      32.229  17.397   6.645  0.00  0.00     0.109 A 
HETATM   13  C   UNK N   1      33.325  17.482   5.783  0.00  0.00     0.040 A 
HETATM   14  C   UNK N   1      33.137  17.300   4.415  0.00  0.00     0.004 A 
HETATM   15  C   UNK N   1      31.860  17.034   3.923  0.00  0.00     0.020 A 
HETATM   16  C   UNK N   1      30.787  16.953   4.812  0.00  0.00     0.124 A 
HETATM   17  N   UNK N   1      30.984  17.135   6.146  0.00  0.00    -0.229 N 
BRANCH  17  18
HETATM   18  O   UNK N   1      29.938  17.057   6.965  0.00  0.00    -0.282 OA
ATOM     19  HO  UNK N   1      29.266  16.409   6.789  1.00  0.00     0.245 HD
ENDBRANCH  17  18
ENDBRANCH  11  12
ENDBRANCH  10  11
TORSDOF 3
ENDMDL
MODEL 9
REMARK VINA RESULT:      -5.6      4.614      7.379
REMARK  3 active torsions:
REMARK  status: ('A' for Active; 'I' for Inactive)
REMARK    1  A    between atoms: Zn_10  and  S_11 
REMARK    2  A    between atoms: S_11  and  C_12 
REMARK    3  A    between atoms: N_17  and  O_18 
ROOT
HETATM    1  O   UNK N   1      37.246  14.200  14.391  0.00  0.00    -0.282 OA
ATOM      2  HO  UNK N   1      36.995  13.493  13.809  1.00  0.00     0.245 HD
HETATM    3  N   UNK N   1      36.676  14.270  15.589  0.00  0.00    -0.229 N 
HETATM    4  C   UNK N   1      37.036  15.283  16.424  0.00  0.00     0.124 A 
HETATM    5  C   UNK N   1      36.466  15.392  17.693  0.00  0.00     0.020 A 
HETATM    6  C   UNK N   1      35.524  14.450  18.101  0.00  0.00     0.004 A 
HETATM    7  C   UNK N   1      35.163  13.420  17.238  0.00  0.00     0.040 A 
HETATM    8  C   UNK N   1      35.747  13.338  15.973  0.00  0.00     0.109 A 
HETATM    9  S   UNK N   1      35.239  11.985  14.906  0.00  0.00    -0.030 SA
HETATM   10 Zn   UNK N   1      36.082  12.594  12.932  0.00  0.00     0.000 Zn
ENDROOT
BRANCH  10  11
HETATM   11  S   UNK N   1      37.221  10.800  12.247  0.00  0.00    -0.030 SA
BRANCH  11  12
HETATM   12  C   UNK N   1      37.945  11.613  10.831  0.00  0.00     0.109 A 
HETATM   13  C   UNK N   1      38.457  10.829   9.795  0.00  0.00     0.040 A 
HETATM   14  C   UNK N   1      39.049  11.447   8.696  0.00  0.00     0.004 A 
HETATM   15  C   UNK N   1      39.124  12.837   8.643  0.00  0.00     0.020 A 
HETATM   16  C   UNK N   1      38.600  13.592   9.694  0.00  0.00     0.124 A 
HETATM   17  N   UNK N   1      38.025  12.976  10.763  0.00  0.00    -0.229 N 
BRANCH  17  18
HETATM   18  O   UNK N   1      37.541  13.725  11.751  0.00  0.00    -0.282 OA
ATOM     19  HO  UNK N   1      37.449  13.339  12.615  1.00  0.00     0.245 HD
ENDBRANCH  17  18
ENDBRANCH  11  12
ENDBRANCH  10  11
TORSDOF 3
ENDMDL
