MODEL 1
REMARK VINA RESULT:      -6.5      0.000      0.000
REMARK  6 active torsions:
REMARK  status: ('A' for Active; 'I' for Inactive)
REMARK    1  A    between atoms: C_6  and  C_7 
REMARK    2  A    between atoms: C_7  and  S_8 
REMARK    3  A    between atoms: S_8  and  C_9 
REMARK    4  A    between atoms: C_9  and  C_10 
REMARK    5  A    between atoms: C_9  and  C_17 
REMARK    6  A    between atoms: C_10  and  N_11 
ROOT
HETATM    1  C   UNK N   1      21.661  17.985   4.539  0.00  0.00     0.100 C 
ENDROOT
BRANCH   1   2
HETATM    2  S   UNK N   1      21.275  17.786   6.314  0.00  0.00    -0.153 SA
BRANCH   2   3
HETATM    3  C   UNK N   1      21.234  15.983   6.062  0.00  0.00     0.113 C 
BRANCH   3   4
HETATM    4  C   UNK N   1      21.562  15.202   7.281  0.00  0.00    -0.049 A 
HETATM    5  C   UNK N   1      20.687  15.238   8.371  0.00  0.00     0.009 A 
HETATM    6  C   UNK N   1      20.935  14.445   9.494  0.00  0.00     0.024 A 
HETATM    7  C   UNK N   1      22.051  13.605   9.522  0.00  0.00     0.034 A 
HETATM    8  C   UNK N   1      22.925  13.563   8.430  0.00  0.00     0.024 A 
HETATM    9 Cl   UNK N   1      22.345  12.594  10.919  0.00  0.00    -0.084 Cl
HETATM   10  C   UNK N   1      22.679  14.361   7.307  0.00  0.00     0.009 A 
ENDBRANCH   3   4
ENDBRANCH   2   3
ENDBRANCH   1   2
BRANCH   1  11
HETATM   11  C   UNK N   1      21.467  16.648   3.789  0.00  0.00     0.149 C 
BRANCH  11  12
HETATM   12  N   UNK N   1      20.707  16.711   2.541  0.00  0.00    -0.350 N 
HETATM   13  C   UNK N   1      20.707  15.741   1.613  0.00  0.00     0.108 A 
HETATM   14  C   UNK N   1      19.868  16.136   0.591  0.00  0.00     0.106 A 
HETATM   15  N   UNK N   1      19.358  17.347   0.898  0.00  0.00    -0.361 N 
HETATM   16  C   UNK N   1      19.887  17.678   2.092  0.00  0.00     0.182 A 
ATOM     17  HN  UNK N   1      18.706  17.899   0.341  1.00  0.00     0.166 HD
ENDBRANCH  11  12
ENDBRANCH   1  11
BRANCH   1  18
HETATM   18  C   UNK N   1      23.043  18.594   4.284  0.00  0.00    -0.021 A 
HETATM   19  C   UNK N   1      23.252  19.721   3.441  0.00  0.00     0.043 A 
HETATM   20  C   UNK N   1      24.549  20.201   3.226  0.00  0.00     0.048 A 
HETATM   21 Cl   UNK N   1      21.961  20.574   2.614  0.00  0.00    -0.084 Cl
HETATM   22  C   UNK N   1      25.646  19.584   3.822  0.00  0.00     0.035 A 
HETATM   23  C   UNK N   1      25.458  18.480   4.647  0.00  0.00     0.024 A 
HETATM   24 Cl   UNK N   1      27.259  20.194   3.524  0.00  0.00    -0.084 Cl
HETATM   25  C   UNK N   1      24.171  17.992   4.876  0.00  0.00     0.012 A 
ENDBRANCH   1  18
TORSDOF 6
ENDMDL
MODEL 2
REMARK VINA RESULT:      -6.4      8.949     12.019
REMARK  6 active torsions:
REMARK  status: ('A' for Active; 'I' for Inactive)
REMARK    1  A    between atoms: C_6  and  C_7 
REMARK    2  A    between atoms: C_7  and  S_8 
REMARK    3  A    between atoms: S_8  and  C_9 
REMARK    4  A    between atoms: C_9  and  C_10 
REMARK    5  A    between atoms: C_9  and  C_17 
REMARK    6  A    between atoms: C_10  and  N_11 
ROOT
HETATM    1  C   UNK N   1      32.783  16.795   8.412  0.00  0.00     0.100 C 
ENDROOT
BRANCH   1   2
HETATM    2  S   UNK N   1      31.545  18.102   8.732  0.00  0.00    -0.153 SA
BRANCH   2   3
HETATM    3  C   UNK N   1      30.263  16.995   8.064  0.00  0.00     0.113 C 
BRANCH   3   4
HETATM    4  C   UNK N   1      29.431  17.616   7.003  0.00  0.00    -0.049 A 
HETATM    5  C   UNK N   1      28.537  18.634   7.344  0.00  0.00     0.009 A 
HETATM    6  C   UNK N   1      27.807  19.288   6.348  0.00  0.00     0.024 A 
HETATM    7  C   UNK N   1      27.981  18.932   5.008  0.00  0.00     0.034 A 
HETATM    8  C   UNK N   1      28.880  17.916   4.664  0.00  0.00     0.024 A 
HETATM    9 Cl   UNK N   1      27.086  19.769   3.761  0.00  0.00    -0.084 Cl
HETATM   10  C   UNK N   1      29.607  17.259   5.662  0.00  0.00     0.009 A 
ENDBRANCH   3   4
ENDBRANCH   2   3
ENDBRANCH   1   2
BRANCH   1  11
HETATM   11  C   UNK N   1      34.123  17.138   9.100  0.00  0.00     0.149 C 
BRANCH  11  12
HETATM   12  N   UNK N   1      34.574  16.209  10.136  0.00  0.00    -0.350 N 
HETATM   13  C   UNK N   1      35.645  16.420  10.918  0.00  0.00     0.108 A 
HETATM   14  C   UNK N   1      35.752  15.350  11.783  0.00  0.00     0.106 A 
HETATM   15  N   UNK N   1      34.745  14.488  11.526  0.00  0.00    -0.361 N 
HETATM   16  C   UNK N   1      34.041  15.034  10.516  0.00  0.00     0.182 A 
ATOM     17  HN  UNK N   1      34.555  13.606  12.001  1.00  0.00     0.166 HD
ENDBRANCH  11  12
ENDBRANCH   1  11
BRANCH   1  18
HETATM   18  C   UNK N   1      32.962  16.483   6.924  0.00  0.00    -0.021 A 
HETATM   19  C   UNK N   1      32.963  15.158   6.402  0.00  0.00     0.043 A 
HETATM   20  C   UNK N   1      33.168  14.947   5.034  0.00  0.00     0.048 A 
HETATM   21 Cl   UNK N   1      32.727  13.723   7.384  0.00  0.00    -0.084 Cl
HETATM   22  C   UNK N   1      33.383  16.018   4.171  0.00  0.00     0.035 A 
HETATM   23  C   UNK N   1      33.388  17.318   4.666  0.00  0.00     0.024 A 
HETATM   24 Cl   UNK N   1      33.655  15.725   2.467  0.00  0.00    -0.084 Cl
HETATM   25  C   UNK N   1      33.179  17.547   6.026  0.00  0.00     0.012 A 
ENDBRANCH   1  18
TORSDOF 6
ENDMDL
MODEL 3
REMARK VINA RESULT:      -6.3      5.837      8.590
REMARK  6 active torsions:
REMARK  status: ('A' for Active; 'I' for Inactive)
REMARK    1  A    between atoms: C_6  and  C_7 
REMARK    2  A    between atoms: C_7  and  S_8 
REMARK    3  A    between atoms: S_8  and  C_9 
REMARK    4  A    between atoms: C_9  and  C_10 
REMARK    5  A    between atoms: C_9  and  C_17 
REMARK    6  A    between atoms: C_10  and  N_11 
ROOT
HETATM    1  C   UNK N   1      28.306  16.086   5.449  0.00  0.00     0.100 C 
ENDROOT
BRANCH   1   2
HETATM    2  S   UNK N   1      29.731  15.728   4.362  0.00  0.00    -0.153 SA
BRANCH   2   3
HETATM    3  C   UNK N   1      30.626  15.088   5.814  0.00  0.00     0.113 C 
BRANCH   3   4
HETATM    4  C   UNK N   1      31.594  16.053   6.392  0.00  0.00    -0.049 A 
HETATM    5  C   UNK N   1      31.594  16.277   7.772  0.00  0.00     0.009 A 
HETATM    6  C   UNK N   1      32.550  17.118   8.345  0.00  0.00     0.024 A 
HETATM    7  C   UNK N   1      33.518  17.725   7.540  0.00  0.00     0.034 A 
HETATM    8  C   UNK N   1      33.523  17.497   6.159  0.00  0.00     0.024 A 
HETATM    9 Cl   UNK N   1      34.731  18.757   8.263  0.00  0.00    -0.084 Cl
HETATM   10  C   UNK N   1      32.562  16.659   5.585  0.00  0.00     0.009 A 
ENDBRANCH   3   4
ENDBRANCH   2   3
ENDBRANCH   1   2
BRANCH   1  11
HETATM   11  C   UNK N   1      27.032  15.392   4.918  0.00  0.00     0.149 C 
BRANCH  11  12
HETATM   12  N   UNK N   1      26.290  14.578   5.881  0.00  0.00    -0.350 N 
HETATM   13  C   UNK N   1      25.761  15.059   7.017  0.00  0.00     0.108 A 
HETATM   14  C   UNK N   1      25.123  14.016   7.658  0.00  0.00     0.106 A 
HETATM   15  N   UNK N   1      25.265  12.901   6.910  0.00  0.00    -0.361 N 
HETATM   16  C   UNK N   1      25.984  13.270   5.832  0.00  0.00     0.182 A 
ATOM     17  HN  UNK N   1      24.903  11.971   7.117  1.00  0.00     0.166 HD
ENDBRANCH  11  12
ENDBRANCH   1  11
BRANCH   1  18
HETATM   18  C   UNK N   1      28.089  17.583   5.690  0.00  0.00    -0.021 A 
HETATM   19  C   UNK N   1      28.046  18.163   6.990  0.00  0.00     0.043 A 
HETATM   20  C   UNK N   1      27.808  19.534   7.135  0.00  0.00     0.048 A 
HETATM   21 Cl   UNK N   1      28.266  17.250   8.473  0.00  0.00    -0.084 Cl
HETATM   22  C   UNK N   1      27.603  20.344   6.021  0.00  0.00     0.035 A 
HETATM   23  C   UNK N   1      27.640  19.792   4.745  0.00  0.00     0.024 A 
HETATM   24 Cl   UNK N   1      27.290  22.053   6.231  0.00  0.00    -0.084 Cl
HETATM   25  C   UNK N   1      27.881  18.428   4.582  0.00  0.00     0.012 A 
ENDBRANCH   1  18
TORSDOF 6
ENDMDL
MODEL 4
REMARK VINA RESULT:      -6.3     13.877     15.511
REMARK  6 active torsions:
REMARK  status: ('A' for Active; 'I' for Inactive)
REMARK    1  A    between atoms: C_6  and  C_7 
REMARK    2  A    between atoms: C_7  and  S_8 
REMARK    3  A    between atoms: S_8  and  C_9 
REMARK    4  A    between atoms: C_9  and  C_10 
REMARK    5  A    between atoms: C_9  and  C_17 
REMARK    6  A    between atoms: C_10  and  N_11 
ROOT
HETATM    1  C   UNK N   1      28.151  24.075  -6.363  0.00  0.00     0.100 C 
ENDROOT
BRANCH   1   2
HETATM    2  S   UNK N   1      26.579  23.426  -7.032  0.00  0.00    -0.153 SA
BRANCH   2   3
HETATM    3  C   UNK N   1      25.817  23.705  -5.402  0.00  0.00     0.113 C 
BRANCH   3   4
HETATM    4  C   UNK N   1      25.796  25.130  -4.988  0.00  0.00    -0.049 A 
HETATM    5  C   UNK N   1      26.425  25.505  -3.798  0.00  0.00     0.009 A 
HETATM    6  C   UNK N   1      26.488  26.852  -3.433  0.00  0.00     0.024 A 
HETATM    7  C   UNK N   1      25.935  27.827  -4.267  0.00  0.00     0.034 A 
HETATM    8  C   UNK N   1      25.310  27.454  -5.462  0.00  0.00     0.024 A 
HETATM    9 Cl   UNK N   1      26.039  29.515  -3.822  0.00  0.00    -0.084 Cl
HETATM   10  C   UNK N   1      25.242  26.104  -5.824  0.00  0.00     0.009 A 
ENDBRANCH   3   4
ENDBRANCH   2   3
ENDBRANCH   1   2
BRANCH   1  11
HETATM   11  C   UNK N   1      28.832  25.007  -7.389  0.00  0.00     0.149 C 
BRANCH  11  12
HETATM   12  N   UNK N   1      28.756  26.442  -7.109  0.00  0.00    -0.350 N 
HETATM   13  C   UNK N   1      28.168  27.333  -7.922  0.00  0.00     0.108 A 
HETATM   14  C   UNK N   1      28.271  28.575  -7.329  0.00  0.00     0.106 A 
HETATM   15  N   UNK N   1      28.923  28.437  -6.154  0.00  0.00    -0.361 N 
HETATM   16  C   UNK N   1      29.210  27.126  -6.044  0.00  0.00     0.182 A 
ATOM     17  HN  UNK N   1      29.150  29.174  -5.487  1.00  0.00     0.166 HD
ENDBRANCH  11  12
ENDBRANCH   1  11
BRANCH   1  18
HETATM   18  C   UNK N   1      29.096  22.977  -5.866  0.00  0.00    -0.021 A 
HETATM   19  C   UNK N   1      29.867  23.095  -4.674  0.00  0.00     0.043 A 
HETATM   20  C   UNK N   1      30.737  22.066  -4.300  0.00  0.00     0.048 A 
HETATM   21 Cl   UNK N   1      29.809  24.490  -3.611  0.00  0.00    -0.084 Cl
HETATM   22  C   UNK N   1      30.869  20.923  -5.085  0.00  0.00     0.035 A 
HETATM   23  C   UNK N   1      30.125  20.793  -6.254  0.00  0.00     0.024 A 
HETATM   24 Cl   UNK N   1      31.977  19.657  -4.604  0.00  0.00    -0.084 Cl
HETATM   25  C   UNK N   1      29.249  21.808  -6.638  0.00  0.00     0.012 A 
ENDBRANCH   1  18
TORSDOF 6
ENDMDL
MODEL 5
REMARK VINA RESULT:      -6.3      6.162      9.231
REMARK  6 active torsions:
REMARK  status: ('A' for Active; 'I' for Inactive)
REMARK    1  A    between atoms: C_6  and  C_7 
REMARK    2  A    between atoms: C_7  and  S_8 
REMARK    3  A    between atoms: S_8  and  C_9 
REMARK    4  A    between atoms: C_9  and  C_10 
REMARK    5  A    between atoms: C_9  and  C_17 
REMARK    6  A    between atoms: C_10  and  N_11 
ROOT
HETATM    1  C   UNK N   1      28.214  17.445   5.543  0.00  0.00     0.100 C 
ENDROOT
BRANCH   1   2
HETATM    2  S   UNK N   1      28.598  15.930   4.597  0.00  0.00    -0.153 SA
BRANCH   2   3
HETATM    3  C   UNK N   1      30.063  16.774   3.917  0.00  0.00     0.113 C 
BRANCH   3   4
HETATM    4  C   UNK N   1      31.312  16.500   4.669  0.00  0.00    -0.049 A 
HETATM    5  C   UNK N   1      32.289  17.496   4.758  0.00  0.00     0.009 A 
HETATM    6  C   UNK N   1      33.434  17.288   5.530  0.00  0.00     0.024 A 
HETATM    7  C   UNK N   1      33.597  16.088   6.226  0.00  0.00     0.034 A 
HETATM    8  C   UNK N   1      32.618  15.091   6.143  0.00  0.00     0.024 A 
HETATM    9 Cl   UNK N   1      35.019  15.839   7.213  0.00  0.00    -0.084 Cl
HETATM   10  C   UNK N   1      31.474  15.298   5.365  0.00  0.00     0.009 A 
ENDBRANCH   3   4
ENDBRANCH   2   3
ENDBRANCH   1   2
BRANCH   1  11
HETATM   11  C   UNK N   1      27.889  17.098   7.013  0.00  0.00     0.149 C 
BRANCH  11  12
HETATM   12  N   UNK N   1      28.826  17.599   8.018  0.00  0.00    -0.350 N 
HETATM   13  C   UNK N   1      28.453  18.256   9.128  0.00  0.00     0.108 A 
HETATM   14  C   UNK N   1      29.595  18.555   9.843  0.00  0.00     0.106 A 
HETATM   15  N   UNK N   1      30.662  18.080   9.167  0.00  0.00    -0.361 N 
HETATM   16  C   UNK N   1      30.167  17.503   8.055  0.00  0.00     0.182 A 
ATOM     17  HN  UNK N   1      31.642  18.143   9.441  1.00  0.00     0.166 HD
ENDBRANCH  11  12
ENDBRANCH   1  11
BRANCH   1  18
HETATM   18  C   UNK N   1      27.121  18.301   4.897  0.00  0.00    -0.021 A 
HETATM   19  C   UNK N   1      26.910  19.671   5.226  0.00  0.00     0.043 A 
HETATM   20  C   UNK N   1      25.868  20.381   4.620  0.00  0.00     0.048 A 
HETATM   21 Cl   UNK N   1      27.888  20.558   6.381  0.00  0.00    -0.084 Cl
HETATM   22  C   UNK N   1      25.022  19.764   3.702  0.00  0.00     0.035 A 
HETATM   23  C   UNK N   1      25.213  18.426   3.372  0.00  0.00     0.024 A 
HETATM   24 Cl   UNK N   1      23.715  20.670   2.973  0.00  0.00    -0.084 Cl
HETATM   25  C   UNK N   1      26.251  17.704   3.962  0.00  0.00     0.012 A 
ENDBRANCH   1  18
TORSDOF 6
ENDMDL
MODEL 6
REMARK VINA RESULT:      -6.2      2.392      3.095
REMARK  6 active torsions:
REMARK  status: ('A' for Active; 'I' for Inactive)
REMARK    1  A    between atoms: C_6  and  C_7 
REMARK    2  A    between atoms: C_7  and  S_8 
REMARK    3  A    between atoms: S_8  and  C_9 
REMARK    4  A    between atoms: C_9  and  C_10 
REMARK    5  A    between atoms: C_9  and  C_17 
REMARK    6  A    between atoms: C_10  and  N_11 
ROOT
HETATM    1  C   UNK N   1      20.547  17.036   4.475  0.00  0.00     0.100 C 
ENDROOT
BRANCH   1   2
HETATM    2  S   UNK N   1      19.504  15.879   5.430  0.00  0.00    -0.153 SA
BRANCH   2   3
HETATM    3  C   UNK N   1      20.312  16.471   6.952  0.00  0.00     0.113 C 
BRANCH   3   4
HETATM    4  C   UNK N   1      20.879  15.384   7.788  0.00  0.00    -0.049 A 
HETATM    5  C   UNK N   1      20.281  15.083   9.015  0.00  0.00     0.009 A 
HETATM    6  C   UNK N   1      20.748  14.011   9.779  0.00  0.00     0.024 A 
HETATM    7  C   UNK N   1      21.806  13.229   9.308  0.00  0.00     0.034 A 
HETATM    8  C   UNK N   1      22.403  13.525   8.077  0.00  0.00     0.024 A 
HETATM    9 Cl   UNK N   1      22.373  11.870  10.252  0.00  0.00    -0.084 Cl
HETATM   10  C   UNK N   1      21.938  14.602   7.316  0.00  0.00     0.009 A 
ENDBRANCH   3   4
ENDBRANCH   2   3
ENDBRANCH   1   2
BRANCH   1  11
HETATM   11  C   UNK N   1      19.728  17.693   3.341  0.00  0.00     0.149 C 
BRANCH  11  12
HETATM   12  N   UNK N   1      20.236  18.967   2.832  0.00  0.00    -0.350 N 
HETATM   13  C   UNK N   1      20.541  19.191   1.544  0.00  0.00     0.108 A 
HETATM   14  C   UNK N   1      20.967  20.499   1.434  0.00  0.00     0.106 A 
HETATM   15  N   UNK N   1      20.920  21.071   2.656  0.00  0.00    -0.361 N 
HETATM   16  C   UNK N   1      20.473  20.114   3.493  0.00  0.00     0.182 A 
ATOM     17  HN  UNK N   1      21.170  22.029   2.897  1.00  0.00     0.166 HD
ENDBRANCH  11  12
ENDBRANCH   1  11
BRANCH   1  18
HETATM   18  C   UNK N   1      21.840  16.400   3.957  0.00  0.00    -0.021 A 
HETATM   19  C   UNK N   1      23.127  16.968   4.173  0.00  0.00     0.043 A 
HETATM   20  C   UNK N   1      24.263  16.349   3.639  0.00  0.00     0.048 A 
HETATM   21 Cl   UNK N   1      23.401  18.444   5.081  0.00  0.00    -0.084 Cl
HETATM   22  C   UNK N   1      24.152  15.182   2.888  0.00  0.00     0.035 A 
HETATM   23  C   UNK N   1      22.901  14.615   2.665  0.00  0.00     0.024 A 
HETATM   24 Cl   UNK N   1      25.586  14.437   2.217  0.00  0.00    -0.084 Cl
HETATM   25  C   UNK N   1      21.759  15.217   3.195  0.00  0.00     0.012 A 
ENDBRANCH   1  18
TORSDOF 6
ENDMDL
MODEL 7
REMARK VINA RESULT:      -6.2      5.710      8.688
REMARK  6 active torsions:
REMARK  status: ('A' for Active; 'I' for Inactive)
REMARK    1  A    between atoms: C_6  and  C_7 
REMARK    2  A    between atoms: C_7  and  S_8 
REMARK    3  A    between atoms: S_8  and  C_9 
REMARK    4  A    between atoms: C_9  and  C_10 
REMARK    5  A    between atoms: C_9  and  C_17 
REMARK    6  A    between atoms: C_10  and  N_11 
ROOT
HETATM    1  C   UNK N   1      29.537  16.777   5.216  0.00  0.00     0.100 C 
ENDROOT
BRANCH   1   2
HETATM    2  S   UNK N   1      28.054  17.524   5.982  0.00  0.00    -0.153 SA
BRANCH   2   3
HETATM    3  C   UNK N   1      28.082  18.806   4.689  0.00  0.00     0.113 C 
BRANCH   3   4
HETATM    4  C   UNK N   1      26.738  19.152   4.162  0.00  0.00    -0.049 A 
HETATM    5  C   UNK N   1      25.631  18.404   4.570  0.00  0.00     0.009 A 
HETATM    6  C   UNK N   1      24.348  18.765   4.151  0.00  0.00     0.024 A 
HETATM    7  C   UNK N   1      24.171  19.883   3.334  0.00  0.00     0.034 A 
HETATM    8  C   UNK N   1      25.278  20.637   2.928  0.00  0.00     0.024 A 
HETATM    9 Cl   UNK N   1      22.561  20.350   2.831  0.00  0.00    -0.084 Cl
HETATM   10  C   UNK N   1      26.563  20.272   3.344  0.00  0.00     0.009 A 
ENDBRANCH   3   4
ENDBRANCH   2   3
ENDBRANCH   1   2
BRANCH   1  11
HETATM   11  C   UNK N   1      29.363  15.248   5.078  0.00  0.00     0.149 C 
BRANCH  11  12
HETATM   12  N   UNK N   1      29.189  14.738   3.718  0.00  0.00    -0.350 N 
HETATM   13  C   UNK N   1      29.582  13.518   3.320  0.00  0.00     0.108 A 
HETATM   14  C   UNK N   1      29.240  13.379   1.990  0.00  0.00     0.106 A 
HETATM   15  N   UNK N   1      28.639  14.516   1.581  0.00  0.00    -0.361 N 
HETATM   16  C   UNK N   1      28.622  15.331   2.653  0.00  0.00     0.182 A 
ATOM     17  HN  UNK N   1      28.271  14.717   0.651  1.00  0.00     0.166 HD
ENDBRANCH  11  12
ENDBRANCH   1  11
BRANCH   1  18
HETATM   18  C   UNK N   1      30.839  17.147   5.932  0.00  0.00    -0.021 A 
HETATM   19  C   UNK N   1      32.081  17.304   5.254  0.00  0.00     0.043 A 
HETATM   20  C   UNK N   1      33.238  17.608   5.979  0.00  0.00     0.048 A 
HETATM   21 Cl   UNK N   1      32.274  17.127   3.519  0.00  0.00    -0.084 Cl
HETATM   22  C   UNK N   1      33.196  17.753   7.364  0.00  0.00     0.035 A 
HETATM   23  C   UNK N   1      31.991  17.600   8.041  0.00  0.00     0.024 A 
HETATM   24 Cl   UNK N   1      34.661  18.116   8.248  0.00  0.00    -0.084 Cl
HETATM   25  C   UNK N   1      30.826  17.302   7.333  0.00  0.00     0.012 A 
ENDBRANCH   1  18
TORSDOF 6
ENDMDL
MODEL 8
REMARK VINA RESULT:      -6.2      6.716      9.588
REMARK  6 active torsions:
REMARK  status: ('A' for Active; 'I' for Inactive)
REMARK    1  A    between atoms: C_6  and  C_7 
REMARK    2  A    between atoms: C_7  and  S_8 
REMARK    3  A    between atoms: S_8  and  C_9 
REMARK    4  A    between atoms: C_9  and  C_10 
REMARK    5  A    between atoms: C_9  and  C_17 
REMARK    6  A    between atoms: C_10  and  N_11 
ROOT
HETATM    1  C   UNK N   1      29.468  17.568   5.108  0.00  0.00     0.100 C 
ENDROOT
BRANCH   1   2
HETATM    2  S   UNK N   1      30.347  16.589   3.839  0.00  0.00    -0.153 SA
BRANCH   2   3
HETATM    3  C   UNK N   1      31.861  17.526   4.224  0.00  0.00     0.113 C 
BRANCH   3   4
HETATM    4  C   UNK N   1      32.714  16.885   5.256  0.00  0.00    -0.049 A 
HETATM    5  C   UNK N   1      33.466  17.689   6.116  0.00  0.00     0.009 A 
HETATM    6  C   UNK N   1      34.210  17.109   7.146  0.00  0.00     0.024 A 
HETATM    7  C   UNK N   1      34.190  15.723   7.326  0.00  0.00     0.034 A 
HETATM    8  C   UNK N   1      33.433  14.917   6.469  0.00  0.00     0.024 A 
HETATM    9 Cl   UNK N   1      35.100  15.000   8.633  0.00  0.00    -0.084 Cl
HETATM   10  C   UNK N   1      32.693  15.498   5.434  0.00  0.00     0.009 A 
ENDBRANCH   3   4
ENDBRANCH   2   3
ENDBRANCH   1   2
BRANCH   1  11
HETATM   11  C   UNK N   1      29.199  16.709   6.364  0.00  0.00     0.149 C 
BRANCH  11  12
HETATM   12  N   UNK N   1      29.165  17.423   7.640  0.00  0.00    -0.350 N 
HETATM   13  C   UNK N   1      30.256  17.895   8.264  0.00  0.00     0.108 A 
HETATM   14  C   UNK N   1      29.841  18.523   9.420  0.00  0.00     0.106 A 
HETATM   15  N   UNK N   1      28.496  18.432   9.500  0.00  0.00    -0.361 N 
HETATM   16  C   UNK N   1      28.108  17.754   8.402  0.00  0.00     0.182 A 
ATOM     17  HN  UNK N   1      27.897  18.801  10.237  1.00  0.00     0.166 HD
ENDBRANCH  11  12
ENDBRANCH   1  11
BRANCH   1  18
HETATM   18  C   UNK N   1      28.194  18.235   4.582  0.00  0.00    -0.021 A 
HETATM   19  C   UNK N   1      27.097  17.503   4.046  0.00  0.00     0.043 A 
HETATM   20  C   UNK N   1      25.979  18.184   3.551  0.00  0.00     0.048 A 
HETATM   21 Cl   UNK N   1      27.048  15.752   3.948  0.00  0.00    -0.084 Cl
HETATM   22  C   UNK N   1      25.926  19.575   3.567  0.00  0.00     0.035 A 
HETATM   23  C   UNK N   1      26.991  20.305   4.085  0.00  0.00     0.024 A 
HETATM   24 Cl   UNK N   1      24.523  20.402   2.925  0.00  0.00    -0.084 Cl
HETATM   25  C   UNK N   1      28.111  19.642   4.588  0.00  0.00     0.012 A 
ENDBRANCH   1  18
TORSDOF 6
ENDMDL
MODEL 9
REMARK VINA RESULT:      -6.2     13.758     16.195
REMARK  6 active torsions:
REMARK  status: ('A' for Active; 'I' for Inactive)
REMARK    1  A    between atoms: C_6  and  C_7 
REMARK    2  A    between atoms: C_7  and  S_8 
REMARK    3  A    between atoms: S_8  and  C_9 
REMARK    4  A    between atoms: C_9  and  C_10 
REMARK    5  A    between atoms: C_9  and  C_17 
REMARK    6  A    between atoms: C_10  and  N_11 
ROOT
HETATM    1  C   UNK N   1      35.969  12.589  12.434  0.00  0.00     0.100 C 
ENDROOT
BRANCH   1   2
HETATM    2  S   UNK N   1      36.889  11.063  12.029  0.00  0.00    -0.153 SA
BRANCH   2   3
HETATM    3  C   UNK N   1      36.071  11.050  10.402  0.00  0.00     0.113 C 
BRANCH   3   4
HETATM    4  C   UNK N   1      34.807  10.273  10.376  0.00  0.00    -0.049 A 
HETATM    5  C   UNK N   1      33.672  10.833   9.782  0.00  0.00     0.009 A 
HETATM    6  C   UNK N   1      32.496  10.086   9.674  0.00  0.00     0.024 A 
HETATM    7  C   UNK N   1      32.459   8.772  10.148  0.00  0.00     0.034 A 
HETATM    8  C   UNK N   1      33.596   8.207  10.738  0.00  0.00     0.024 A 
HETATM    9 Cl   UNK N   1      30.995   7.829   9.988  0.00  0.00    -0.084 Cl
HETATM   10  C   UNK N   1      34.771   8.957  10.850  0.00  0.00     0.009 A 
ENDBRANCH   3   4
ENDBRANCH   2   3
ENDBRANCH   1   2
BRANCH   1  11
HETATM   11  C   UNK N   1      36.634  13.816  11.771  0.00  0.00     0.149 C 
BRANCH  11  12
HETATM   12  N   UNK N   1      35.729  14.794  11.166  0.00  0.00    -0.350 N 
HETATM   13  C   UNK N   1      34.685  14.468  10.388  0.00  0.00     0.108 A 
HETATM   14  C   UNK N   1      34.055  15.639  10.018  0.00  0.00     0.106 A 
HETATM   15  N   UNK N   1      34.717  16.676  10.573  0.00  0.00    -0.361 N 
HETATM   16  C   UNK N   1      35.736  16.135  11.266  0.00  0.00     0.182 A 
ATOM     17  HN  UNK N   1      34.491  17.667  10.485  1.00  0.00     0.166 HD
ENDBRANCH  11  12
ENDBRANCH   1  11
BRANCH   1  18
HETATM   18  C   UNK N   1      35.760  12.789  13.938  0.00  0.00    -0.021 A 
HETATM   19  C   UNK N   1      34.785  12.075  14.690  0.00  0.00     0.043 A 
HETATM   20  C   UNK N   1      34.627  12.336  16.055  0.00  0.00     0.048 A 
HETATM   21 Cl   UNK N   1      33.724  10.858  14.003  0.00  0.00    -0.084 Cl
HETATM   22  C   UNK N   1      35.408  13.297  16.693  0.00  0.00     0.035 A 
HETATM   23  C   UNK N   1      36.364  14.005  15.972  0.00  0.00     0.024 A 
HETATM   24 Cl   UNK N   1      35.179  13.616  18.398  0.00  0.00    -0.084 Cl
HETATM   25  C   UNK N   1      36.538  13.753  14.611  0.00  0.00     0.012 A 
ENDBRANCH   1  18
TORSDOF 6
ENDMDL
