MODEL 1
REMARK VINA RESULT:      -7.3      0.000      0.000
REMARK  0 active torsions:
REMARK  status: ('A' for Active; 'I' for Inactive)
ROOT
HETATM    1  C   UNK N   1      35.972  14.477   9.673  0.00  0.00     0.309 C 
HETATM    2  C   UNK N   1      28.501  18.476   9.071  0.00  0.00     0.001 A 
HETATM    3  C   UNK N   1      29.776  18.474   9.611  0.00  0.00     0.001 A 
HETATM    4  C   UNK N   1      28.301  17.982   7.790  0.00  0.00     0.008 A 
HETATM    5  C   UNK N   1      30.844  17.981   8.865  0.00  0.00     0.013 A 
HETATM    6  C   UNK N   1      28.996  16.990   5.687  0.00  0.00     0.044 C 
HETATM    7  C   UNK N   1      29.720  17.822   4.682  0.00  0.00     0.051 C 
HETATM    8  C   UNK N   1      34.455  16.340   6.843  0.00  0.00     0.065 C 
HETATM    9  C   UNK N   1      33.334  16.997   8.990  0.00  0.00     0.065 C 
HETATM   10  C   UNK N   1      32.971  15.935   4.614  0.00  0.00     0.020 A 
HETATM   11  C   UNK N   1      35.082  15.176   7.609  0.00  0.00     0.276 C 
HETATM   12  C   UNK N   1      34.023  15.796   9.635  0.00  0.00     0.276 C 
HETATM   13  C   UNK N   1      32.785  15.785   3.235  0.00  0.00     0.051 A 
HETATM   14  C   UNK N   1      29.366  17.482   7.029  0.00  0.00    -0.047 A 
HETATM   15  C   UNK N   1      33.167  16.765   7.507  0.00  0.00    -0.065 C 
HETATM   16  C   UNK N   1      30.701  17.467   7.558  0.00  0.00    -0.018 A 
HETATM   17  C   UNK N   1      31.942  16.663   5.299  0.00  0.00    -0.011 A 
HETATM   18  C   UNK N   1      30.948  17.076   4.397  0.00  0.00    -0.006 A 
HETATM   19  C   UNK N   1      31.964  16.946   6.812  0.00  0.00    -0.012 C 
HETATM   20  N   UNK N   1      35.318  15.580   8.994  0.00  0.00     0.084 N 
HETATM   21  S   UNK N   1      31.364  16.550   2.891  0.00  0.00    -0.106 SA
ENDROOT
TORSDOF 0
ENDMDL
MODEL 2
REMARK VINA RESULT:      -7.0     12.464     15.400
REMARK  0 active torsions:
REMARK  status: ('A' for Active; 'I' for Inactive)
ROOT
HETATM    1  C   UNK N   1      25.563  28.062  -4.349  0.00  0.00     0.309 C 
HETATM    2  C   UNK N   1      31.447  22.099  -2.937  0.00  0.00     0.001 A 
HETATM    3  C   UNK N   1      30.372  22.812  -2.433  0.00  0.00     0.001 A 
HETATM    4  C   UNK N   1      31.463  21.750  -4.281  0.00  0.00     0.008 A 
HETATM    5  C   UNK N   1      29.320  23.169  -3.273  0.00  0.00     0.013 A 
HETATM    6  C   UNK N   1      30.573  21.662  -6.537  0.00  0.00     0.044 C 
HETATM    7  C   UNK N   1      29.453  20.729  -6.852  0.00  0.00     0.051 C 
HETATM    8  C   UNK N   1      25.869  24.613  -5.687  0.00  0.00     0.065 C 
HETATM    9  C   UNK N   1      27.254  24.843  -3.607  0.00  0.00     0.065 C 
HETATM   10  C   UNK N   1      26.853  23.266  -7.822  0.00  0.00     0.020 A 
HETATM   11  C   UNK N   1      25.748  26.136  -5.690  0.00  0.00     0.276 C 
HETATM   12  C   UNK N   1      27.056  26.353  -3.727  0.00  0.00     0.276 C 
HETATM   13  C   UNK N   1      26.748  22.600  -9.047  0.00  0.00     0.051 A 
HETATM   14  C   UNK N   1      30.412  22.102  -5.137  0.00  0.00    -0.047 A 
HETATM   15  C   UNK N   1      27.128  24.194  -4.965  0.00  0.00    -0.065 C 
HETATM   16  C   UNK N   1      29.283  22.840  -4.645  0.00  0.00    -0.018 A 
HETATM   17  C   UNK N   1      27.796  22.707  -6.896  0.00  0.00    -0.011 A 
HETATM   18  C   UNK N   1      28.420  21.577  -7.449  0.00  0.00    -0.006 A 
HETATM   19  C   UNK N   1      28.053  23.284  -5.491  0.00  0.00    -0.012 C 
HETATM   20  N   UNK N   1      25.744  26.623  -4.312  0.00  0.00     0.084 N 
HETATM   21  S   UNK N   1      27.813  21.343  -8.965  0.00  0.00    -0.106 SA
ENDROOT
TORSDOF 0
ENDMDL
MODEL 3
REMARK VINA RESULT:      -6.9      9.289     12.336
REMARK  0 active torsions:
REMARK  status: ('A' for Active; 'I' for Inactive)
ROOT
HETATM    1  C   UNK N   1      37.588  12.651  11.207  0.00  0.00     0.309 C 
HETATM    2  C   UNK N   1      35.114  13.438  19.296  0.00  0.00     0.001 A 
HETATM    3  C   UNK N   1      34.937  13.843  17.984  0.00  0.00     0.001 A 
HETATM    4  C   UNK N   1      35.453  12.119  19.563  0.00  0.00     0.008 A 
HETATM    5  C   UNK N   1      35.098  12.926  16.947  0.00  0.00     0.013 A 
HETATM    6  C   UNK N   1      35.982   9.825  18.972  0.00  0.00     0.044 C 
HETATM    7  C   UNK N   1      34.889   8.903  18.545  0.00  0.00     0.051 C 
HETATM    8  C   UNK N   1      35.686  10.322  13.384  0.00  0.00     0.065 C 
HETATM    9  C   UNK N   1      35.574  12.646  14.325  0.00  0.00     0.065 C 
HETATM   10  C   UNK N   1      36.062   8.212  15.041  0.00  0.00     0.020 A 
HETATM   11  C   UNK N   1      36.797  10.824  12.464  0.00  0.00     0.276 C 
HETATM   12  C   UNK N   1      36.692  13.017  13.352  0.00  0.00     0.276 C 
HETATM   13  C   UNK N   1      36.050   6.853  15.370  0.00  0.00     0.051 A 
HETATM   14  C   UNK N   1      35.619  11.186  18.531  0.00  0.00    -0.047 A 
HETATM   15  C   UNK N   1      35.624  11.169  14.634  0.00  0.00    -0.065 C 
HETATM   16  C   UNK N   1      35.442  11.574  17.160  0.00  0.00    -0.018 A 
HETATM   17  C   UNK N   1      35.657   9.103  16.090  0.00  0.00    -0.011 A 
HETATM   18  C   UNK N   1      35.328   8.383  17.249  0.00  0.00    -0.006 A 
HETATM   19  C   UNK N   1      35.591  10.633  15.927  0.00  0.00    -0.012 C 
HETATM   20  N   UNK N   1      36.554  12.226  12.132  0.00  0.00     0.084 N 
HETATM   21  S   UNK N   1      35.544   6.777  16.938  0.00  0.00    -0.106 SA
ENDROOT
TORSDOF 0
ENDMDL
MODEL 4
REMARK VINA RESULT:      -6.9      3.300      6.884
REMARK  0 active torsions:
REMARK  status: ('A' for Active; 'I' for Inactive)
ROOT
HETATM    1  C   UNK N   1      25.035  15.861   3.164  0.00  0.00     0.309 C 
HETATM    2  C   UNK N   1      33.464  16.492   4.016  0.00  0.00     0.001 A 
HETATM    3  C   UNK N   1      32.346  16.812   3.264  0.00  0.00     0.001 A 
HETATM    4  C   UNK N   1      33.362  16.435   5.399  0.00  0.00     0.008 A 
HETATM    5  C   UNK N   1      31.134  17.076   3.899  0.00  0.00     0.013 A 
HETATM    6  C   UNK N   1      32.198  16.595   7.523  0.00  0.00     0.044 C 
HETATM    7  C   UNK N   1      31.866  17.938   8.083  0.00  0.00     0.051 C 
HETATM    8  C   UNK N   1      27.075  17.818   5.570  0.00  0.00     0.065 C 
HETATM    9  C   UNK N   1      28.475  17.188   3.585  0.00  0.00     0.065 C 
HETATM   10  C   UNK N   1      28.118  17.652   8.065  0.00  0.00     0.020 A 
HETATM   11  C   UNK N   1      26.038  16.814   5.069  0.00  0.00     0.276 C 
HETATM   12  C   UNK N   1      27.361  16.219   3.195  0.00  0.00     0.276 C 
HETATM   13  C   UNK N   1      28.151  17.927   9.436  0.00  0.00     0.051 A 
HETATM   14  C   UNK N   1      32.150  16.697   6.051  0.00  0.00    -0.047 A 
HETATM   15  C   UNK N   1      28.450  17.436   5.075  0.00  0.00    -0.065 C 
HETATM   16  C   UNK N   1      30.973  17.033   5.301  0.00  0.00    -0.018 A 
HETATM   17  C   UNK N   1      29.395  17.624   7.411  0.00  0.00    -0.011 A 
HETATM   18  C   UNK N   1      30.424  17.891   8.329  0.00  0.00    -0.006 A 
HETATM   19  C   UNK N   1      29.574  17.351   5.906  0.00  0.00    -0.012 C 
HETATM   20  N   UNK N   1      26.073  16.773   3.608  0.00  0.00     0.084 N 
HETATM   21  S   UNK N   1      29.744  18.129   9.813  0.00  0.00    -0.106 SA
ENDROOT
TORSDOF 0
ENDMDL
MODEL 5
REMARK VINA RESULT:      -6.8     13.097     15.409
REMARK  0 active torsions:
REMARK  status: ('A' for Active; 'I' for Inactive)
ROOT
HETATM    1  C   UNK N   1      31.555  21.982  -2.826  0.00  0.00     0.309 C 
HETATM    2  C   UNK N   1      26.637  28.884  -3.426  0.00  0.00     0.001 A 
HETATM    3  C   UNK N   1      27.919  28.381  -3.279  0.00  0.00     0.001 A 
HETATM    4  C   UNK N   1      25.726  28.207  -4.224  0.00  0.00     0.008 A 
HETATM    5  C   UNK N   1      28.283  27.207  -3.933  0.00  0.00     0.013 A 
HETATM    6  C   UNK N   1      25.002  26.419  -5.697  0.00  0.00     0.044 C 
HETATM    7  C   UNK N   1      25.456  26.405  -7.119  0.00  0.00     0.051 C 
HETATM    8  C   UNK N   1      29.745  23.408  -5.737  0.00  0.00     0.065 C 
HETATM    9  C   UNK N   1      30.016  25.163  -3.964  0.00  0.00     0.065 C 
HETATM   10  C   UNK N   1      27.395  23.185  -7.067  0.00  0.00     0.020 A 
HETATM   11  C   UNK N   1      30.170  22.382  -4.688  0.00  0.00     0.276 C 
HETATM   12  C   UNK N   1      30.425  24.039  -3.014  0.00  0.00     0.276 C 
HETATM   13  C   UNK N   1      26.579  22.747  -8.116  0.00  0.00     0.051 A 
HETATM   14  C   UNK N   1      26.078  27.024  -4.888  0.00  0.00    -0.047 A 
HETATM   15  C   UNK N   1      29.139  24.618  -5.066  0.00  0.00    -0.065 C 
HETATM   16  C   UNK N   1      27.399  26.477  -4.758  0.00  0.00    -0.018 A 
HETATM   17  C   UNK N   1      27.122  24.508  -6.585  0.00  0.00    -0.011 A 
HETATM   18  C   UNK N   1      26.061  25.085  -7.302  0.00  0.00    -0.006 A 
HETATM   19  C   UNK N   1      27.914  25.179  -5.447  0.00  0.00    -0.012 C 
HETATM   20  N   UNK N   1      31.123  22.999  -3.767  0.00  0.00     0.084 N 
HETATM   21  S   UNK N   1      25.544  23.993  -8.426  0.00  0.00    -0.106 SA
ENDROOT
TORSDOF 0
ENDMDL
MODEL 6
REMARK VINA RESULT:      -6.7     10.452     12.535
REMARK  0 active torsions:
REMARK  status: ('A' for Active; 'I' for Inactive)
ROOT
HETATM    1  C   UNK N   1      34.687   5.148  17.345  0.00  0.00     0.309 C 
HETATM    2  C   UNK N   1      35.026  13.404  19.320  0.00  0.00     0.001 A 
HETATM    3  C   UNK N   1      35.328  12.106  19.698  0.00  0.00     0.001 A 
HETATM    4  C   UNK N   1      35.092  13.756  17.979  0.00  0.00     0.008 A 
HETATM    5  C   UNK N   1      35.697  11.171  18.734  0.00  0.00     0.013 A 
HETATM    6  C   UNK N   1      35.482  13.348  15.619  0.00  0.00     0.044 C 
HETATM    7  C   UNK N   1      36.881  13.234  15.111  0.00  0.00     0.051 C 
HETATM    8  C   UNK N   1      36.753   7.885  15.922  0.00  0.00     0.065 C 
HETATM    9  C   UNK N   1      35.896   8.555  18.184  0.00  0.00     0.065 C 
HETATM   10  C   UNK N   1      36.756   9.679  13.893  0.00  0.00     0.020 A 
HETATM   11  C   UNK N   1      35.755   6.728  15.965  0.00  0.00     0.276 C 
HETATM   12  C   UNK N   1      34.946   7.362  18.099  0.00  0.00     0.276 C 
HETATM   13  C   UNK N   1      37.145  10.160  12.638  0.00  0.00     0.051 A 
HETATM   14  C   UNK N   1      35.460  12.825  16.999  0.00  0.00    -0.047 A 
HETATM   15  C   UNK N   1      36.271   9.019  16.796  0.00  0.00    -0.065 C 
HETATM   16  C   UNK N   1      35.781  11.472  17.358  0.00  0.00    -0.018 A 
HETATM   17  C   UNK N   1      36.618  10.674  14.918  0.00  0.00    -0.011 A 
HETATM   18  C   UNK N   1      36.917  11.949  14.411  0.00  0.00    -0.006 A 
HETATM   19  C   UNK N   1      36.210  10.350  16.367  0.00  0.00    -0.012 C 
HETATM   20  N   UNK N   1      35.588   6.286  17.348  0.00  0.00     0.084 N 
HETATM   21  S   UNK N   1      37.311  11.791  12.816  0.00  0.00    -0.106 SA
ENDROOT
TORSDOF 0
ENDMDL
MODEL 7
REMARK VINA RESULT:      -6.7      9.478     12.152
REMARK  0 active torsions:
REMARK  status: ('A' for Active; 'I' for Inactive)
ROOT
HETATM    1  C   UNK N   1      35.475   5.136  15.149  0.00  0.00     0.309 C 
HETATM    2  C   UNK N   1      35.327  12.268  19.764  0.00  0.00     0.001 A 
HETATM    3  C   UNK N   1      35.819  10.980  19.632  0.00  0.00     0.001 A 
HETATM    4  C   UNK N   1      35.120  13.039  18.628  0.00  0.00     0.008 A 
HETATM    5  C   UNK N   1      36.104  10.473  18.367  0.00  0.00     0.013 A 
HETATM    6  C   UNK N   1      35.127  13.476  16.241  0.00  0.00     0.044 C 
HETATM    7  C   UNK N   1      36.419  13.747  15.545  0.00  0.00     0.051 C 
HETATM    8  C   UNK N   1      36.973   8.468  14.487  0.00  0.00     0.065 C 
HETATM    9  C   UNK N   1      36.465   8.236  16.934  0.00  0.00     0.065 C 
HETATM   10  C   UNK N   1      36.438  10.798  13.213  0.00  0.00     0.020 A 
HETATM   11  C   UNK N   1      36.120   7.221  14.264  0.00  0.00     0.276 C 
HETATM   12  C   UNK N   1      35.640   7.003  16.574  0.00  0.00     0.276 C 
HETATM   13  C   UNK N   1      36.551  11.710  12.158  0.00  0.00     0.051 A 
HETATM   14  C   UNK N   1      35.401  12.540  17.349  0.00  0.00    -0.047 A 
HETATM   15  C   UNK N   1      36.542   9.173  15.752  0.00  0.00    -0.065 C 
HETATM   16  C   UNK N   1      35.914  11.210  17.178  0.00  0.00    -0.018 A 
HETATM   17  C   UNK N   1      36.384  11.377  14.524  0.00  0.00    -0.011 A 
HETATM   18  C   UNK N   1      36.460  12.777  14.449  0.00  0.00    -0.006 A 
HETATM   19  C   UNK N   1      36.272  10.546  15.816  0.00  0.00    -0.012 C 
HETATM   20  N   UNK N   1      36.243   6.337  15.422  0.00  0.00     0.084 N 
HETATM   21  S   UNK N   1      36.581  13.203  12.860  0.00  0.00    -0.106 SA
ENDROOT
TORSDOF 0
ENDMDL
MODEL 8
REMARK VINA RESULT:      -6.6     11.122     13.237
REMARK  0 active torsions:
REMARK  status: ('A' for Active; 'I' for Inactive)
ROOT
HETATM    1  C   UNK N   1      38.265   9.265  11.920  0.00  0.00     0.309 C 
HETATM    2  C   UNK N   1      35.280  13.821  18.440  0.00  0.00     0.001 A 
HETATM    3  C   UNK N   1      35.312  13.642  17.067  0.00  0.00     0.001 A 
HETATM    4  C   UNK N   1      35.312  12.711  19.273  0.00  0.00     0.008 A 
HETATM    5  C   UNK N   1      35.374  12.355  16.536  0.00  0.00     0.013 A 
HETATM    6  C   UNK N   1      35.405  10.337  19.764  0.00  0.00     0.044 C 
HETATM    7  C   UNK N   1      34.188   9.495  19.569  0.00  0.00     0.051 C 
HETATM    8  C   UNK N   1      35.731   8.415  14.495  0.00  0.00     0.065 C 
HETATM    9  C   UNK N   1      36.018  10.905  14.377  0.00  0.00     0.065 C 
HETATM   10  C   UNK N   1      35.508   7.195  16.904  0.00  0.00     0.020 A 
HETATM   11  C   UNK N   1      37.001   8.299  13.655  0.00  0.00     0.276 C 
HETATM   12  C   UNK N   1      37.273  10.649  13.544  0.00  0.00     0.276 C 
HETATM   13  C   UNK N   1      35.184   6.128  17.750  0.00  0.00     0.051 A 
HETATM   14  C   UNK N   1      35.375  11.412  18.753  0.00  0.00    -0.047 A 
HETATM   15  C   UNK N   1      35.732   9.716  15.263  0.00  0.00    -0.065 C 
HETATM   16  C   UNK N   1      35.408  11.192  17.335  0.00  0.00    -0.018 A 
HETATM   17  C   UNK N   1      35.202   8.500  17.414  0.00  0.00    -0.011 A 
HETATM   18  C   UNK N   1      34.626   8.408  18.691  0.00  0.00    -0.006 A 
HETATM   19  C   UNK N   1      35.470   9.802  16.636  0.00  0.00    -0.012 C 
HETATM   20  N   UNK N   1      37.085   9.440  12.746  0.00  0.00     0.084 N 
HETATM   21  S   UNK N   1      34.532   6.813  19.101  0.00  0.00    -0.106 SA
ENDROOT
TORSDOF 0
ENDMDL
MODEL 9
REMARK VINA RESULT:      -6.6      7.848     10.028
REMARK  0 active torsions:
REMARK  status: ('A' for Active; 'I' for Inactive)
ROOT
HETATM    1  C   UNK N   1      26.583  13.226   3.419  0.00  0.00     0.309 C 
HETATM    2  C   UNK N   1      23.563  11.953  11.257  0.00  0.00     0.001 A 
HETATM    3  C   UNK N   1      24.655  12.285  10.474  0.00  0.00     0.001 A 
HETATM    4  C   UNK N   1      22.295  12.369  10.873  0.00  0.00     0.008 A 
HETATM    5  C   UNK N   1      24.474  13.034   9.313  0.00  0.00     0.013 A 
HETATM    6  C   UNK N   1      20.696  13.488   9.430  0.00  0.00     0.044 C 
HETATM    7  C   UNK N   1      20.602  14.977   9.448  0.00  0.00     0.051 C 
HETATM    8  C   UNK N   1      24.258  15.269   5.469  0.00  0.00     0.065 C 
HETATM    9  C   UNK N   1      25.546  13.706   6.951  0.00  0.00     0.065 C 
HETATM   10  C   UNK N   1      21.610  15.654   5.890  0.00  0.00     0.020 A 
HETATM   11  C   UNK N   1      24.769  14.453   4.283  0.00  0.00     0.276 C 
HETATM   12  C   UNK N   1      25.984  12.977   5.681  0.00  0.00     0.276 C 
HETATM   13  C   UNK N   1      20.397  16.336   5.741  0.00  0.00     0.051 A 
HETATM   14  C   UNK N   1      22.099  13.122   9.707  0.00  0.00    -0.047 A 
HETATM   15  C   UNK N   1      24.234  14.416   6.715  0.00  0.00    -0.065 C 
HETATM   16  C   UNK N   1      23.210  13.485   8.874  0.00  0.00    -0.018 A 
HETATM   17  C   UNK N   1      21.848  15.098   7.191  0.00  0.00    -0.011 A 
HETATM   18  C   UNK N   1      20.772  15.376   8.050  0.00  0.00    -0.006 A 
HETATM   19  C   UNK N   1      23.124  14.322   7.564  0.00  0.00    -0.012 C 
HETATM   20  N   UNK N   1      26.102  13.939   4.588  0.00  0.00     0.084 N 
HETATM   21  S   UNK N   1      19.648  16.240   7.207  0.00  0.00    -0.106 SA
ENDROOT
TORSDOF 0
ENDMDL
