REMARK  5 active torsions:
REMARK  status: ('A' for Active; 'I' for Inactive)
REMARK    1  A    between atoms: C_31  and  N_19 
REMARK    2  A    between atoms: C_24  and  N_20 
REMARK    3  A    between atoms: C_22  and  N_25 
REMARK       I    between atoms: N_25  and  C_36 
REMARK    4  A    between atoms: C_33  and  O_34 
REMARK    5  A    between atoms: C_36  and  C_38 
ROOT
HETATM    1  O   UNK N   1      -0.178  -0.830   1.420  0.00  0.00    -0.333 OA
HETATM    2  C   UNK N   1      -0.525  -2.389  -0.837  0.00  0.00     0.124 C 
HETATM    3  C   UNK N   1       0.685  -1.465  -0.863  0.00  0.00     0.082 C 
HETATM    4  C   UNK N   1       0.886  -0.759   0.489  0.00  0.00     0.233 C 
HETATM    5  C   UNK N   1      -1.461  -0.631   0.840  0.00  0.00     0.168 C 
HETATM    6  C   UNK N   1      -2.428  -0.903   1.983  0.00  0.00     0.074 C 
HETATM    7  C   UNK N   1      -1.755  -1.717  -0.213  0.00  0.00     0.199 C 
ENDROOT
BRANCH   2   8
HETATM    8  N   UNK N   1      -0.412  -3.822  -0.496  0.00  0.00    -0.345 N 
HETATM    9  C   UNK N   1      -1.638  -4.583  -0.632  0.00  0.00     0.153 C 
HETATM   10  C   UNK N   1       0.738  -4.551  -0.240  0.00  0.00     0.253 C 
HETATM   11  O   UNK N   1       0.653  -5.772  -0.186  0.00  0.00    -0.267 OA
BRANCH  10  12
HETATM   12  C   UNK N   1       2.102  -4.000  -0.061  0.00  0.00     0.032 A 
HETATM   13  C   UNK N   1       3.168  -4.592  -0.756  0.00  0.00     0.017 A 
HETATM   14  C   UNK N   1       4.485  -4.186  -0.524  0.00  0.00     0.001 A 
HETATM   15  C   UNK N   1       4.754  -3.224   0.449  0.00  0.00     0.000 A 
HETATM   16  C   UNK N   1       3.708  -2.681   1.197  0.00  0.00     0.001 A 
HETATM   17  C   UNK N   1       2.389  -3.075   0.948  0.00  0.00     0.017 A 
ENDBRANCH  10  12
ENDBRANCH   2   8
BRANCH   7  18
HETATM   18  O   UNK N   1      -2.718  -1.357  -1.162  0.00  0.00    -0.384 OA
HETATM   19  C   UNK N   1      -3.803  -2.203  -0.920  0.00  0.00     0.202 C 
ENDBRANCH   7  18
BRANCH   5  20
HETATM   20  N   UNK N   1      -1.681   0.779   0.385  0.00  0.00    -0.308 N 
HETATM   21  C   UNK N   1      -0.757   1.763   0.214  0.00  0.00     0.077 A 
HETATM   22  C   UNK N   1       0.630   1.687   0.243  0.00  0.00     0.077 A 
HETATM   23  C   UNK N   1      -1.363   2.990  -0.023  0.00  0.00     0.015 A 
HETATM   24  N   UNK N   1       1.393   0.594   0.366  0.00  0.00    -0.316 N 
HETATM   25  C   UNK N   1       1.410   2.826   0.104  0.00  0.00     0.022 A 
HETATM   26  C   UNK N   1       2.676   1.026   0.320  0.00  0.00     0.048 A 
HETATM   27  C   UNK N   1       3.838   0.264   0.385  0.00  0.00     0.030 A 
HETATM   28  C   UNK N   1       2.720   2.400   0.165  0.00  0.00     0.004 A 
HETATM   29  C   UNK N   1       5.071   0.936   0.296  0.00  0.00     0.002 A 
HETATM   30  C   UNK N   1       5.114   2.340   0.144  0.00  0.00     0.001 A 
HETATM   31  C   UNK N   1       3.925   3.089   0.073  0.00  0.00     0.014 A 
HETATM   32  C   UNK N   1       0.792   4.075  -0.067  0.00  0.00     0.054 A 
HETATM   33  C   UNK N   1      -0.588   4.160  -0.148  0.00  0.00    -0.010 A 
HETATM   34  C   UNK N   1       1.289   5.409  -0.203  0.00  0.00     0.253 A 
HETATM   35  C   UNK N   1      -1.016   5.591  -0.349  0.00  0.00     0.163 A 
HETATM   36  N   UNK N   1       0.273   6.280  -0.358  0.00  0.00    -0.353 N 
HETATM   37  H   UNK N   1       0.384   7.253  -0.463  0.00  0.00     0.163 HD
HETATM   38  O   UNK N   1       2.461   5.745  -0.166  0.00  0.00    -0.268 OA
HETATM   39  C   UNK N   1      -2.711   2.751  -0.063  0.00  0.00     0.004 A 
HETATM   40  C   UNK N   1      -2.884   1.398   0.180  0.00  0.00     0.049 A 
HETATM   41  C   UNK N   1      -3.784   3.612  -0.271  0.00  0.00     0.014 A 
HETATM   42  C   UNK N   1      -4.164   0.842   0.241  0.00  0.00     0.030 A 
HETATM   43  C   UNK N   1      -5.267   1.688   0.021  0.00  0.00     0.002 A 
HETATM   44  C   UNK N   1      -5.078   3.064  -0.235  0.00  0.00     0.001 A 
BRANCH  24  45
ENDBRANCH  24  45
ENDBRANCH   5  20
TORSDOF 5
