MODEL 1
REMARK VINA RESULT:      -8.1      0.000      0.000
REMARK  4 active torsions:
REMARK  status: ('A' for Active; 'I' for Inactive)
REMARK    1  A    between atoms: N_5  and  N_6 
REMARK       I    between atoms: N_6  and  C_15 
REMARK    2  A    between atoms: N_7  and  C_21 
REMARK    3  A    between atoms: C_15  and  C_16 
REMARK    4  A    between atoms: C_18  and  C_19 
ROOT
HETATM    1  N   UNK N   1      36.339  13.470  13.845  0.00  0.00    -0.253 N 
HETATM    2  N   UNK N   1      36.037  14.551  13.143  0.00  0.00    -0.287 N 
ATOM      3  HN  UNK N   1      35.597  15.388  13.525  1.00  0.00     0.188 HD
HETATM    4  C   UNK N   1      36.389  14.392  11.865  0.00  0.00     0.126 A 
HETATM    5  C   UNK N   1      36.962  13.155  11.709  0.00  0.00     0.001 A 
HETATM    6  C   UNK N   1      36.931  12.558  12.981  0.00  0.00     0.075 A 
HETATM    7  C   UNK N   1      37.475  12.606  10.416  0.00  0.00     0.053 C 
ENDROOT
BRANCH   4   8
HETATM    8  C   UNK N   1      36.108  15.424  10.851  0.00  0.00     0.284 C 
HETATM    9  O   UNK N   1      36.752  16.463  10.820  0.00  0.00    -0.265 OA
HETATM   10  N   UNK N   1      35.153  15.171   9.918  0.00  0.00    -0.284 N 
HETATM   11  H   UNK N   1      34.610  14.355  10.017  0.00  0.00     0.184 HD
BRANCH  10  12
HETATM   12  N   UNK N   1      34.901  16.002   8.831  0.00  0.00    -0.229 NA
HETATM   13  C   UNK N   1      34.649  15.116   7.694  0.00  0.00     0.113 C 
HETATM   14  C   UNK N   1      34.438  15.936   6.425  0.00  0.00     0.016 C 
HETATM   15  C   UNK N   1      33.267  16.894   6.618  0.00  0.00     0.002 C 
HETATM   16  C   UNK N   1      33.456  17.725   7.885  0.00  0.00     0.016 C 
HETATM   17  C   UNK N   1      33.692  16.793   9.073  0.00  0.00     0.113 C 
ENDBRANCH  10  12
ENDBRANCH   4   8
BRANCH   1  18
HETATM   18  C   UNK N   1      35.987  13.444  15.271  0.00  0.00     0.078 A 
HETATM   19  C   UNK N   1      36.451  14.454  16.187  0.00  0.00     0.064 A 
HETATM   20 Cl   UNK N   1      37.490  15.812  15.755  0.00  0.00    -0.082 Cl
HETATM   21  C   UNK N   1      36.073  14.406  17.532  0.00  0.00     0.050 A 
HETATM   22  C   UNK N   1      35.251  13.393  18.009  0.00  0.00     0.035 A 
HETATM   23 Cl   UNK N   1      34.787  13.365  19.696  0.00  0.00    -0.084 Cl
HETATM   24  C   UNK N   1      34.799  12.409  17.142  0.00  0.00     0.026 A 
HETATM   25  C   UNK N   1      35.167  12.444  15.797  0.00  0.00     0.035 A 
ENDBRANCH   1  18
BRANCH   6  26
HETATM   26  C   UNK N   1      37.461  11.157  13.233  0.00  0.00    -0.007 A 
HETATM   27  C   UNK N   1      38.380  10.940  14.280  0.00  0.00     0.015 A 
HETATM   28  C   UNK N   1      38.904   9.671  14.546  0.00  0.00     0.024 A 
HETATM   29  C   UNK N   1      38.518   8.585  13.764  0.00  0.00     0.034 A 
HETATM   30 Cl   UNK N   1      39.171   6.992  14.084  0.00  0.00    -0.084 Cl
HETATM   31  C   UNK N   1      37.611   8.771  12.725  0.00  0.00     0.024 A 
HETATM   32  C   UNK N   1      37.095  10.044  12.471  0.00  0.00     0.015 A 
ENDBRANCH   6  26
TORSDOF 4
ENDMDL
MODEL 2
REMARK VINA RESULT:      -8.1      1.028      1.386
REMARK  4 active torsions:
REMARK  status: ('A' for Active; 'I' for Inactive)
REMARK    1  A    between atoms: N_5  and  N_6 
REMARK       I    between atoms: N_6  and  C_15 
REMARK    2  A    between atoms: N_7  and  C_21 
REMARK    3  A    between atoms: C_15  and  C_16 
REMARK    4  A    between atoms: C_18  and  C_19 
ROOT
HETATM    1  N   UNK N   1      36.235  13.511  13.668  0.00  0.00    -0.253 N 
HETATM    2  N   UNK N   1      35.952  14.605  12.978  0.00  0.00    -0.287 N 
ATOM      3  HN  UNK N   1      35.525  15.446  13.370  1.00  0.00     0.188 HD
HETATM    4  C   UNK N   1      36.302  14.456  11.699  0.00  0.00     0.126 A 
HETATM    5  C   UNK N   1      36.853  13.212  11.528  0.00  0.00     0.001 A 
HETATM    6  C   UNK N   1      36.811  12.600  12.793  0.00  0.00     0.075 A 
HETATM    7  C   UNK N   1      37.358  12.669  10.229  0.00  0.00     0.053 C 
ENDROOT
BRANCH   4   8
HETATM    8  C   UNK N   1      36.040  15.506  10.697  0.00  0.00     0.284 C 
HETATM    9  O   UNK N   1      36.682  16.546  10.698  0.00  0.00    -0.265 OA
HETATM   10  N   UNK N   1      35.106  15.266   9.740  0.00  0.00    -0.284 N 
HETATM   11  H   UNK N   1      34.563  14.447   9.813  0.00  0.00     0.184 HD
BRANCH  10  12
HETATM   12  N   UNK N   1      34.874  16.116   8.662  0.00  0.00    -0.229 NA
HETATM   13  C   UNK N   1      34.594  15.250   7.517  0.00  0.00     0.113 C 
HETATM   14  C   UNK N   1      34.403  16.089   6.257  0.00  0.00     0.016 C 
HETATM   15  C   UNK N   1      33.261  17.078   6.464  0.00  0.00     0.002 C 
HETATM   16  C   UNK N   1      33.478  17.890   7.740  0.00  0.00     0.016 C 
HETATM   17  C   UNK N   1      33.690  16.938   8.916  0.00  0.00     0.113 C 
ENDBRANCH  10  12
ENDBRANCH   4   8
BRANCH   1  18
HETATM   18  C   UNK N   1      35.881  13.473  15.093  0.00  0.00     0.078 A 
HETATM   19  C   UNK N   1      34.921  12.534  15.613  0.00  0.00     0.064 A 
HETATM   20 Cl   UNK N   1      34.042  11.346  14.650  0.00  0.00    -0.082 Cl
HETATM   21  C   UNK N   1      34.630  12.515  16.981  0.00  0.00     0.050 A 
HETATM   22  C   UNK N   1      35.254  13.392  17.857  0.00  0.00     0.035 A 
HETATM   23 Cl   UNK N   1      34.877  13.338  19.565  0.00  0.00    -0.084 Cl
HETATM   24  C   UNK N   1      36.177  14.308  17.373  0.00  0.00     0.026 A 
HETATM   25  C   UNK N   1      36.479  14.338  16.012  0.00  0.00     0.035 A 
ENDBRANCH   1  18
BRANCH   6  26
HETATM   26  C   UNK N   1      37.317  11.186  13.028  0.00  0.00    -0.007 A 
HETATM   27  C   UNK N   1      38.191  10.932  14.105  0.00  0.00     0.015 A 
HETATM   28  C   UNK N   1      38.690   9.650  14.357  0.00  0.00     0.024 A 
HETATM   29  C   UNK N   1      38.326   8.590  13.531  0.00  0.00     0.034 A 
HETATM   30 Cl   UNK N   1      38.949   6.982  13.834  0.00  0.00    -0.084 Cl
HETATM   31  C   UNK N   1      37.463   8.813  12.462  0.00  0.00     0.024 A 
HETATM   32  C   UNK N   1      36.970  10.098  12.223  0.00  0.00     0.015 A 
ENDBRANCH   6  26
TORSDOF 4
ENDMDL
MODEL 3
REMARK VINA RESULT:      -7.8      6.989     11.223
REMARK  4 active torsions:
REMARK  status: ('A' for Active; 'I' for Inactive)
REMARK    1  A    between atoms: N_5  and  N_6 
REMARK       I    between atoms: N_6  and  C_15 
REMARK    2  A    between atoms: N_7  and  C_21 
REMARK    3  A    between atoms: C_15  and  C_16 
REMARK    4  A    between atoms: C_18  and  C_19 
ROOT
HETATM    1  N   UNK N   1      30.676  16.602   5.827  0.00  0.00    -0.253 N 
HETATM    2  N   UNK N   1      29.489  17.094   5.507  0.00  0.00    -0.287 N 
ATOM      3  HN  UNK N   1      29.013  16.933   4.619  1.00  0.00     0.188 HD
HETATM    4  C   UNK N   1      29.002  17.828   6.510  0.00  0.00     0.126 A 
HETATM    5  C   UNK N   1      29.897  17.818   7.549  0.00  0.00     0.001 A 
HETATM    6  C   UNK N   1      30.977  17.030   7.113  0.00  0.00     0.075 A 
HETATM    7  C   UNK N   1      29.712  18.537   8.847  0.00  0.00     0.053 C 
ENDROOT
BRANCH   4   8
HETATM    8  C   UNK N   1      27.718  18.543   6.392  0.00  0.00     0.284 C 
HETATM    9  O   UNK N   1      27.510  19.564   7.033  0.00  0.00    -0.265 OA
HETATM   10  N   UNK N   1      26.794  18.072   5.515  0.00  0.00    -0.284 N 
HETATM   11  H   UNK N   1      26.970  17.212   5.069  0.00  0.00     0.184 HD
BRANCH  10  12
HETATM   12  N   UNK N   1      25.611  18.740   5.212  0.00  0.00    -0.229 NA
HETATM   13  C   UNK N   1      25.871  19.491   3.985  0.00  0.00     0.113 C 
HETATM   14  C   UNK N   1      24.651  20.326   3.609  0.00  0.00     0.016 C 
HETATM   15  C   UNK N   1      23.440  19.417   3.426  0.00  0.00     0.002 C 
HETATM   16  C   UNK N   1      23.246  18.527   4.651  0.00  0.00     0.016 C 
HETATM   17  C   UNK N   1      24.544  17.774   4.942  0.00  0.00     0.113 C 
ENDBRANCH  10  12
ENDBRANCH   4   8
BRANCH   1  18
HETATM   18  C   UNK N   1      31.390  15.796   4.827  0.00  0.00     0.078 A 
HETATM   19  C   UNK N   1      32.575  16.280   4.168  0.00  0.00     0.064 A 
HETATM   20 Cl   UNK N   1      33.310  17.861   4.435  0.00  0.00    -0.082 Cl
HETATM   21  C   UNK N   1      33.239  15.472   3.239  0.00  0.00     0.050 A 
HETATM   22  C   UNK N   1      32.774  14.199   2.936  0.00  0.00     0.035 A 
HETATM   23 Cl   UNK N   1      33.631  13.208   1.777  0.00  0.00    -0.084 Cl
HETATM   24  C   UNK N   1      31.630  13.719   3.558  0.00  0.00     0.026 A 
HETATM   25  C   UNK N   1      30.958  14.513   4.487  0.00  0.00     0.035 A 
ENDBRANCH   1  18
BRANCH   6  26
HETATM   26  C   UNK N   1      32.202  16.783   7.978  0.00  0.00    -0.007 A 
HETATM   27  C   UNK N   1      32.297  15.590   8.723  0.00  0.00     0.015 A 
HETATM   28  C   UNK N   1      33.400  15.320   9.539  0.00  0.00     0.024 A 
HETATM   29  C   UNK N   1      34.437  16.245   9.630  0.00  0.00     0.034 A 
HETATM   30 Cl   UNK N   1      35.820  15.921  10.653  0.00  0.00    -0.084 Cl
HETATM   31  C   UNK N   1      34.369  17.430   8.903  0.00  0.00     0.024 A 
HETATM   32  C   UNK N   1      33.262  17.686   8.090  0.00  0.00     0.015 A 
ENDBRANCH   6  26
TORSDOF 4
ENDMDL
MODEL 4
REMARK VINA RESULT:      -7.8      3.389      5.137
REMARK  4 active torsions:
REMARK  status: ('A' for Active; 'I' for Inactive)
REMARK    1  A    between atoms: N_5  and  N_6 
REMARK       I    between atoms: N_6  and  C_15 
REMARK    2  A    between atoms: N_7  and  C_21 
REMARK    3  A    between atoms: C_15  and  C_16 
REMARK    4  A    between atoms: C_18  and  C_19 
ROOT
HETATM    1  N   UNK N   1      35.175  14.801  10.365  0.00  0.00    -0.253 N 
HETATM    2  N   UNK N   1      34.261  15.757  10.306  0.00  0.00    -0.287 N 
ATOM      3  HN  UNK N   1      33.756  16.129  11.110  1.00  0.00     0.188 HD
HETATM    4  C   UNK N   1      34.091  16.165   9.046  0.00  0.00     0.126 A 
HETATM    5  C   UNK N   1      34.938  15.458   8.229  0.00  0.00     0.001 A 
HETATM    6  C   UNK N   1      35.637  14.579   9.074  0.00  0.00     0.075 A 
HETATM    7  C   UNK N   1      35.033  15.624   6.746  0.00  0.00     0.053 C 
ENDROOT
BRANCH   4   8
HETATM    8  C   UNK N   1      33.084  17.181   8.691  0.00  0.00     0.284 C 
HETATM    9  O   UNK N   1      33.423  18.273   8.259  0.00  0.00    -0.265 OA
HETATM   10  N   UNK N   1      31.770  16.855   8.802  0.00  0.00    -0.284 N 
HETATM   11  H   UNK N   1      31.537  15.992   9.217  0.00  0.00     0.184 HD
BRANCH  10  12
HETATM   12  N   UNK N   1      30.735  17.674   8.362  0.00  0.00    -0.229 NA
HETATM   13  C   UNK N   1      30.231  17.066   7.131  0.00  0.00     0.113 C 
HETATM   14  C   UNK N   1      29.138  17.937   6.522  0.00  0.00     0.016 C 
HETATM   15  C   UNK N   1      28.003  18.118   7.525  0.00  0.00     0.002 C 
HETATM   16  C   UNK N   1      28.543  18.621   8.862  0.00  0.00     0.016 C 
HETATM   17  C   UNK N   1      29.650  17.685   9.346  0.00  0.00     0.113 C 
ENDBRANCH  10  12
ENDBRANCH   4   8
BRANCH   1  18
HETATM   18  C   UNK N   1      35.469  14.197  11.671  0.00  0.00     0.078 A 
HETATM   19  C   UNK N   1      35.184  12.812  11.949  0.00  0.00     0.064 A 
HETATM   20 Cl   UNK N   1      34.449  11.682  10.813  0.00  0.00    -0.082 Cl
HETATM   21  C   UNK N   1      35.502  12.269  13.198  0.00  0.00     0.050 A 
HETATM   22  C   UNK N   1      36.092  13.045  14.187  0.00  0.00     0.035 A 
HETATM   23 Cl   UNK N   1      36.486  12.336  15.736  0.00  0.00    -0.084 Cl
HETATM   24  C   UNK N   1      36.368  14.382  13.939  0.00  0.00     0.026 A 
HETATM   25  C   UNK N   1      36.058  14.938  12.698  0.00  0.00     0.035 A 
ENDBRANCH   1  18
BRANCH   6  26
HETATM   26  C   UNK N   1      36.670  13.598   8.548  0.00  0.00    -0.007 A 
HETATM   27  C   UNK N   1      38.036  13.813   8.825  0.00  0.00     0.015 A 
HETATM   28  C   UNK N   1      39.026  12.943   8.355  0.00  0.00     0.024 A 
HETATM   29  C   UNK N   1      38.668  11.834   7.592  0.00  0.00     0.034 A 
HETATM   30 Cl   UNK N   1      39.899  10.741   6.995  0.00  0.00    -0.084 Cl
HETATM   31  C   UNK N   1      37.326  11.598   7.306  0.00  0.00     0.024 A 
HETATM   32  C   UNK N   1      36.348  12.474   7.783  0.00  0.00     0.015 A 
ENDBRANCH   6  26
TORSDOF 4
ENDMDL
MODEL 5
REMARK VINA RESULT:      -7.6      2.214      2.837
REMARK  4 active torsions:
REMARK  status: ('A' for Active; 'I' for Inactive)
REMARK    1  A    between atoms: N_5  and  N_6 
REMARK       I    between atoms: N_6  and  C_15 
REMARK    2  A    between atoms: N_7  and  C_21 
REMARK    3  A    between atoms: C_15  and  C_16 
REMARK    4  A    between atoms: C_18  and  C_19 
ROOT
HETATM    1  N   UNK N   1      35.235  12.267  12.408  0.00  0.00    -0.253 N 
HETATM    2  N   UNK N   1      34.605  13.070  11.564  0.00  0.00    -0.287 N 
ATOM      3  HN  UNK N   1      34.181  13.963  11.818  1.00  0.00     0.188 HD
HETATM    4  C   UNK N   1      34.604  12.550  10.336  0.00  0.00     0.126 A 
HETATM    5  C   UNK N   1      35.271  11.351  10.357  0.00  0.00     0.001 A 
HETATM    6  C   UNK N   1      35.678  11.165  11.689  0.00  0.00     0.075 A 
HETATM    7  C   UNK N   1      35.472  10.460   9.172  0.00  0.00     0.053 C 
ENDROOT
BRANCH   4   8
HETATM    8  C   UNK N   1      33.914  13.213   9.214  0.00  0.00     0.284 C 
HETATM    9  O   UNK N   1      32.830  12.809   8.820  0.00  0.00    -0.265 OA
HETATM   10  N   UNK N   1      34.487  14.316   8.665  0.00  0.00    -0.284 N 
HETATM   11  H   UNK N   1      35.391  14.569   8.963  0.00  0.00     0.184 HD
BRANCH  10  12
HETATM   12  N   UNK N   1      33.865  15.107   7.703  0.00  0.00    -0.229 NA
HETATM   13  C   UNK N   1      33.542  16.370   8.366  0.00  0.00     0.113 C 
HETATM   14  C   UNK N   1      32.780  17.285   7.411  0.00  0.00     0.016 C 
HETATM   15  C   UNK N   1      33.619  17.541   6.163  0.00  0.00     0.002 C 
HETATM   16  C   UNK N   1      34.079  16.223   5.545  0.00  0.00     0.016 C 
HETATM   17  C   UNK N   1      34.793  15.388   6.606  0.00  0.00     0.113 C 
ENDBRANCH  10  12
ENDBRANCH   4   8
BRANCH   1  18
HETATM   18  C   UNK N   1      35.302  12.657  13.823  0.00  0.00     0.078 A 
HETATM   19  C   UNK N   1      34.487  12.022  14.826  0.00  0.00     0.064 A 
HETATM   20 Cl   UNK N   1      33.313  10.742  14.515  0.00  0.00    -0.082 Cl
HETATM   21  C   UNK N   1      34.599  12.405  16.166  0.00  0.00     0.050 A 
HETATM   22  C   UNK N   1      35.490  13.397  16.554  0.00  0.00     0.035 A 
HETATM   23 Cl   UNK N   1      35.615  13.850  18.239  0.00  0.00    -0.084 Cl
HETATM   24  C   UNK N   1      36.279  14.024  15.601  0.00  0.00     0.026 A 
HETATM   25  C   UNK N   1      36.179  13.652  14.261  0.00  0.00     0.035 A 
ENDBRANCH   1  18
BRANCH   6  26
HETATM   26  C   UNK N   1      36.442   9.931  12.141  0.00  0.00    -0.007 A 
HETATM   27  C   UNK N   1      35.734   8.832  12.668  0.00  0.00     0.015 A 
HETATM   28  C   UNK N   1      36.392   7.678  13.106  0.00  0.00     0.024 A 
HETATM   29  C   UNK N   1      37.780   7.599  13.026  0.00  0.00     0.034 A 
HETATM   30 Cl   UNK N   1      38.615   6.162  13.576  0.00  0.00    -0.084 Cl
HETATM   31  C   UNK N   1      38.503   8.670  12.508  0.00  0.00     0.024 A 
HETATM   32  C   UNK N   1      37.833   9.816  12.073  0.00  0.00     0.015 A 
ENDBRANCH   6  26
TORSDOF 4
ENDMDL
MODEL 6
REMARK VINA RESULT:      -7.6     12.745     14.806
REMARK  4 active torsions:
REMARK  status: ('A' for Active; 'I' for Inactive)
REMARK    1  A    between atoms: N_5  and  N_6 
REMARK       I    between atoms: N_6  and  C_15 
REMARK    2  A    between atoms: N_7  and  C_21 
REMARK    3  A    between atoms: C_15  and  C_16 
REMARK    4  A    between atoms: C_18  and  C_19 
ROOT
HETATM    1  N   UNK N   1      23.083  13.748   7.475  0.00  0.00    -0.253 N 
HETATM    2  N   UNK N   1      23.455  14.999   7.253  0.00  0.00    -0.287 N 
ATOM      3  HN  UNK N   1      23.781  15.645   7.972  1.00  0.00     0.188 HD
HETATM    4  C   UNK N   1      23.344  15.296   5.957  0.00  0.00     0.126 A 
HETATM    5  C   UNK N   1      22.889  14.192   5.282  0.00  0.00     0.001 A 
HETATM    6  C   UNK N   1      22.719  13.194   6.255  0.00  0.00     0.075 A 
HETATM    7  C   UNK N   1      22.626  14.136   3.810  0.00  0.00     0.053 C 
ENDROOT
BRANCH   4   8
HETATM    8  C   UNK N   1      23.637  16.647   5.445  0.00  0.00     0.284 C 
HETATM    9  O   UNK N   1      22.733  17.435   5.206  0.00  0.00    -0.265 OA
HETATM   10  N   UNK N   1      24.936  17.015   5.296  0.00  0.00    -0.284 N 
HETATM   11  H   UNK N   1      25.633  16.332   5.433  0.00  0.00     0.184 HD
BRANCH  10  12
HETATM   12  N   UNK N   1      25.337  18.305   4.960  0.00  0.00    -0.229 NA
HETATM   13  C   UNK N   1      26.706  18.446   5.456  0.00  0.00     0.113 C 
HETATM   14  C   UNK N   1      27.213  19.863   5.206  0.00  0.00     0.016 C 
HETATM   15  C   UNK N   1      27.155  20.176   3.714  0.00  0.00     0.002 C 
HETATM   16  C   UNK N   1      25.761  19.895   3.160  0.00  0.00     0.016 C 
HETATM   17  C   UNK N   1      25.357  18.462   3.505  0.00  0.00     0.113 C 
ENDBRANCH  10  12
ENDBRANCH   4   8
BRANCH   1  18
HETATM   18  C   UNK N   1      23.098  13.251   8.858  0.00  0.00     0.078 A 
HETATM   19  C   UNK N   1      21.930  13.304   9.697  0.00  0.00     0.064 A 
HETATM   20 Cl   UNK N   1      20.367  13.968   9.218  0.00  0.00    -0.082 Cl
HETATM   21  C   UNK N   1      21.980  12.797  11.000  0.00  0.00     0.050 A 
HETATM   22  C   UNK N   1      23.146  12.239  11.506  0.00  0.00     0.035 A 
HETATM   23 Cl   UNK N   1      23.175  11.605  13.136  0.00  0.00    -0.084 Cl
HETATM   24  C   UNK N   1      24.283  12.184  10.713  0.00  0.00     0.026 A 
HETATM   25  C   UNK N   1      24.248  12.684   9.412  0.00  0.00     0.035 A 
ENDBRANCH   1  18
BRANCH   6  26
HETATM   26  C   UNK N   1      22.203  11.805   5.914  0.00  0.00    -0.007 A 
HETATM   27  C   UNK N   1      20.814  11.584   5.820  0.00  0.00     0.015 A 
HETATM   28  C   UNK N   1      20.290  10.323   5.518  0.00  0.00     0.024 A 
HETATM   29  C   UNK N   1      21.151   9.249   5.303  0.00  0.00     0.034 A 
HETATM   30 Cl   UNK N   1      20.506   7.665   4.928  0.00  0.00    -0.084 Cl
HETATM   31  C   UNK N   1      22.527   9.441   5.387  0.00  0.00     0.024 A 
HETATM   32  C   UNK N   1      23.036  10.706   5.688  0.00  0.00     0.015 A 
ENDBRANCH   6  26
TORSDOF 4
ENDMDL
MODEL 7
REMARK VINA RESULT:      -7.4      8.714     12.370
REMARK  4 active torsions:
REMARK  status: ('A' for Active; 'I' for Inactive)
REMARK    1  A    between atoms: N_5  and  N_6 
REMARK       I    between atoms: N_6  and  C_15 
REMARK    2  A    between atoms: N_7  and  C_21 
REMARK    3  A    between atoms: C_15  and  C_16 
REMARK    4  A    between atoms: C_18  and  C_19 
ROOT
HETATM    1  N   UNK N   1      30.382  16.050   5.894  0.00  0.00    -0.253 N 
HETATM    2  N   UNK N   1      30.491  14.793   5.492  0.00  0.00    -0.287 N 
ATOM      3  HN  UNK N   1      31.325  14.216   5.607  1.00  0.00     0.188 HD
HETATM    4  C   UNK N   1      29.359  14.386   4.915  0.00  0.00     0.126 A 
HETATM    5  C   UNK N   1      28.449  15.412   4.943  0.00  0.00     0.001 A 
HETATM    6  C   UNK N   1      29.103  16.485   5.571  0.00  0.00     0.075 A 
HETATM    7  C   UNK N   1      27.064  15.345   4.381  0.00  0.00     0.053 C 
ENDROOT
BRANCH   4   8
HETATM    8  C   UNK N   1      29.231  13.042   4.322  0.00  0.00     0.284 C 
HETATM    9  O   UNK N   1      28.697  12.133   4.942  0.00  0.00    -0.265 OA
HETATM   10  N   UNK N   1      29.672  12.852   3.051  0.00  0.00    -0.284 N 
HETATM   11  H   UNK N   1      30.157  13.588   2.611  0.00  0.00     0.184 HD
BRANCH  10  12
HETATM   12  N   UNK N   1      29.476  11.674   2.337  0.00  0.00    -0.229 NA
HETATM   13  C   UNK N   1      28.296  11.898   1.501  0.00  0.00     0.113 C 
HETATM   14  C   UNK N   1      27.947  10.628   0.732  0.00  0.00     0.016 C 
HETATM   15  C   UNK N   1      29.133  10.204  -0.129  0.00  0.00     0.002 C 
HETATM   16  C   UNK N   1      30.402  10.105   0.715  0.00  0.00     0.016 C 
HETATM   17  C   UNK N   1      30.620  11.422   1.459  0.00  0.00     0.113 C 
ENDBRANCH  10  12
ENDBRANCH   4   8
BRANCH   1  18
HETATM   18  C   UNK N   1      31.549  16.687   6.518  0.00  0.00     0.078 A 
HETATM   19  C   UNK N   1      32.705  17.073   5.751  0.00  0.00     0.064 A 
HETATM   20 Cl   UNK N   1      32.896  16.829   4.014  0.00  0.00    -0.082 Cl
HETATM   21  C   UNK N   1      33.786  17.699   6.380  0.00  0.00     0.050 A 
HETATM   22  C   UNK N   1      33.768  17.958   7.744  0.00  0.00     0.035 A 
HETATM   23 Cl   UNK N   1      35.131  18.751   8.502  0.00  0.00    -0.084 Cl
HETATM   24  C   UNK N   1      32.665  17.588   8.500  0.00  0.00     0.026 A 
HETATM   25  C   UNK N   1      31.579  16.964   7.887  0.00  0.00     0.035 A 
ENDBRANCH   1  18
BRANCH   6  26
HETATM   26  C   UNK N   1      28.434  17.833   5.783  0.00  0.00    -0.007 A 
HETATM   27  C   UNK N   1      28.144  18.647   4.669  0.00  0.00     0.015 A 
HETATM   28  C   UNK N   1      27.538  19.899   4.812  0.00  0.00     0.024 A 
HETATM   29  C   UNK N   1      27.209  20.367   6.082  0.00  0.00     0.034 A 
HETATM   30 Cl   UNK N   1      26.454  21.936   6.274  0.00  0.00    -0.084 Cl
HETATM   31  C   UNK N   1      27.483  19.583   7.199  0.00  0.00     0.024 A 
HETATM   32  C   UNK N   1      28.087  18.334   7.040  0.00  0.00     0.015 A 
ENDBRANCH   6  26
TORSDOF 4
ENDMDL
MODEL 8
REMARK VINA RESULT:      -7.4      2.659      3.316
REMARK  4 active torsions:
REMARK  status: ('A' for Active; 'I' for Inactive)
REMARK    1  A    between atoms: N_5  and  N_6 
REMARK       I    between atoms: N_6  and  C_15 
REMARK    2  A    between atoms: N_7  and  C_21 
REMARK    3  A    between atoms: C_15  and  C_16 
REMARK    4  A    between atoms: C_18  and  C_19 
ROOT
HETATM    1  N   UNK N   1      35.046  13.207  11.960  0.00  0.00    -0.253 N 
HETATM    2  N   UNK N   1      34.463  14.351  11.635  0.00  0.00    -0.287 N 
ATOM      3  HN  UNK N   1      34.061  15.009  12.303  1.00  0.00     0.188 HD
HETATM    4  C   UNK N   1      34.473  14.521  10.312  0.00  0.00     0.126 A 
HETATM    5  C   UNK N   1      35.100  13.451   9.727  0.00  0.00     0.001 A 
HETATM    6  C   UNK N   1      35.471  12.603  10.784  0.00  0.00     0.075 A 
HETATM    7  C   UNK N   1      35.299  13.273   8.255  0.00  0.00     0.053 C 
ENDROOT
BRANCH   4   8
HETATM    8  C   UNK N   1      33.831  15.687   9.676  0.00  0.00     0.284 C 
HETATM    9  O   UNK N   1      34.467  16.706   9.452  0.00  0.00    -0.265 OA
HETATM   10  N   UNK N   1      32.530  15.581   9.297  0.00  0.00    -0.284 N 
HETATM   11  H   UNK N   1      32.034  14.770   9.555  0.00  0.00     0.184 HD
BRANCH  10  12
HETATM   12  N   UNK N   1      31.862  16.556   8.563  0.00  0.00    -0.229 NA
HETATM   13  C   UNK N   1      31.621  15.975   7.242  0.00  0.00     0.113 C 
HETATM   14  C   UNK N   1      30.958  17.001   6.328  0.00  0.00     0.016 C 
HETATM   15  C   UNK N   1      29.645  17.471   6.947  0.00  0.00     0.002 C 
HETATM   16  C   UNK N   1      29.867  17.948   8.380  0.00  0.00     0.016 C 
HETATM   17  C   UNK N   1      30.566  16.848   9.179  0.00  0.00     0.113 C 
ENDBRANCH  10  12
ENDBRANCH   4   8
BRANCH   1  18
HETATM   18  C   UNK N   1      35.094  12.827  13.378  0.00  0.00     0.078 A 
HETATM   19  C   UNK N   1      34.498  11.607  13.858  0.00  0.00     0.064 A 
HETATM   20 Cl   UNK N   1      33.633  10.440  12.857  0.00  0.00    -0.082 Cl
HETATM   21  C   UNK N   1      34.586  11.269  15.212  0.00  0.00     0.050 A 
HETATM   22  C   UNK N   1      35.245  12.095  16.114  0.00  0.00     0.035 A 
HETATM   23 Cl   UNK N   1      35.348  11.642  17.800  0.00  0.00    -0.084 Cl
HETATM   24  C   UNK N   1      35.821  13.277  15.670  0.00  0.00     0.026 A 
HETATM   25  C   UNK N   1      35.742  13.626  14.322  0.00  0.00     0.035 A 
ENDBRANCH   1  18
BRANCH   6  26
HETATM   26  C   UNK N   1      36.183  11.280  10.553  0.00  0.00    -0.007 A 
HETATM   27  C   UNK N   1      37.509  11.118  11.004  0.00  0.00     0.015 A 
HETATM   28  C   UNK N   1      38.210   9.924  10.808  0.00  0.00     0.024 A 
HETATM   29  C   UNK N   1      37.597   8.861  10.149  0.00  0.00     0.034 A 
HETATM   30 Cl   UNK N   1      38.467   7.363   9.893  0.00  0.00    -0.084 Cl
HETATM   31  C   UNK N   1      36.287   8.994   9.696  0.00  0.00     0.024 A 
HETATM   32  C   UNK N   1      35.599  10.192   9.900  0.00  0.00     0.015 A 
ENDBRANCH   6  26
TORSDOF 4
ENDMDL
MODEL 9
REMARK VINA RESULT:      -7.4      6.681     11.601
REMARK  4 active torsions:
REMARK  status: ('A' for Active; 'I' for Inactive)
REMARK    1  A    between atoms: N_5  and  N_6 
REMARK       I    between atoms: N_6  and  C_15 
REMARK    2  A    between atoms: N_7  and  C_21 
REMARK    3  A    between atoms: C_15  and  C_16 
REMARK    4  A    between atoms: C_18  and  C_19 
ROOT
HETATM    1  N   UNK N   1      29.902  16.797   6.075  0.00  0.00    -0.253 N 
HETATM    2  N   UNK N   1      31.036  16.814   6.758  0.00  0.00    -0.287 N 
ATOM      3  HN  UNK N   1      31.346  17.585   7.350  1.00  0.00     0.188 HD
HETATM    4  C   UNK N   1      31.716  15.683   6.564  0.00  0.00     0.126 A 
HETATM    5  C   UNK N   1      31.000  14.869   5.723  0.00  0.00     0.001 A 
HETATM    6  C   UNK N   1      29.832  15.582   5.405  0.00  0.00     0.075 A 
HETATM    7  C   UNK N   1      31.440  13.517   5.259  0.00  0.00     0.053 C 
ENDROOT
BRANCH   4   8
HETATM    8  C   UNK N   1      33.047  15.467   7.161  0.00  0.00     0.284 C 
HETATM    9  O   UNK N   1      34.061  15.589   6.489  0.00  0.00    -0.265 OA
HETATM   10  N   UNK N   1      33.121  15.183   8.488  0.00  0.00    -0.284 N 
HETATM   11  H   UNK N   1      32.282  15.026   8.979  0.00  0.00     0.184 HD
BRANCH  10  12
HETATM   12  N   UNK N   1      34.320  15.102   9.190  0.00  0.00    -0.229 NA
HETATM   13  C   UNK N   1      34.440  16.356   9.933  0.00  0.00     0.113 C 
HETATM   14  C   UNK N   1      35.770  16.401  10.680  0.00  0.00     0.016 C 
HETATM   15  C   UNK N   1      35.867  15.211  11.630  0.00  0.00     0.002 C 
HETATM   16  C   UNK N   1      35.602  13.905  10.885  0.00  0.00     0.016 C 
HETATM   17  C   UNK N   1      34.264  14.001  10.154  0.00  0.00     0.113 C 
ENDBRANCH  10  12
ENDBRANCH   4   8
BRANCH   1  18
HETATM   18  C   UNK N   1      29.034  17.981   6.133  0.00  0.00     0.078 A 
HETATM   19  C   UNK N   1      28.513  18.481   7.380  0.00  0.00     0.064 A 
HETATM   20 Cl   UNK N   1      28.809  17.761   8.962  0.00  0.00    -0.082 Cl
HETATM   21  C   UNK N   1      27.710  19.626   7.394  0.00  0.00     0.050 A 
HETATM   22  C   UNK N   1      27.401  20.298   6.219  0.00  0.00     0.035 A 
HETATM   23 Cl   UNK N   1      26.403  21.734   6.270  0.00  0.00    -0.084 Cl
HETATM   24  C   UNK N   1      27.890  19.828   5.009  0.00  0.00     0.026 A 
HETATM   25  C   UNK N   1      28.693  18.688   4.978  0.00  0.00     0.035 A 
ENDBRANCH   1  18
BRANCH   6  26
HETATM   26  C   UNK N   1      28.770  15.027   4.471  0.00  0.00    -0.007 A 
HETATM   27  C   UNK N   1      27.770  14.176   4.984  0.00  0.00     0.015 A 
HETATM   28  C   UNK N   1      26.777  13.633   4.163  0.00  0.00     0.024 A 
HETATM   29  C   UNK N   1      26.764  13.930   2.802  0.00  0.00     0.034 A 
HETATM   30 Cl   UNK N   1      25.528  13.252   1.764  0.00  0.00    -0.084 Cl
HETATM   31  C   UNK N   1      27.738  14.770   2.271  0.00  0.00     0.024 A 
HETATM   32  C   UNK N   1      28.724  15.306   3.102  0.00  0.00     0.015 A 
ENDBRANCH   6  26
TORSDOF 4
ENDMDL
