MODEL 1
REMARK VINA RESULT:      -7.8      0.000      0.000
REMARK  9 active torsions:
REMARK  status: ('A' for Active; 'I' for Inactive)
REMARK    1  A    between atoms: C_5  and  C_9 
REMARK    2  A    between atoms: C_9  and  N_10 
REMARK       I    between atoms: N_10  and  C_11 
REMARK    3  A    between atoms: C_11  and  C_12 
REMARK    4  A    between atoms: C_14  and  N_22 
REMARK       I    between atoms: C_17  and  N_21 
REMARK    5  A    between atoms: N_22  and  C_23 
REMARK    6  A    between atoms: C_23  and  C_24 
REMARK    7  A    between atoms: C_26  and  C_37 
REMARK    8  A    between atoms: C_31  and  O_34 
REMARK    9  A    between atoms: C_37  and  O_38 
ROOT
HETATM    1  C   UNK N   1      21.161  16.739   5.471  0.00  0.00     0.092 A 
HETATM    2  C   UNK N   1      22.424  16.096   5.422  0.00  0.00     0.134 A 
HETATM    3  N   UNK N   1      23.470  16.717   4.807  0.00  0.00    -0.176 N 
ATOM      4  HN  UNK N   1      24.374  16.247   4.769  1.00  0.00     0.186 HD
HETATM    5  C   UNK N   1      23.342  17.947   4.244  0.00  0.00     0.682 A 
HETATM    6  N   UNK N   1      22.128  18.559   4.247  0.00  0.00    -0.201 N 
ATOM      7  HN  UNK N   1      22.023  19.470   3.800  1.00  0.00     0.183 HD
HETATM    8  C   UNK N   1      21.055  17.977   4.833  0.00  0.00     0.127 A 
HETATM    9  N   UNK N   1      24.485  18.671   3.788  0.00  0.00    -0.211 N 
HETATM   10  C   UNK N   1      24.376  20.029   3.341  0.00  0.00     0.142 C 
HETATM   11  C   UNK N   1      25.836  18.169   3.860  0.00  0.00     0.125 C 
HETATM   12  C   UNK N   1      26.704  19.402   3.651  0.00  0.00     0.029 C 
HETATM   13  C   UNK N   1      25.797  20.469   3.048  0.00  0.00     0.022 C 
ENDROOT
BRANCH   1  14
HETATM   14  C   UNK N   1      19.977  16.135   6.190  0.00  0.00     0.257 C 
HETATM   15  N   UNK N   1      19.609  16.486   7.450  0.00  0.00    -0.350 N 
HETATM   16  H   UNK N   1      18.856  15.991   7.848  0.00  0.00     0.163 HD
HETATM   17  O   UNK N   1      19.301  15.293   5.627  0.00  0.00    -0.267 OA
BRANCH  15  18
HETATM   18  C   UNK N   1      20.211  17.512   8.256  0.00  0.00     0.199 C 
BRANCH  18  19
HETATM   19  C   UNK N   1      19.156  18.006   9.170  0.00  0.00     0.099 A 
HETATM   20  N   UNK N   1      19.428  19.038  10.013  0.00  0.00    -0.354 N 
HETATM   21  C   UNK N   1      18.514  19.451  10.926  0.00  0.00     0.091 A 
ATOM     22  HN  UNK N   1      20.333  19.506   9.959  1.00  0.00     0.166 HD
HETATM   23  C   UNK N   1      17.279  18.813  11.005  0.00  0.00     0.034 A 
HETATM   24  C   UNK N   1      17.014  17.759  10.131  0.00  0.00     0.091 A 
HETATM   25  N   UNK N   1      17.957  17.369   9.234  0.00  0.00    -0.354 N 
ATOM     26  HN  UNK N   1      17.763  16.591   8.604  1.00  0.00     0.166 HD
ENDBRANCH  18  19
ENDBRANCH  15  18
ENDBRANCH   1  14
BRANCH   2  27
HETATM   27  N   UNK N   1      22.665  14.880   6.107  0.00  0.00    -0.371 N 
HETATM   28  H   UNK N   1      21.947  14.210   6.183  0.00  0.00     0.161 HD
BRANCH  27  29
HETATM   29  C   UNK N   1      23.962  14.619   6.695  0.00  0.00     0.160 C 
BRANCH  29  30
HETATM   30  C   UNK N   1      23.755  13.960   8.006  0.00  0.00    -0.039 A 
HETATM   31  C   UNK N   1      22.483  13.935   8.577  0.00  0.00     0.035 A 
HETATM   32  C   UNK N   1      22.244  13.161   9.714  0.00  0.00     0.068 A 
HETATM   33  C   UNK N   1      23.277  12.383  10.264  0.00  0.00     0.089 A 
HETATM   34 Cl   UNK N   1      20.627  13.116  10.388  0.00  0.00    -0.081 Cl
HETATM   35  C   UNK N   1      24.565  12.462   9.715  0.00  0.00     0.039 A 
HETATM   36  C   UNK N   1      24.803  13.250   8.595  0.00  0.00     0.011 A 
BRANCH  33  37
HETATM   37  O   UNK N   1      23.011  11.547  11.295  0.00  0.00    -0.354 OA
HETATM   38  C   UNK N   1      23.123  11.932  12.614  0.00  0.00     0.210 C 
ENDBRANCH  33  37
ENDBRANCH  29  30
ENDBRANCH  27  29
ENDBRANCH   2  27
BRANCH  11  39
HETATM   39  C   UNK N   1      26.166  17.599   5.226  0.00  0.00     0.190 C 
BRANCH  39  40
HETATM   40  O   UNK N   1      26.556  16.266   5.093  0.00  0.00    -0.399 OA
HETATM   41  H   UNK N   1      27.341  15.760   4.831  0.00  0.00     0.209 HD
ENDBRANCH  39  40
ENDBRANCH  11  39
TORSDOF 9
ENDMDL
MODEL 2
REMARK VINA RESULT:      -7.4      9.413     12.716
REMARK  9 active torsions:
REMARK  status: ('A' for Active; 'I' for Inactive)
REMARK    1  A    between atoms: C_5  and  C_9 
REMARK    2  A    between atoms: C_9  and  N_10 
REMARK       I    between atoms: N_10  and  C_11 
REMARK    3  A    between atoms: C_11  and  C_12 
REMARK    4  A    between atoms: C_14  and  N_22 
REMARK       I    between atoms: C_17  and  N_21 
REMARK    5  A    between atoms: N_22  and  C_23 
REMARK    6  A    between atoms: C_23  and  C_24 
REMARK    7  A    between atoms: C_26  and  C_37 
REMARK    8  A    between atoms: C_31  and  O_34 
REMARK    9  A    between atoms: C_37  and  O_38 
ROOT
HETATM    1  C   UNK N   1      34.531  16.510   8.251  0.00  0.00     0.092 A 
HETATM    2  C   UNK N   1      35.341  15.364   8.048  0.00  0.00     0.134 A 
HETATM    3  N   UNK N   1      35.939  14.767   9.117  0.00  0.00    -0.176 N 
ATOM      4  HN  UNK N   1      36.526  13.947   8.964  1.00  0.00     0.186 HD
HETATM    5  C   UNK N   1      35.776  15.234  10.383  0.00  0.00     0.682 A 
HETATM    6  N   UNK N   1      35.037  16.356  10.589  0.00  0.00    -0.201 N 
ATOM      7  HN  UNK N   1      34.936  16.724  11.535  1.00  0.00     0.183 HD
HETATM    8  C   UNK N   1      34.432  16.992   9.558  0.00  0.00     0.127 A 
HETATM    9  N   UNK N   1      36.236  14.487  11.509  0.00  0.00    -0.211 N 
HETATM   10  C   UNK N   1      35.927  14.894  12.848  0.00  0.00     0.142 C 
HETATM   11  C   UNK N   1      36.916  13.218  11.408  0.00  0.00     0.125 C 
HETATM   12  C   UNK N   1      36.840  12.642  12.815  0.00  0.00     0.029 C 
HETATM   13  C   UNK N   1      36.491  13.804  13.739  0.00  0.00     0.022 C 
ENDROOT
BRANCH   1  14
HETATM   14  C   UNK N   1      33.789  17.182   7.120  0.00  0.00     0.257 C 
HETATM   15  N   UNK N   1      32.474  16.964   6.853  0.00  0.00    -0.350 N 
HETATM   16  H   UNK N   1      32.101  17.410   6.058  0.00  0.00     0.163 HD
HETATM   17  O   UNK N   1      34.379  17.969   6.401  0.00  0.00    -0.267 OA
BRANCH  15  18
HETATM   18  C   UNK N   1      31.577  16.147   7.623  0.00  0.00     0.199 C 
BRANCH  18  19
HETATM   19  C   UNK N   1      30.480  17.035   8.074  0.00  0.00     0.099 A 
HETATM   20  N   UNK N   1      30.628  17.753   9.220  0.00  0.00    -0.354 N 
HETATM   21  C   UNK N   1      29.607  18.502   9.708  0.00  0.00     0.091 A 
ATOM     22  HN  UNK N   1      31.517  17.728   9.719  1.00  0.00     0.166 HD
HETATM   23  C   UNK N   1      28.390  18.538   9.032  0.00  0.00     0.034 A 
HETATM   24  C   UNK N   1      28.257  17.798   7.858  0.00  0.00     0.091 A 
HETATM   25  N   UNK N   1      29.299  17.055   7.402  0.00  0.00    -0.354 N 
ATOM     26  HN  UNK N   1      29.194  16.507   6.548  1.00  0.00     0.166 HD
ENDBRANCH  18  19
ENDBRANCH  15  18
ENDBRANCH   1  14
BRANCH   2  27
HETATM   27  N   UNK N   1      35.442  14.742   6.780  0.00  0.00    -0.371 N 
HETATM   28  H   UNK N   1      36.038  15.122   6.094  0.00  0.00     0.161 HD
BRANCH  27  29
HETATM   29  C   UNK N   1      34.674  13.549   6.489  0.00  0.00     0.160 C 
BRANCH  29  30
HETATM   30  C   UNK N   1      33.699  13.874   5.421  0.00  0.00    -0.039 A 
HETATM   31  C   UNK N   1      32.409  13.347   5.474  0.00  0.00     0.035 A 
HETATM   32  C   UNK N   1      31.436  13.795   4.578  0.00  0.00     0.068 A 
HETATM   33  C   UNK N   1      31.747  14.798   3.645  0.00  0.00     0.089 A 
HETATM   34 Cl   UNK N   1      29.812  13.146   4.694  0.00  0.00    -0.081 Cl
HETATM   35  C   UNK N   1      33.062  15.277   3.564  0.00  0.00     0.039 A 
HETATM   36  C   UNK N   1      34.033  14.815   4.444  0.00  0.00     0.011 A 
BRANCH  33  37
HETATM   37  O   UNK N   1      30.771  15.309   2.859  0.00  0.00    -0.354 OA
HETATM   38  C   UNK N   1      30.052  16.434   3.201  0.00  0.00     0.210 C 
ENDBRANCH  33  37
ENDBRANCH  29  30
ENDBRANCH  27  29
ENDBRANCH   2  27
BRANCH  11  39
HETATM   39  C   UNK N   1      36.205  12.257  10.476  0.00  0.00     0.190 C 
BRANCH  39  40
HETATM   40  O   UNK N   1      36.999  12.025   9.353  0.00  0.00    -0.399 OA
HETATM   41  H   UNK N   1      37.216  12.459   8.513  0.00  0.00     0.209 HD
ENDBRANCH  39  40
ENDBRANCH  11  39
TORSDOF 9
ENDMDL
MODEL 3
REMARK VINA RESULT:      -7.4      2.986      6.281
REMARK  9 active torsions:
REMARK  status: ('A' for Active; 'I' for Inactive)
REMARK    1  A    between atoms: C_5  and  C_9 
REMARK    2  A    between atoms: C_9  and  N_10 
REMARK       I    between atoms: N_10  and  C_11 
REMARK    3  A    between atoms: C_11  and  C_12 
REMARK    4  A    between atoms: C_14  and  N_22 
REMARK       I    between atoms: C_17  and  N_21 
REMARK    5  A    between atoms: N_22  and  C_23 
REMARK    6  A    between atoms: C_23  and  C_24 
REMARK    7  A    between atoms: C_26  and  C_37 
REMARK    8  A    between atoms: C_31  and  O_34 
REMARK    9  A    between atoms: C_37  and  O_38 
ROOT
HETATM    1  C   UNK N   1      21.060  16.982   5.046  0.00  0.00     0.092 A 
HETATM    2  C   UNK N   1      20.848  15.642   5.461  0.00  0.00     0.134 A 
HETATM    3  N   UNK N   1      20.217  14.772   4.625  0.00  0.00    -0.176 N 
ATOM      4  HN  UNK N   1      20.062  13.812   4.932  1.00  0.00     0.186 HD
HETATM    5  C   UNK N   1      19.787  15.146   3.392  0.00  0.00     0.682 A 
HETATM    6  N   UNK N   1      19.946  16.437   2.995  0.00  0.00    -0.201 N 
ATOM      7  HN  UNK N   1      19.599  16.727   2.080  1.00  0.00     0.183 HD
HETATM    8  C   UNK N   1      20.555  17.343   3.794  0.00  0.00     0.127 A 
HETATM    9  N   UNK N   1      19.316  14.182   2.451  0.00  0.00    -0.211 N 
HETATM   10  C   UNK N   1      19.013  14.547   1.099  0.00  0.00     0.142 C 
HETATM   11  C   UNK N   1      19.232  12.767   2.724  0.00  0.00     0.125 C 
HETATM   12  C   UNK N   1      19.076  12.131   1.350  0.00  0.00     0.029 C 
HETATM   13  C   UNK N   1      18.653  13.249   0.403  0.00  0.00     0.022 C 
ENDROOT
BRANCH   1  14
HETATM   14  C   UNK N   1      21.807  17.981   5.897  0.00  0.00     0.257 C 
HETATM   15  N   UNK N   1      23.115  18.297   5.706  0.00  0.00    -0.350 N 
HETATM   16  H   UNK N   1      23.522  18.918   6.352  0.00  0.00     0.163 HD
HETATM   17  O   UNK N   1      21.225  18.550   6.803  0.00  0.00    -0.267 OA
BRANCH  15  18
HETATM   18  C   UNK N   1      23.959  17.811   4.649  0.00  0.00     0.199 C 
BRANCH  18  19
HETATM   19  C   UNK N   1      25.173  18.660   4.654  0.00  0.00     0.099 A 
HETATM   20  N   UNK N   1      25.361  19.568   3.659  0.00  0.00    -0.354 N 
HETATM   21  C   UNK N   1      26.505  20.293   3.585  0.00  0.00     0.091 A 
ATOM     22  HN  UNK N   1      24.632  19.704   2.958  1.00  0.00     0.166 HD
HETATM   23  C   UNK N   1      27.504  20.108   4.537  0.00  0.00     0.034 A 
HETATM   24  C   UNK N   1      27.293  19.176   5.552  0.00  0.00     0.091 A 
HETATM   25  N   UNK N   1      26.138  18.465   5.591  0.00  0.00    -0.354 N 
ATOM     26  HN  UNK N   1      25.992  17.776   6.330  1.00  0.00     0.166 HD
ENDBRANCH  18  19
ENDBRANCH  15  18
ENDBRANCH   1  14
BRANCH   2  27
HETATM   27  N   UNK N   1      21.391  15.147   6.673  0.00  0.00    -0.371 N 
HETATM   28  H   UNK N   1      22.368  15.117   6.796  0.00  0.00     0.161 HD
BRANCH  27  29
HETATM   29  C   UNK N   1      20.515  14.688   7.730  0.00  0.00     0.160 C 
BRANCH  29  30
HETATM   30  C   UNK N   1      21.308  13.848   8.658  0.00  0.00    -0.039 A 
HETATM   31  C   UNK N   1      22.698  13.815   8.550  0.00  0.00     0.035 A 
HETATM   32  C   UNK N   1      23.459  13.177   9.532  0.00  0.00     0.068 A 
HETATM   33  C   UNK N   1      22.827  12.596  10.644  0.00  0.00     0.089 A 
HETATM   34 Cl   UNK N   1      25.206  13.186   9.393  0.00  0.00    -0.081 Cl
HETATM   35  C   UNK N   1      21.426  12.586  10.711  0.00  0.00     0.039 A 
HETATM   36  C   UNK N   1      20.672  13.204   9.722  0.00  0.00     0.011 A 
BRANCH  33  37
HETATM   37  O   UNK N   1      23.574  12.082  11.648  0.00  0.00    -0.354 OA
HETATM   38  C   UNK N   1      23.088  11.915  12.928  0.00  0.00     0.210 C 
ENDBRANCH  33  37
ENDBRANCH  29  30
ENDBRANCH  27  29
ENDBRANCH   2  27
BRANCH  11  39
HETATM   39  C   UNK N   1      20.505  12.224   3.342  0.00  0.00     0.190 C 
BRANCH  39  40
HETATM   40  O   UNK N   1      20.253  11.823   4.654  0.00  0.00    -0.399 OA
HETATM   41  H   UNK N   1      20.202  12.217   5.539  0.00  0.00     0.209 HD
ENDBRANCH  39  40
ENDBRANCH  11  39
TORSDOF 9
ENDMDL
MODEL 4
REMARK VINA RESULT:      -7.3      3.634      8.556
REMARK  9 active torsions:
REMARK  status: ('A' for Active; 'I' for Inactive)
REMARK    1  A    between atoms: C_5  and  C_9 
REMARK    2  A    between atoms: C_9  and  N_10 
REMARK       I    between atoms: N_10  and  C_11 
REMARK    3  A    between atoms: C_11  and  C_12 
REMARK    4  A    between atoms: C_14  and  N_22 
REMARK       I    between atoms: C_17  and  N_21 
REMARK    5  A    between atoms: N_22  and  C_23 
REMARK    6  A    between atoms: C_23  and  C_24 
REMARK    7  A    between atoms: C_26  and  C_37 
REMARK    8  A    between atoms: C_31  and  O_34 
REMARK    9  A    between atoms: C_37  and  O_38 
ROOT
HETATM    1  C   UNK N   1      24.672  14.406   5.841  0.00  0.00     0.092 A 
HETATM    2  C   UNK N   1      23.284  14.280   6.104  0.00  0.00     0.134 A 
HETATM    3  N   UNK N   1      22.870  13.633   7.229  0.00  0.00    -0.176 N 
ATOM      4  HN  UNK N   1      21.871  13.540   7.409  1.00  0.00     0.186 HD
HETATM    5  C   UNK N   1      23.752  13.108   8.120  0.00  0.00     0.682 A 
HETATM    6  N   UNK N   1      25.085  13.184   7.861  0.00  0.00    -0.201 N 
ATOM      7  HN  UNK N   1      25.747  12.767   8.515  1.00  0.00     0.183 HD
HETATM    8  C   UNK N   1      25.546  13.806   6.751  0.00  0.00     0.127 A 
HETATM    9  N   UNK N   1      23.315  12.618   9.387  0.00  0.00    -0.211 N 
HETATM   10  C   UNK N   1      24.255  12.211  10.391  0.00  0.00     0.142 C 
HETATM   11  C   UNK N   1      21.938  12.613   9.816  0.00  0.00     0.125 C 
HETATM   12  C   UNK N   1      22.017  12.394  11.321  0.00  0.00     0.029 C 
HETATM   13  C   UNK N   1      23.417  11.863  11.606  0.00  0.00     0.022 C 
ENDROOT
BRANCH   1  14
HETATM   14  C   UNK N   1      25.200  15.165   4.646  0.00  0.00     0.257 C 
HETATM   15  N   UNK N   1      26.102  16.176   4.740  0.00  0.00    -0.350 N 
HETATM   16  H   UNK N   1      26.338  16.642   3.906  0.00  0.00     0.163 HD
HETATM   17  O   UNK N   1      24.815  14.866   3.530  0.00  0.00    -0.267 OA
BRANCH  15  18
HETATM   18  C   UNK N   1      26.747  16.628   5.943  0.00  0.00     0.199 C 
BRANCH  18  19
HETATM   19  C   UNK N   1      27.084  18.055   5.731  0.00  0.00     0.099 A 
HETATM   20  N   UNK N   1      27.283  18.863   6.806  0.00  0.00    -0.354 N 
HETATM   21  C   UNK N   1      27.501  20.192   6.646  0.00  0.00     0.091 A 
ATOM     22  HN  UNK N   1      27.268  18.465   7.745  1.00  0.00     0.166 HD
HETATM   23  C   UNK N   1      27.521  20.742   5.367  0.00  0.00     0.034 A 
HETATM   24  C   UNK N   1      27.318  19.898   4.275  0.00  0.00     0.091 A 
HETATM   25  N   UNK N   1      27.097  18.573   4.475  0.00  0.00    -0.354 N 
ATOM     26  HN  UNK N   1      26.938  17.960   3.674  1.00  0.00     0.166 HD
ENDBRANCH  18  19
ENDBRANCH  15  18
ENDBRANCH   1  14
BRANCH   2  27
HETATM   27  N   UNK N   1      22.315  14.922   5.295  0.00  0.00    -0.371 N 
HETATM   28  H   UNK N   1      22.249  14.698   4.338  0.00  0.00     0.161 HD
BRANCH  27  29
HETATM   29  C   UNK N   1      21.419  15.904   5.870  0.00  0.00     0.160 C 
BRANCH  29  30
HETATM   30  C   UNK N   1      21.303  17.038   4.922  0.00  0.00    -0.039 A 
HETATM   31  C   UNK N   1      22.396  17.876   4.705  0.00  0.00     0.035 A 
HETATM   32  C   UNK N   1      22.353  18.826   3.683  0.00  0.00     0.068 A 
HETATM   33  C   UNK N   1      21.223  18.916   2.853  0.00  0.00     0.089 A 
HETATM   34 Cl   UNK N   1      23.756  19.840   3.405  0.00  0.00    -0.081 Cl
HETATM   35  C   UNK N   1      20.109  18.106   3.119  0.00  0.00     0.039 A 
HETATM   36  C   UNK N   1      20.148  17.176   4.150  0.00  0.00     0.011 A 
BRANCH  33  37
HETATM   37  O   UNK N   1      21.233  19.758   1.793  0.00  0.00    -0.354 OA
HETATM   38  C   UNK N   1      20.663  21.012   1.833  0.00  0.00     0.210 C 
ENDBRANCH  33  37
ENDBRANCH  29  30
ENDBRANCH  27  29
ENDBRANCH   2  27
BRANCH  11  39
HETATM   39  C   UNK N   1      21.256  13.946   9.579  0.00  0.00     0.190 C 
BRANCH  39  40
HETATM   40  O   UNK N   1      20.233  13.786   8.644  0.00  0.00    -0.399 OA
HETATM   41  H   UNK N   1      19.286  13.977   8.563  0.00  0.00     0.209 HD
ENDBRANCH  39  40
ENDBRANCH  11  39
TORSDOF 9
ENDMDL
MODEL 5
REMARK VINA RESULT:      -7.3     12.176     14.791
REMARK  9 active torsions:
REMARK  status: ('A' for Active; 'I' for Inactive)
REMARK    1  A    between atoms: C_5  and  C_9 
REMARK    2  A    between atoms: C_9  and  N_10 
REMARK       I    between atoms: N_10  and  C_11 
REMARK    3  A    between atoms: C_11  and  C_12 
REMARK    4  A    between atoms: C_14  and  N_22 
REMARK       I    between atoms: C_17  and  N_21 
REMARK    5  A    between atoms: N_22  and  C_23 
REMARK    6  A    between atoms: C_23  and  C_24 
REMARK    7  A    between atoms: C_26  and  C_37 
REMARK    8  A    between atoms: C_31  and  O_34 
REMARK    9  A    between atoms: C_37  and  O_38 
ROOT
HETATM    1  C   UNK N   1      35.757  13.955  11.183  0.00  0.00     0.092 A 
HETATM    2  C   UNK N   1      34.908  13.174  10.358  0.00  0.00     0.134 A 
HETATM    3  N   UNK N   1      33.906  13.781   9.661  0.00  0.00    -0.176 N 
ATOM      4  HN  UNK N   1      33.295  13.212   9.074  1.00  0.00     0.186 HD
HETATM    5  C   UNK N   1      33.698  15.121   9.725  0.00  0.00     0.682 A 
HETATM    6  N   UNK N   1      34.476  15.878  10.544  0.00  0.00    -0.201 N 
ATOM      7  HN  UNK N   1      34.304  16.881  10.615  1.00  0.00     0.183 HD
HETATM    8  C   UNK N   1      35.477  15.321  11.266  0.00  0.00     0.127 A 
HETATM    9  N   UNK N   1      32.784  15.768   8.840  0.00  0.00    -0.211 N 
HETATM   10  C   UNK N   1      32.678  17.197   8.794  0.00  0.00     0.142 C 
HETATM   11  C   UNK N   1      32.005  15.076   7.842  0.00  0.00     0.125 C 
HETATM   12  C   UNK N   1      31.520  16.182   6.915  0.00  0.00     0.029 C 
HETATM   13  C   UNK N   1      31.698  17.491   7.675  0.00  0.00     0.022 C 
ENDROOT
BRANCH   1  14
HETATM   14  C   UNK N   1      36.925  13.358  11.933  0.00  0.00     0.257 C 
HETATM   15  N   UNK N   1      36.891  13.064  13.259  0.00  0.00    -0.350 N 
HETATM   16  H   UNK N   1      37.725  12.731  13.663  0.00  0.00     0.163 HD
HETATM   17  O   UNK N   1      37.957  13.113  11.335  0.00  0.00    -0.267 OA
BRANCH  15  18
HETATM   18  C   UNK N   1      35.753  13.192  14.127  0.00  0.00     0.199 C 
BRANCH  18  19
HETATM   19  C   UNK N   1      36.206  13.965  15.307  0.00  0.00     0.099 A 
HETATM   20  N   UNK N   1      35.635  13.733  16.519  0.00  0.00    -0.354 N 
HETATM   21  C   UNK N   1      35.962  14.488  17.598  0.00  0.00     0.091 A 
ATOM     22  HN  UNK N   1      34.951  12.983  16.619  1.00  0.00     0.166 HD
HETATM   23  C   UNK N   1      36.893  15.516  17.467  0.00  0.00     0.034 A 
HETATM   24  C   UNK N   1      37.471  15.737  16.218  0.00  0.00     0.091 A 
HETATM   25  N   UNK N   1      37.115  14.964  15.159  0.00  0.00    -0.354 N 
ATOM     26  HN  UNK N   1      37.532  15.136  14.244  1.00  0.00     0.166 HD
ENDBRANCH  18  19
ENDBRANCH  15  18
ENDBRANCH   1  14
BRANCH   2  27
HETATM   27  N   UNK N   1      35.153  11.797  10.134  0.00  0.00    -0.371 N 
HETATM   28  H   UNK N   1      35.980  11.514   9.680  0.00  0.00     0.161 HD
BRANCH  27  29
HETATM   29  C   UNK N   1      34.195  10.805  10.574  0.00  0.00     0.160 C 
BRANCH  29  30
HETATM   30  C   UNK N   1      34.674  10.230  11.853  0.00  0.00    -0.039 A 
HETATM   31  C   UNK N   1      35.978   9.746  11.951  0.00  0.00     0.035 A 
HETATM   32  C   UNK N   1      36.493   9.376  13.195  0.00  0.00     0.068 A 
HETATM   33  C   UNK N   1      35.709   9.521  14.352  0.00  0.00     0.089 A 
HETATM   34 Cl   UNK N   1      38.148   8.809  13.296  0.00  0.00    -0.081 Cl
HETATM   35  C   UNK N   1      34.380   9.955  14.231  0.00  0.00     0.039 A 
HETATM   36  C   UNK N   1      33.865  10.302  12.989  0.00  0.00     0.011 A 
BRANCH  33  37
HETATM   37  O   UNK N   1      36.251   9.272  15.566  0.00  0.00    -0.354 OA
HETATM   38  C   UNK N   1      36.715  10.271  16.394  0.00  0.00     0.210 C 
ENDBRANCH  33  37
ENDBRANCH  29  30
ENDBRANCH  27  29
ENDBRANCH   2  27
BRANCH  11  39
HETATM   39  C   UNK N   1      32.844  14.118   7.019  0.00  0.00     0.190 C 
BRANCH  39  40
HETATM   40  O   UNK N   1      32.487  12.805   7.326  0.00  0.00    -0.399 OA
HETATM   41  H   UNK N   1      32.774  12.093   7.918  0.00  0.00     0.209 HD
ENDBRANCH  39  40
ENDBRANCH  11  39
TORSDOF 9
ENDMDL
MODEL 6
REMARK VINA RESULT:      -7.2      8.079     11.835
REMARK  9 active torsions:
REMARK  status: ('A' for Active; 'I' for Inactive)
REMARK    1  A    between atoms: C_5  and  C_9 
REMARK    2  A    between atoms: C_9  and  N_10 
REMARK       I    between atoms: N_10  and  C_11 
REMARK    3  A    between atoms: C_11  and  C_12 
REMARK    4  A    between atoms: C_14  and  N_22 
REMARK       I    between atoms: C_17  and  N_21 
REMARK    5  A    between atoms: N_22  and  C_23 
REMARK    6  A    between atoms: C_23  and  C_24 
REMARK    7  A    between atoms: C_26  and  C_37 
REMARK    8  A    between atoms: C_31  and  O_34 
REMARK    9  A    between atoms: C_37  and  O_38 
ROOT
HETATM    1  C   UNK N   1      33.258  16.809   6.628  0.00  0.00     0.092 A 
HETATM    2  C   UNK N   1      31.911  16.770   6.184  0.00  0.00     0.134 A 
HETATM    3  N   UNK N   1      31.588  16.035   5.084  0.00  0.00    -0.176 N 
ATOM      4  HN  UNK N   1      30.619  16.016   4.766  1.00  0.00     0.186 HD
HETATM    5  C   UNK N   1      32.521  15.325   4.397  0.00  0.00     0.682 A 
HETATM    6  N   UNK N   1      33.823  15.385   4.784  0.00  0.00    -0.201 N 
ATOM      7  HN  UNK N   1      34.528  14.875   4.253  1.00  0.00     0.183 HD
HETATM    8  C   UNK N   1      34.196  16.111   5.863  0.00  0.00     0.127 A 
HETATM    9  N   UNK N   1      32.140  14.402   3.377  0.00  0.00    -0.211 N 
HETATM   10  C   UNK N   1      33.102  13.535   2.761  0.00  0.00     0.142 C 
HETATM   11  C   UNK N   1      30.774  14.163   2.978  0.00  0.00     0.125 C 
HETATM   12  C   UNK N   1      30.837  12.861   2.192  0.00  0.00     0.029 C 
HETATM   13  C   UNK N   1      32.302  12.650   1.825  0.00  0.00     0.022 C 
ENDROOT
BRANCH   1  14
HETATM   14  C   UNK N   1      33.675  17.553   7.875  0.00  0.00     0.257 C 
HETATM   15  N   UNK N   1      33.577  17.030   9.126  0.00  0.00    -0.350 N 
HETATM   16  H   UNK N   1      33.823  17.619   9.875  0.00  0.00     0.163 HD
HETATM   17  O   UNK N   1      34.129  18.678   7.777  0.00  0.00    -0.267 OA
BRANCH  15  18
HETATM   18  C   UNK N   1      33.152  15.698   9.457  0.00  0.00     0.199 C 
BRANCH  18  19
HETATM   19  C   UNK N   1      34.133  15.172  10.434  0.00  0.00     0.099 A 
HETATM   20  N   UNK N   1      34.133  13.846  10.737  0.00  0.00    -0.354 N 
HETATM   21  C   UNK N   1      34.955  13.351  11.696  0.00  0.00     0.091 A 
ATOM     22  HN  UNK N   1      33.506  13.216  10.238  1.00  0.00     0.166 HD
HETATM   23  C   UNK N   1      35.812  14.208  12.383  0.00  0.00     0.034 A 
HETATM   24  C   UNK N   1      35.801  15.563  12.058  0.00  0.00     0.091 A 
HETATM   25  N   UNK N   1      34.960  16.024  11.096  0.00  0.00    -0.354 N 
ATOM     26  HN  UNK N   1      34.948  17.018  10.868  1.00  0.00     0.166 HD
ENDBRANCH  18  19
ENDBRANCH  15  18
ENDBRANCH   1  14
BRANCH   2  27
HETATM   27  N   UNK N   1      30.867  17.370   6.930  0.00  0.00    -0.371 N 
HETATM   28  H   UNK N   1      31.049  18.177   7.465  0.00  0.00     0.161 HD
BRANCH  27  29
HETATM   29  C   UNK N   1      29.535  16.803   6.907  0.00  0.00     0.160 C 
BRANCH  29  30
HETATM   30  C   UNK N   1      28.665  17.693   6.103  0.00  0.00    -0.039 A 
HETATM   31  C   UNK N   1      28.311  18.948   6.594  0.00  0.00     0.035 A 
HETATM   32  C   UNK N   1      27.650  19.860   5.768  0.00  0.00     0.068 A 
HETATM   33  C   UNK N   1      27.370  19.524   4.433  0.00  0.00     0.089 A 
HETATM   34 Cl   UNK N   1      27.253  21.446   6.398  0.00  0.00    -0.081 Cl
HETATM   35  C   UNK N   1      27.680  18.237   3.968  0.00  0.00     0.039 A 
HETATM   36  C   UNK N   1      28.319  17.326   4.800  0.00  0.00     0.011 A 
BRANCH  33  37
HETATM   37  O   UNK N   1      26.835  20.451   3.605  0.00  0.00    -0.354 OA
HETATM   38  C   UNK N   1      25.616  20.279   2.984  0.00  0.00     0.210 C 
ENDBRANCH  33  37
ENDBRANCH  29  30
ENDBRANCH  27  29
ENDBRANCH   2  27
BRANCH  11  39
HETATM   39  C   UNK N   1      29.858  13.941   4.165  0.00  0.00     0.190 C 
BRANCH  39  40
HETATM   40  O   UNK N   1      30.390  12.946   4.985  0.00  0.00    -0.399 OA
HETATM   41  H   UNK N   1      31.138  12.824   5.590  0.00  0.00     0.209 HD
ENDBRANCH  39  40
ENDBRANCH  11  39
TORSDOF 9
ENDMDL
MODEL 7
REMARK VINA RESULT:      -7.2      3.799      9.293
REMARK  9 active torsions:
REMARK  status: ('A' for Active; 'I' for Inactive)
REMARK    1  A    between atoms: C_5  and  C_9 
REMARK    2  A    between atoms: C_9  and  N_10 
REMARK       I    between atoms: N_10  and  C_11 
REMARK    3  A    between atoms: C_11  and  C_12 
REMARK    4  A    between atoms: C_14  and  N_22 
REMARK       I    between atoms: C_17  and  N_21 
REMARK    5  A    between atoms: N_22  and  C_23 
REMARK    6  A    between atoms: C_23  and  C_24 
REMARK    7  A    between atoms: C_26  and  C_37 
REMARK    8  A    between atoms: C_31  and  O_34 
REMARK    9  A    between atoms: C_37  and  O_38 
ROOT
HETATM    1  C   UNK N   1      25.308  15.393   6.348  0.00  0.00     0.092 A 
HETATM    2  C   UNK N   1      23.894  15.344   6.248  0.00  0.00     0.134 A 
HETATM    3  N   UNK N   1      23.190  14.536   7.089  0.00  0.00    -0.176 N 
ATOM      4  HN  UNK N   1      22.174  14.500   7.008  1.00  0.00     0.186 HD
HETATM    5  C   UNK N   1      23.803  13.777   8.035  0.00  0.00     0.682 A 
HETATM    6  N   UNK N   1      25.160  13.782   8.116  0.00  0.00    -0.201 N 
ATOM      7  HN  UNK N   1      25.623  13.192   8.807  1.00  0.00     0.183 HD
HETATM    8  C   UNK N   1      25.905  14.558   7.295  0.00  0.00     0.127 A 
HETATM    9  N   UNK N   1      23.047  13.099   9.038  0.00  0.00    -0.211 N 
HETATM   10  C   UNK N   1      23.693  12.429  10.129  0.00  0.00     0.142 C 
HETATM   11  C   UNK N   1      21.608  13.135   9.123  0.00  0.00     0.125 C 
HETATM   12  C   UNK N   1      21.304  12.632  10.527  0.00  0.00     0.029 C 
HETATM   13  C   UNK N   1      22.567  11.935  11.018  0.00  0.00     0.022 C 
ENDROOT
BRANCH   1  14
HETATM   14  C   UNK N   1      26.145  16.313   5.489  0.00  0.00     0.257 C 
HETATM   15  N   UNK N   1      27.128  17.109   5.984  0.00  0.00    -0.350 N 
HETATM   16  H   UNK N   1      27.576  17.712   5.347  0.00  0.00     0.163 HD
HETATM   17  O   UNK N   1      25.949  16.353   4.288  0.00  0.00    -0.267 OA
BRANCH  15  18
HETATM   18  C   UNK N   1      27.579  17.152   7.348  0.00  0.00     0.199 C 
BRANCH  18  19
HETATM   19  C   UNK N   1      29.059  17.109   7.305  0.00  0.00     0.099 A 
HETATM   20  N   UNK N   1      29.772  17.473   8.405  0.00  0.00    -0.354 N 
HETATM   21  C   UNK N   1      31.126  17.534   8.368  0.00  0.00     0.091 A 
ATOM     22  HN  UNK N   1      29.282  17.705   9.269  1.00  0.00     0.166 HD
HETATM   23  C   UNK N   1      31.801  17.222   7.190  0.00  0.00     0.034 A 
HETATM   24  C   UNK N   1      31.055  16.847   6.073  0.00  0.00     0.091 A 
HETATM   25  N   UNK N   1      29.699  16.803   6.147  0.00  0.00    -0.354 N 
ATOM     26  HN  UNK N   1      29.157  16.539   5.324  1.00  0.00     0.166 HD
ENDBRANCH  18  19
ENDBRANCH  15  18
ENDBRANCH   1  14
BRANCH   2  27
HETATM   27  N   UNK N   1      23.181  16.209   5.382  0.00  0.00    -0.371 N 
HETATM   28  H   UNK N   1      23.303  16.137   4.408  0.00  0.00     0.161 HD
BRANCH  27  29
HETATM   29  C   UNK N   1      22.274  17.199   5.926  0.00  0.00     0.160 C 
BRANCH  29  30
HETATM   30  C   UNK N   1      22.168  18.314   4.955  0.00  0.00    -0.039 A 
HETATM   31  C   UNK N   1      23.322  18.858   4.393  0.00  0.00     0.035 A 
HETATM   32  C   UNK N   1      23.221  19.776   3.346  0.00  0.00     0.068 A 
HETATM   33  C   UNK N   1      21.959  20.128   2.838  0.00  0.00     0.089 A 
HETATM   34 Cl   UNK N   1      24.688  20.414   2.630  0.00  0.00    -0.081 Cl
HETATM   35  C   UNK N   1      20.805  19.618   3.450  0.00  0.00     0.039 A 
HETATM   36  C   UNK N   1      20.909  18.720   4.505  0.00  0.00     0.011 A 
BRANCH  33  37
HETATM   37  O   UNK N   1      21.873  20.927   1.750  0.00  0.00    -0.354 OA
HETATM   38  C   UNK N   1      20.861  20.812   0.820  0.00  0.00     0.210 C 
ENDBRANCH  33  37
ENDBRANCH  29  30
ENDBRANCH  27  29
ENDBRANCH   2  27
BRANCH  11  39
HETATM   39  C   UNK N   1      21.060  14.545   9.009  0.00  0.00     0.190 C 
BRANCH  39  40
HETATM   40  O   UNK N   1      19.671  14.517   9.135  0.00  0.00    -0.399 OA
HETATM   41  H   UNK N   1      18.969  13.870   9.305  0.00  0.00     0.209 HD
ENDBRANCH  39  40
ENDBRANCH  11  39
TORSDOF 9
ENDMDL
MODEL 8
REMARK VINA RESULT:      -7.2     11.446     13.858
REMARK  9 active torsions:
REMARK  status: ('A' for Active; 'I' for Inactive)
REMARK    1  A    between atoms: C_5  and  C_9 
REMARK    2  A    between atoms: C_9  and  N_10 
REMARK       I    between atoms: N_10  and  C_11 
REMARK    3  A    between atoms: C_11  and  C_12 
REMARK    4  A    between atoms: C_14  and  N_22 
REMARK       I    between atoms: C_17  and  N_21 
REMARK    5  A    between atoms: N_22  and  C_23 
REMARK    6  A    between atoms: C_23  and  C_24 
REMARK    7  A    between atoms: C_26  and  C_37 
REMARK    8  A    between atoms: C_31  and  O_34 
REMARK    9  A    between atoms: C_37  and  O_38 
ROOT
HETATM    1  C   UNK N   1      35.104  15.378   9.098  0.00  0.00     0.092 A 
HETATM    2  C   UNK N   1      35.417  14.420  10.095  0.00  0.00     0.134 A 
HETATM    3  N   UNK N   1      35.983  13.234   9.732  0.00  0.00    -0.176 N 
ATOM      4  HN  UNK N   1      36.199  12.547  10.454  1.00  0.00     0.186 HD
HETATM    5  C   UNK N   1      36.268  12.942   8.437  0.00  0.00     0.682 A 
HETATM    6  N   UNK N   1      35.936  13.834   7.465  0.00  0.00    -0.201 N 
ATOM      7  HN  UNK N   1      36.124  13.605   6.489  1.00  0.00     0.183 HD
HETATM    8  C   UNK N   1      35.360  15.019   7.772  0.00  0.00     0.127 A 
HETATM    9  N   UNK N   1      37.042  11.794   8.094  0.00  0.00    -0.211 N 
HETATM   10  C   UNK N   1      37.481  11.568   6.747  0.00  0.00     0.142 C 
HETATM   11  C   UNK N   1      37.558  10.854   9.059  0.00  0.00     0.125 C 
HETATM   12  C   UNK N   1      38.616  10.073   8.292  0.00  0.00     0.029 C 
HETATM   13  C   UNK N   1      38.350  10.326   6.812  0.00  0.00     0.022 C 
ENDROOT
BRANCH   1  14
HETATM   14  C   UNK N   1      34.533  16.736   9.435  0.00  0.00     0.257 C 
HETATM   15  N   UNK N   1      33.289  17.138   9.065  0.00  0.00    -0.350 N 
HETATM   16  H   UNK N   1      33.036  18.063   9.287  0.00  0.00     0.163 HD
HETATM   17  O   UNK N   1      35.205  17.524  10.077  0.00  0.00    -0.267 OA
BRANCH  15  18
HETATM   18  C   UNK N   1      32.308  16.339   8.384  0.00  0.00     0.199 C 
BRANCH  18  19
HETATM   19  C   UNK N   1      31.027  17.078   8.473  0.00  0.00     0.099 A 
HETATM   20  N   UNK N   1      30.118  16.967   7.466  0.00  0.00    -0.354 N 
HETATM   21  C   UNK N   1      28.978  17.702   7.475  0.00  0.00     0.091 A 
ATOM     22  HN  UNK N   1      30.297  16.324   6.695  1.00  0.00     0.166 HD
HETATM   23  C   UNK N   1      28.731  18.584   8.524  0.00  0.00     0.034 A 
HETATM   24  C   UNK N   1      29.671  18.682   9.548  0.00  0.00     0.091 A 
HETATM   25  N   UNK N   1      30.804  17.935   9.503  0.00  0.00    -0.354 N 
ATOM     26  HN  UNK N   1      31.495  18.017  10.250  1.00  0.00     0.166 HD
ENDBRANCH  18  19
ENDBRANCH  15  18
ENDBRANCH   1  14
BRANCH   2  27
HETATM   27  N   UNK N   1      35.276  14.711  11.474  0.00  0.00    -0.371 N 
HETATM   28  H   UNK N   1      34.423  15.064  11.816  0.00  0.00     0.161 HD
BRANCH  27  29
HETATM   29  C   UNK N   1      36.382  14.491  12.382  0.00  0.00     0.160 C 
BRANCH  29  30
HETATM   30  C   UNK N   1      35.869  13.776  13.575  0.00  0.00    -0.039 A 
HETATM   31  C   UNK N   1      34.968  12.725  13.419  0.00  0.00     0.035 A 
HETATM   32  C   UNK N   1      34.626  11.931  14.516  0.00  0.00     0.068 A 
HETATM   33  C   UNK N   1      35.215  12.172  15.769  0.00  0.00     0.089 A 
HETATM   34 Cl   UNK N   1      33.522  10.590  14.285  0.00  0.00    -0.081 Cl
HETATM   35  C   UNK N   1      36.076  13.269  15.924  0.00  0.00     0.039 A 
HETATM   36  C   UNK N   1      36.397  14.068  14.834  0.00  0.00     0.011 A 
BRANCH  33  37
HETATM   37  O   UNK N   1      34.970  11.330  16.799  0.00  0.00    -0.354 OA
HETATM   38  C   UNK N   1      35.310  11.628  18.102  0.00  0.00     0.210 C 
ENDBRANCH  33  37
ENDBRANCH  29  30
ENDBRANCH  27  29
ENDBRANCH   2  27
BRANCH  11  39
HETATM   39  C   UNK N   1      38.245  11.542  10.222  0.00  0.00     0.190 C 
BRANCH  39  40
HETATM   40  O   UNK N   1      37.546  11.276  11.400  0.00  0.00    -0.399 OA
HETATM   41  H   UNK N   1      37.237  11.753  12.186  0.00  0.00     0.209 HD
ENDBRANCH  39  40
ENDBRANCH  11  39
TORSDOF 9
ENDMDL
MODEL 9
REMARK VINA RESULT:      -7.2      3.790      8.864
REMARK  9 active torsions:
REMARK  status: ('A' for Active; 'I' for Inactive)
REMARK    1  A    between atoms: C_5  and  C_9 
REMARK    2  A    between atoms: C_9  and  N_10 
REMARK       I    between atoms: N_10  and  C_11 
REMARK    3  A    between atoms: C_11  and  C_12 
REMARK    4  A    between atoms: C_14  and  N_22 
REMARK       I    between atoms: C_17  and  N_21 
REMARK    5  A    between atoms: N_22  and  C_23 
REMARK    6  A    between atoms: C_23  and  C_24 
REMARK    7  A    between atoms: C_26  and  C_37 
REMARK    8  A    between atoms: C_31  and  O_34 
REMARK    9  A    between atoms: C_37  and  O_38 
ROOT
HETATM    1  C   UNK N   1      24.463  15.223   6.283  0.00  0.00     0.092 A 
HETATM    2  C   UNK N   1      23.084  14.984   6.511  0.00  0.00     0.134 A 
HETATM    3  N   UNK N   1      22.706  14.147   7.518  0.00  0.00    -0.176 N 
ATOM      4  HN  UNK N   1      21.713  13.974   7.673  1.00  0.00     0.186 HD
HETATM    5  C   UNK N   1      23.615  13.537   8.323  0.00  0.00     0.682 A 
HETATM    6  N   UNK N   1      24.941  13.723   8.090  0.00  0.00    -0.201 N 
ATOM      7  HN  UNK N   1      25.626  13.244   8.676  1.00  0.00     0.183 HD
HETATM    8  C   UNK N   1      25.368  14.534   7.094  0.00  0.00     0.127 A 
HETATM    9  N   UNK N   1      23.205  12.831   9.494  0.00  0.00    -0.211 N 
HETATM   10  C   UNK N   1      24.165  12.324  10.430  0.00  0.00     0.142 C 
HETATM   11  C   UNK N   1      21.830  12.686   9.906  0.00  0.00     0.125 C 
HETATM   12  C   UNK N   1      21.921  12.239  11.358  0.00  0.00     0.029 C 
HETATM   13  C   UNK N   1      23.348  11.745  11.569  0.00  0.00     0.022 C 
ENDROOT
BRANCH   1  14
HETATM   14  C   UNK N   1      24.949  16.186   5.225  0.00  0.00     0.257 C 
HETATM   15  N   UNK N   1      25.601  15.794   4.099  0.00  0.00    -0.350 N 
HETATM   16  H   UNK N   1      25.926  16.506   3.502  0.00  0.00     0.163 HD
HETATM   17  O   UNK N   1      24.752  17.379   5.367  0.00  0.00    -0.267 OA
BRANCH  15  18
HETATM   18  C   UNK N   1      25.858  14.439   3.696  0.00  0.00     0.199 C 
BRANCH  18  19
HETATM   19  C   UNK N   1      24.755  14.052   2.787  0.00  0.00     0.099 A 
HETATM   20  N   UNK N   1      23.929  13.028   3.132  0.00  0.00    -0.354 N 
HETATM   21  C   UNK N   1      22.970  12.590   2.280  0.00  0.00     0.091 A 
ATOM     22  HN  UNK N   1      24.034  12.583   4.044  1.00  0.00     0.166 HD
HETATM   23  C   UNK N   1      22.824  13.192   1.032  0.00  0.00     0.034 A 
HETATM   24  C   UNK N   1      23.677  14.242   0.696  0.00  0.00     0.091 A 
HETATM   25  N   UNK N   1      24.630  14.650   1.573  0.00  0.00    -0.354 N 
ATOM     26  HN  UNK N   1      25.259  15.412   1.318  1.00  0.00     0.166 HD
ENDBRANCH  18  19
ENDBRANCH  15  18
ENDBRANCH   1  14
BRANCH   2  27
HETATM   27  N   UNK N   1      22.081  15.691   5.804  0.00  0.00    -0.371 N 
HETATM   28  H   UNK N   1      21.765  16.561   6.142  0.00  0.00     0.161 HD
BRANCH  27  29
HETATM   29  C   UNK N   1      21.522  15.142   4.587  0.00  0.00     0.160 C 
BRANCH  29  30
HETATM   30  C   UNK N   1      21.349  16.248   3.615  0.00  0.00    -0.039 A 
HETATM   31  C   UNK N   1      20.738  16.003   2.386  0.00  0.00     0.035 A 
HETATM   32  C   UNK N   1      20.407  17.069   1.548  0.00  0.00     0.068 A 
HETATM   33  C   UNK N   1      20.660  18.390   1.956  0.00  0.00     0.089 A 
HETATM   34 Cl   UNK N   1      19.602  16.737   0.026  0.00  0.00    -0.081 Cl
HETATM   35  C   UNK N   1      21.328  18.619   3.168  0.00  0.00     0.039 A 
HETATM   36  C   UNK N   1      21.674  17.553   3.990  0.00  0.00     0.011 A 
BRANCH  33  37
HETATM   37  O   UNK N   1      20.233  19.422   1.192  0.00  0.00    -0.354 OA
HETATM   38  C   UNK N   1      20.762  20.691   1.292  0.00  0.00     0.210 C 
ENDBRANCH  33  37
ENDBRANCH  29  30
ENDBRANCH  27  29
ENDBRANCH   2  27
BRANCH  11  39
HETATM   39  C   UNK N   1      21.078  14.002   9.874  0.00  0.00     0.190 C 
BRANCH  39  40
HETATM   40  O   UNK N   1      20.052  13.930   8.932  0.00  0.00    -0.399 OA
HETATM   41  H   UNK N   1      19.103  14.122   8.873  0.00  0.00     0.209 HD
ENDBRANCH  39  40
ENDBRANCH  11  39
TORSDOF 9
ENDMDL
