MODEL 1
REMARK VINA RESULT:      -5.3      0.000      0.000
REMARK  10 active torsions:
REMARK  status: ('A' for Active; 'I' for Inactive)
REMARK    1  A    between atoms: O_2  and  C_19 
REMARK    2  A    between atoms: O_3  and  C_21 
REMARK       I    between atoms: N_4  and  C_11 
REMARK    3  A    between atoms: N_4  and  C_13 
REMARK    4  A    between atoms: C_5  and  C_6 
REMARK    5  A    between atoms: C_5  and  C_7 
REMARK    6  A    between atoms: C_6  and  C_8 
REMARK    7  A    between atoms: C_7  and  C_10 
REMARK    8  A    between atoms: C_8  and  C_11 
REMARK    9  A    between atoms: C_9  and  C_12 
REMARK   10  A    between atoms: C_13  and  C_14 
ROOT
HETATM    1  O   UNK N   1      27.720  29.610  -0.980  0.00  0.00    -0.274 OA
HETATM    2  N   UNK N   1      27.832  29.398  -3.204  0.00  0.00    -0.357 N 
HETATM    3  C   UNK N   1      28.397  29.541  -1.986  0.00  0.00     0.217 C 
HETATM    4  H   UNK N   1      28.420  29.347  -3.991  0.00  0.00     0.162 HD
ENDROOT
BRANCH   2   5
HETATM    5  C   UNK N   1      26.406  29.315  -3.406  0.00  0.00     0.161 C 
BRANCH   5   6
HETATM    6  C   UNK N   1      26.065  27.972  -3.970  0.00  0.00    -0.038 A 
HETATM    7  C   UNK N   1      26.506  26.815  -3.325  0.00  0.00     0.048 A 
HETATM    8  C   UNK N   1      26.221  25.545  -3.866  0.00  0.00     0.101 A 
HETATM    9  C   UNK N   1      25.487  25.457  -5.059  0.00  0.00     0.099 A 
HETATM   10  C   UNK N   1      25.039  26.611  -5.698  0.00  0.00     0.040 A 
HETATM   11  C   UNK N   1      25.327  27.863  -5.159  0.00  0.00     0.012 A 
BRANCH   8  12
HETATM   12  O   UNK N   1      26.645  24.411  -3.262  0.00  0.00    -0.353 OA
HETATM   13  C   UNK N   1      27.953  23.982  -3.288  0.00  0.00     0.210 C 
ENDBRANCH   8  12
BRANCH   9  14
HETATM   14  O   UNK N   1      25.211  24.255  -5.596  0.00  0.00    -0.358 OA
HETATM   15  H   UNK N   1      25.222  23.488  -5.059  0.00  0.00     0.217 HD
ENDBRANCH   9  14
ENDBRANCH   5   6
ENDBRANCH   2   5
BRANCH   3  16
HETATM   16  C   UNK N   1      29.878  29.658  -1.907  0.00  0.00     0.103 C 
BRANCH  16  17
HETATM   17  C   UNK N   1      30.470  29.112  -3.189  0.00  0.00     0.010 C 
BRANCH  17  18
HETATM   18  C   UNK N   1      30.947  27.697  -2.976  0.00  0.00     0.004 C 
BRANCH  18  19
HETATM   19  C   UNK N   1      30.217  26.751  -3.917  0.00  0.00     0.027 C 
BRANCH  19  20
HETATM   20  C   UNK N   1      29.982  27.454  -5.206  0.00  0.00    -0.030 C 
HETATM   21  C   UNK N   1      29.063  27.006  -6.055  0.00  0.00    -0.027 C 
BRANCH  21  22
HETATM   22  C   UNK N   1      28.741  27.788  -7.275  0.00  0.00    -0.001 C 
HETATM   23  C   UNK N   1      27.651  27.094  -8.061  0.00  0.00     0.013 C 
HETATM   24  C   UNK N   1      28.266  29.163  -6.850  0.00  0.00     0.013 C 
ENDBRANCH  21  22
ENDBRANCH  19  20
ENDBRANCH  18  19
ENDBRANCH  17  18
ENDBRANCH  16  17
ENDBRANCH   3  16
TORSDOF 10
ENDMDL
MODEL 2
REMARK VINA RESULT:      -5.2     14.378     17.323
REMARK  10 active torsions:
REMARK  status: ('A' for Active; 'I' for Inactive)
REMARK    1  A    between atoms: O_2  and  C_19 
REMARK    2  A    between atoms: O_3  and  C_21 
REMARK       I    between atoms: N_4  and  C_11 
REMARK    3  A    between atoms: N_4  and  C_13 
REMARK    4  A    between atoms: C_5  and  C_6 
REMARK    5  A    between atoms: C_5  and  C_7 
REMARK    6  A    between atoms: C_6  and  C_8 
REMARK    7  A    between atoms: C_7  and  C_10 
REMARK    8  A    between atoms: C_8  and  C_11 
REMARK    9  A    between atoms: C_9  and  C_12 
REMARK   10  A    between atoms: C_13  and  C_14 
ROOT
HETATM    1  O   UNK N   1      22.191  16.883   6.878  0.00  0.00    -0.274 OA
HETATM    2  N   UNK N   1      20.504  16.686   5.422  0.00  0.00    -0.357 N 
HETATM    3  C   UNK N   1      20.997  16.784   6.675  0.00  0.00     0.217 C 
HETATM    4  H   UNK N   1      19.530  16.608   5.306  0.00  0.00     0.162 HD
ENDROOT
BRANCH   2   5
HETATM    5  C   UNK N   1      21.337  16.694   4.245  0.00  0.00     0.161 C 
BRANCH   5   6
HETATM    6  C   UNK N   1      21.249  18.035   3.586  0.00  0.00    -0.038 A 
HETATM    7  C   UNK N   1      22.365  18.873   3.565  0.00  0.00     0.048 A 
HETATM    8  C   UNK N   1      22.285  20.152   2.979  0.00  0.00     0.101 A 
HETATM    9  C   UNK N   1      21.070  20.572   2.415  0.00  0.00     0.099 A 
HETATM   10  C   UNK N   1      19.959  19.733   2.427  0.00  0.00     0.040 A 
HETATM   11  C   UNK N   1      20.045  18.471   3.010  0.00  0.00     0.012 A 
BRANCH   8  12
HETATM   12  O   UNK N   1      23.352  20.984   2.954  0.00  0.00    -0.353 OA
HETATM   13  C   UNK N   1      24.647  20.550   2.782  0.00  0.00     0.210 C 
ENDBRANCH   8  12
BRANCH   9  14
HETATM   14  O   UNK N   1      20.970  21.793   1.857  0.00  0.00    -0.358 OA
HETATM   15  H   UNK N   1      20.326  21.954   1.195  0.00  0.00     0.217 HD
ENDBRANCH   9  14
ENDBRANCH   5   6
ENDBRANCH   2   5
BRANCH   3  16
HETATM   16  C   UNK N   1      20.042  16.722   7.814  0.00  0.00     0.103 C 
BRANCH  16  17
HETATM   17  C   UNK N   1      20.741  16.073   8.988  0.00  0.00     0.010 C 
BRANCH  17  18
HETATM   18  C   UNK N   1      20.305  14.635   9.119  0.00  0.00     0.004 C 
BRANCH  18  19
HETATM   19  C   UNK N   1      21.328  13.715   8.470  0.00  0.00     0.027 C 
BRANCH  19  20
HETATM   20  C   UNK N   1      22.311  13.297   9.504  0.00  0.00    -0.030 C 
HETATM   21  C   UNK N   1      22.250  12.078  10.030  0.00  0.00    -0.027 C 
BRANCH  21  22
HETATM   22  C   UNK N   1      23.312  11.621  10.961  0.00  0.00    -0.001 C 
HETATM   23  C   UNK N   1      24.620  12.306  10.630  0.00  0.00     0.013 C 
HETATM   24  C   UNK N   1      22.894  11.978  12.373  0.00  0.00     0.013 C 
ENDBRANCH  21  22
ENDBRANCH  19  20
ENDBRANCH  18  19
ENDBRANCH  17  18
ENDBRANCH  16  17
ENDBRANCH   3  16
TORSDOF 10
ENDMDL
MODEL 3
REMARK VINA RESULT:      -5.1     18.417     21.071
REMARK  10 active torsions:
REMARK  status: ('A' for Active; 'I' for Inactive)
REMARK    1  A    between atoms: O_2  and  C_19 
REMARK    2  A    between atoms: O_3  and  C_21 
REMARK       I    between atoms: N_4  and  C_11 
REMARK    3  A    between atoms: N_4  and  C_13 
REMARK    4  A    between atoms: C_5  and  C_6 
REMARK    5  A    between atoms: C_5  and  C_7 
REMARK    6  A    between atoms: C_6  and  C_8 
REMARK    7  A    between atoms: C_7  and  C_10 
REMARK    8  A    between atoms: C_8  and  C_11 
REMARK    9  A    between atoms: C_9  and  C_12 
REMARK   10  A    between atoms: C_13  and  C_14 
ROOT
HETATM    1  O   UNK N   1      36.594  16.476  10.538  0.00  0.00    -0.274 OA
HETATM    2  N   UNK N   1      34.442  16.803  10.025  0.00  0.00    -0.357 N 
HETATM    3  C   UNK N   1      35.422  16.280  10.792  0.00  0.00     0.217 C 
HETATM    4  H   UNK N   1      33.506  16.618  10.270  0.00  0.00     0.162 HD
ENDROOT
BRANCH   2   5
HETATM    5  C   UNK N   1      34.699  17.621   8.866  0.00  0.00     0.161 C 
BRANCH   5   6
HETATM    6  C   UNK N   1      33.545  17.513   7.919  0.00  0.00    -0.038 A 
HETATM    7  C   UNK N   1      32.242  17.449   8.418  0.00  0.00     0.048 A 
HETATM    8  C   UNK N   1      31.149  17.311   7.538  0.00  0.00     0.101 A 
HETATM    9  C   UNK N   1      31.387  17.243   6.156  0.00  0.00     0.099 A 
HETATM   10  C   UNK N   1      32.686  17.318   5.658  0.00  0.00     0.040 A 
HETATM   11  C   UNK N   1      33.761  17.451   6.534  0.00  0.00     0.012 A 
BRANCH   8  12
HETATM   12  O   UNK N   1      29.879  17.238   7.998  0.00  0.00    -0.353 OA
HETATM   13  C   UNK N   1      29.205  18.312   8.532  0.00  0.00     0.210 C 
ENDBRANCH   8  12
BRANCH   9  14
HETATM   14  O   UNK N   1      30.359  17.105   5.299  0.00  0.00    -0.358 OA
HETATM   15  H   UNK N   1      29.481  17.063   5.623  0.00  0.00     0.217 HD
ENDBRANCH   9  14
ENDBRANCH   5   6
ENDBRANCH   2   5
BRANCH   3  16
HETATM   16  C   UNK N   1      35.035  15.415  11.938  0.00  0.00     0.103 C 
BRANCH  16  17
HETATM   17  C   UNK N   1      35.798  14.113  11.834  0.00  0.00     0.010 C 
BRANCH  17  18
HETATM   18  C   UNK N   1      35.681  13.340  13.123  0.00  0.00     0.004 C 
BRANCH  18  19
HETATM   19  C   UNK N   1      36.426  14.060  14.236  0.00  0.00     0.027 C 
BRANCH  19  20
HETATM   20  C   UNK N   1      36.288  13.266  15.486  0.00  0.00    -0.030 C 
HETATM   21  C   UNK N   1      35.121  13.213  16.119  0.00  0.00    -0.027 C 
BRANCH  21  22
HETATM   22  C   UNK N   1      34.955  12.314  17.288  0.00  0.00    -0.001 C 
HETATM   23  C   UNK N   1      35.922  11.155  17.191  0.00  0.00     0.013 C 
HETATM   24  C   UNK N   1      35.239  13.109  18.546  0.00  0.00     0.013 C 
ENDBRANCH  21  22
ENDBRANCH  19  20
ENDBRANCH  18  19
ENDBRANCH  17  18
ENDBRANCH  16  17
ENDBRANCH   3  16
TORSDOF 10
ENDMDL
MODEL 4
REMARK VINA RESULT:      -5.1     11.449     14.222
REMARK  10 active torsions:
REMARK  status: ('A' for Active; 'I' for Inactive)
REMARK    1  A    between atoms: O_2  and  C_19 
REMARK    2  A    between atoms: O_3  and  C_21 
REMARK       I    between atoms: N_4  and  C_11 
REMARK    3  A    between atoms: N_4  and  C_13 
REMARK    4  A    between atoms: C_5  and  C_6 
REMARK    5  A    between atoms: C_5  and  C_7 
REMARK    6  A    between atoms: C_6  and  C_8 
REMARK    7  A    between atoms: C_7  and  C_10 
REMARK    8  A    between atoms: C_8  and  C_11 
REMARK    9  A    between atoms: C_9  and  C_12 
REMARK   10  A    between atoms: C_13  and  C_14 
ROOT
HETATM    1  O   UNK N   1      27.758  18.488   6.287  0.00  0.00    -0.274 OA
HETATM    2  N   UNK N   1      28.955  18.473   4.397  0.00  0.00    -0.357 N 
HETATM    3  C   UNK N   1      28.117  19.061   5.277  0.00  0.00     0.217 C 
HETATM    4  H   UNK N   1      29.218  18.976   3.593  0.00  0.00     0.162 HD
ENDROOT
BRANCH   2   5
HETATM    5  C   UNK N   1      29.484  17.145   4.580  0.00  0.00     0.161 C 
BRANCH   5   6
HETATM    6  C   UNK N   1      30.868  17.238   5.143  0.00  0.00    -0.038 A 
HETATM    7  C   UNK N   1      31.074  17.053   6.512  0.00  0.00     0.048 A 
HETATM    8  C   UNK N   1      32.367  17.173   7.060  0.00  0.00     0.101 A 
HETATM    9  C   UNK N   1      33.444  17.478   6.213  0.00  0.00     0.099 A 
HETATM   10  C   UNK N   1      33.240  17.652   4.846  0.00  0.00     0.040 A 
HETATM   11  C   UNK N   1      31.959  17.535   4.312  0.00  0.00     0.012 A 
BRANCH   8  12
HETATM   12  O   UNK N   1      32.589  17.007   8.384  0.00  0.00    -0.353 OA
HETATM   13  C   UNK N   1      32.692  15.773   8.985  0.00  0.00     0.210 C 
ENDBRANCH   8  12
BRANCH   9  14
HETATM   14  O   UNK N   1      34.686  17.604   6.716  0.00  0.00    -0.358 OA
HETATM   15  H   UNK N   1      34.886  18.308   7.300  0.00  0.00     0.217 HD
ENDBRANCH   9  14
ENDBRANCH   5   6
ENDBRANCH   2   5
BRANCH   3  16
HETATM   16  C   UNK N   1      27.602  20.420   4.960  0.00  0.00     0.103 C 
BRANCH  16  17
HETATM   17  C   UNK N   1      26.689  20.315   3.757  0.00  0.00     0.010 C 
BRANCH  17  18
HETATM   18  C   UNK N   1      25.247  20.363   4.197  0.00  0.00     0.004 C 
BRANCH  18  19
HETATM   19  C   UNK N   1      24.497  19.148   3.672  0.00  0.00     0.027 C 
BRANCH  19  20
HETATM   20  C   UNK N   1      23.055  19.492   3.569  0.00  0.00    -0.030 C 
HETATM   21  C   UNK N   1      22.651  20.435   2.723  0.00  0.00    -0.027 C 
BRANCH  21  22
HETATM   22  C   UNK N   1      21.200  20.679   2.529  0.00  0.00    -0.001 C 
HETATM   23  C   UNK N   1      20.845  20.549   1.064  0.00  0.00     0.013 C 
HETATM   24  C   UNK N   1      20.430  19.651   3.332  0.00  0.00     0.013 C 
ENDBRANCH  21  22
ENDBRANCH  19  20
ENDBRANCH  18  19
ENDBRANCH  17  18
ENDBRANCH  16  17
ENDBRANCH   3  16
TORSDOF 10
ENDMDL
MODEL 5
REMARK VINA RESULT:      -5.0      2.636      5.128
REMARK  10 active torsions:
REMARK  status: ('A' for Active; 'I' for Inactive)
REMARK    1  A    between atoms: O_2  and  C_19 
REMARK    2  A    between atoms: O_3  and  C_21 
REMARK       I    between atoms: N_4  and  C_11 
REMARK    3  A    between atoms: N_4  and  C_13 
REMARK    4  A    between atoms: C_5  and  C_6 
REMARK    5  A    between atoms: C_5  and  C_7 
REMARK    6  A    between atoms: C_6  and  C_8 
REMARK    7  A    between atoms: C_7  and  C_10 
REMARK    8  A    between atoms: C_8  and  C_11 
REMARK    9  A    between atoms: C_9  and  C_12 
REMARK   10  A    between atoms: C_13  and  C_14 
ROOT
HETATM    1  O   UNK N   1      26.195  26.146  -7.154  0.00  0.00    -0.274 OA
HETATM    2  N   UNK N   1      25.933  25.044  -5.225  0.00  0.00    -0.357 N 
HETATM    3  C   UNK N   1      25.712  26.097  -6.040  0.00  0.00     0.217 C 
HETATM    4  H   UNK N   1      25.522  25.048  -4.331  0.00  0.00     0.162 HD
ENDROOT
BRANCH   2   5
HETATM    5  C   UNK N   1      26.742  23.911  -5.603  0.00  0.00     0.161 C 
BRANCH   5   6
HETATM    6  C   UNK N   1      27.769  23.662  -4.543  0.00  0.00    -0.038 A 
HETATM    7  C   UNK N   1      29.004  23.110  -4.890  0.00  0.00     0.048 A 
HETATM    8  C   UNK N   1      29.966  22.838  -3.896  0.00  0.00     0.101 A 
HETATM    9  C   UNK N   1      29.669  23.131  -2.556  0.00  0.00     0.099 A 
HETATM   10  C   UNK N   1      28.440  23.692  -2.212  0.00  0.00     0.040 A 
HETATM   11  C   UNK N   1      27.494  23.955  -3.198  0.00  0.00     0.012 A 
BRANCH   8  12
HETATM   12  O   UNK N   1      31.166  22.296  -4.207  0.00  0.00    -0.353 OA
HETATM   13  C   UNK N   1      31.331  20.976  -4.560  0.00  0.00     0.210 C 
ENDBRANCH   8  12
BRANCH   9  14
HETATM   14  O   UNK N   1      30.570  22.873  -1.591  0.00  0.00    -0.358 OA
HETATM   15  H   UNK N   1      30.482  22.106  -1.060  0.00  0.00     0.217 HD
ENDBRANCH   9  14
ENDBRANCH   5   6
ENDBRANCH   2   5
BRANCH   3  16
HETATM   16  C   UNK N   1      24.895  27.227  -5.523  0.00  0.00     0.103 C 
BRANCH  16  17
HETATM   17  C   UNK N   1      25.486  27.682  -4.206  0.00  0.00     0.010 C 
BRANCH  17  18
HETATM   18  C   UNK N   1      26.189  29.005  -4.384  0.00  0.00     0.004 C 
BRANCH  18  19
HETATM   19  C   UNK N   1      27.489  28.809  -5.150  0.00  0.00     0.027 C 
BRANCH  19  20
HETATM   20  C   UNK N   1      28.497  28.227  -4.226  0.00  0.00    -0.030 C 
HETATM   21  C   UNK N   1      29.200  27.159  -4.590  0.00  0.00    -0.027 C 
BRANCH  21  22
HETATM   22  C   UNK N   1      30.296  26.665  -3.720  0.00  0.00    -0.001 C 
HETATM   23  C   UNK N   1      31.377  26.026  -4.564  0.00  0.00     0.013 C 
HETATM   24  C   UNK N   1      30.872  27.843  -2.961  0.00  0.00     0.013 C 
ENDBRANCH  21  22
ENDBRANCH  19  20
ENDBRANCH  18  19
ENDBRANCH  17  18
ENDBRANCH  16  17
ENDBRANCH   3  16
TORSDOF 10
ENDMDL
MODEL 6
REMARK VINA RESULT:      -4.9     17.818     20.548
REMARK  10 active torsions:
REMARK  status: ('A' for Active; 'I' for Inactive)
REMARK    1  A    between atoms: O_2  and  C_19 
REMARK    2  A    between atoms: O_3  and  C_21 
REMARK       I    between atoms: N_4  and  C_11 
REMARK    3  A    between atoms: N_4  and  C_13 
REMARK    4  A    between atoms: C_5  and  C_6 
REMARK    5  A    between atoms: C_5  and  C_7 
REMARK    6  A    between atoms: C_6  and  C_8 
REMARK    7  A    between atoms: C_7  and  C_10 
REMARK    8  A    between atoms: C_8  and  C_11 
REMARK    9  A    between atoms: C_9  and  C_12 
REMARK   10  A    between atoms: C_13  and  C_14 
ROOT
HETATM    1  O   UNK N   1      35.669  15.308   9.239  0.00  0.00    -0.274 OA
HETATM    2  N   UNK N   1      34.416  17.063   9.834  0.00  0.00    -0.357 N 
HETATM    3  C   UNK N   1      34.966  15.852  10.068  0.00  0.00     0.217 C 
HETATM    4  H   UNK N   1      33.853  17.465  10.535  0.00  0.00     0.162 HD
ENDROOT
BRANCH   2   5
HETATM    5  C   UNK N   1      34.614  17.796   8.609  0.00  0.00     0.161 C 
BRANCH   5   6
HETATM    6  C   UNK N   1      33.449  17.562   7.699  0.00  0.00    -0.038 A 
HETATM    7  C   UNK N   1      33.644  17.527   6.317  0.00  0.00     0.048 A 
HETATM    8  C   UNK N   1      32.549  17.343   5.448  0.00  0.00     0.101 A 
HETATM    9  C   UNK N   1      31.263  17.193   5.989  0.00  0.00     0.099 A 
HETATM   10  C   UNK N   1      31.070  17.218   7.369  0.00  0.00     0.040 A 
HETATM   11  C   UNK N   1      32.156  17.403   8.221  0.00  0.00     0.012 A 
BRANCH   8  12
HETATM   12  O   UNK N   1      32.713  17.314   4.105  0.00  0.00    -0.353 OA
HETATM   13  C   UNK N   1      33.177  16.213   3.423  0.00  0.00     0.210 C 
ENDBRANCH   8  12
BRANCH   9  14
HETATM   14  O   UNK N   1      30.203  17.024   5.177  0.00  0.00    -0.358 OA
HETATM   15  H   UNK N   1      29.728  17.768   4.865  0.00  0.00     0.217 HD
ENDBRANCH   9  14
ENDBRANCH   5   6
ENDBRANCH   2   5
BRANCH   3  16
HETATM   16  C   UNK N   1      34.654  15.173  11.354  0.00  0.00     0.103 C 
BRANCH  16  17
HETATM   17  C   UNK N   1      35.874  15.256  12.246  0.00  0.00     0.010 C 
BRANCH  17  18
HETATM   18  C   UNK N   1      36.287  13.874  12.686  0.00  0.00     0.004 C 
BRANCH  18  19
HETATM   19  C   UNK N   1      35.073  12.960  12.753  0.00  0.00     0.027 C 
BRANCH  19  20
HETATM   20  C   UNK N   1      35.011  12.355  14.110  0.00  0.00    -0.030 C 
HETATM   21  C   UNK N   1      35.122  13.122  15.189  0.00  0.00    -0.027 C 
BRANCH  21  22
HETATM   22  C   UNK N   1      34.925  12.533  16.537  0.00  0.00    -0.001 C 
HETATM   23  C   UNK N   1      35.879  11.376  16.739  0.00  0.00     0.013 C 
HETATM   24  C   UNK N   1      35.199  13.606  17.572  0.00  0.00     0.013 C 
ENDBRANCH  21  22
ENDBRANCH  19  20
ENDBRANCH  18  19
ENDBRANCH  17  18
ENDBRANCH  16  17
ENDBRANCH   3  16
TORSDOF 10
ENDMDL
MODEL 7
REMARK VINA RESULT:      -4.8      3.970      7.216
REMARK  10 active torsions:
REMARK  status: ('A' for Active; 'I' for Inactive)
REMARK    1  A    between atoms: O_2  and  C_19 
REMARK    2  A    between atoms: O_3  and  C_21 
REMARK       I    between atoms: N_4  and  C_11 
REMARK    3  A    between atoms: N_4  and  C_13 
REMARK    4  A    between atoms: C_5  and  C_6 
REMARK    5  A    between atoms: C_5  and  C_7 
REMARK    6  A    between atoms: C_6  and  C_8 
REMARK    7  A    between atoms: C_7  and  C_10 
REMARK    8  A    between atoms: C_8  and  C_11 
REMARK    9  A    between atoms: C_9  and  C_12 
REMARK   10  A    between atoms: C_13  and  C_14 
ROOT
HETATM    1  O   UNK N   1      29.486  21.952  -9.205  0.00  0.00    -0.274 OA
HETATM    2  N   UNK N   1      28.804  21.074  -7.264  0.00  0.00    -0.357 N 
HETATM    3  C   UNK N   1      28.572  21.610  -8.481  0.00  0.00     0.217 C 
HETATM    4  H   UNK N   1      28.032  20.812  -6.712  0.00  0.00     0.162 HD
ENDROOT
BRANCH   2   5
HETATM    5  C   UNK N   1      30.128  20.864  -6.735  0.00  0.00     0.161 C 
BRANCH   5   6
HETATM    6  C   UNK N   1      30.204  21.435  -5.353  0.00  0.00    -0.038 A 
HETATM    7  C   UNK N   1      29.409  22.530  -5.011  0.00  0.00     0.048 A 
HETATM    8  C   UNK N   1      29.496  23.098  -3.723  0.00  0.00     0.101 A 
HETATM    9  C   UNK N   1      30.390  22.549  -2.791  0.00  0.00     0.099 A 
HETATM   10  C   UNK N   1      31.177  21.450  -3.130  0.00  0.00     0.040 A 
HETATM   11  C   UNK N   1      31.087  20.895  -4.405  0.00  0.00     0.012 A 
BRANCH   8  12
HETATM   12  O   UNK N   1      28.742  24.165  -3.372  0.00  0.00    -0.353 OA
HETATM   13  C   UNK N   1      27.473  24.055  -2.851  0.00  0.00     0.210 C 
ENDBRANCH   8  12
BRANCH   9  14
HETATM   14  O   UNK N   1      30.495  23.080  -1.560  0.00  0.00    -0.358 OA
HETATM   15  H   UNK N   1      30.035  23.869  -1.349  0.00  0.00     0.217 HD
ENDBRANCH   9  14
ENDBRANCH   5   6
ENDBRANCH   2   5
BRANCH   3  16
HETATM   16  C   UNK N   1      27.160  21.817  -8.902  0.00  0.00     0.103 C 
BRANCH  16  17
HETATM   17  C   UNK N   1      26.623  23.038  -8.187  0.00  0.00     0.010 C 
BRANCH  17  18
HETATM   18  C   UNK N   1      25.612  22.625  -7.147  0.00  0.00     0.004 C 
BRANCH  18  19
HETATM   19  C   UNK N   1      25.838  23.402  -5.859  0.00  0.00     0.027 C 
BRANCH  19  20
HETATM   20  C   UNK N   1      25.958  24.846  -6.193  0.00  0.00    -0.030 C 
HETATM   21  C   UNK N   1      25.196  25.741  -5.574  0.00  0.00    -0.027 C 
BRANCH  21  22
HETATM   22  C   UNK N   1      25.414  27.189  -5.814  0.00  0.00    -0.001 C 
HETATM   23  C   UNK N   1      25.479  27.928  -4.496  0.00  0.00     0.013 C 
HETATM   24  C   UNK N   1      26.724  27.358  -6.557  0.00  0.00     0.013 C 
ENDBRANCH  21  22
ENDBRANCH  19  20
ENDBRANCH  18  19
ENDBRANCH  17  18
ENDBRANCH  16  17
ENDBRANCH   3  16
TORSDOF 10
ENDMDL
MODEL 8
REMARK VINA RESULT:      -4.8     17.207     19.811
REMARK  10 active torsions:
REMARK  status: ('A' for Active; 'I' for Inactive)
REMARK    1  A    between atoms: O_2  and  C_19 
REMARK    2  A    between atoms: O_3  and  C_21 
REMARK       I    between atoms: N_4  and  C_11 
REMARK    3  A    between atoms: N_4  and  C_13 
REMARK    4  A    between atoms: C_5  and  C_6 
REMARK    5  A    between atoms: C_5  and  C_7 
REMARK    6  A    between atoms: C_6  and  C_8 
REMARK    7  A    between atoms: C_7  and  C_10 
REMARK    8  A    between atoms: C_8  and  C_11 
REMARK    9  A    between atoms: C_9  and  C_12 
REMARK   10  A    between atoms: C_13  and  C_14 
ROOT
HETATM    1  O   UNK N   1      35.215  17.545   9.824  0.00  0.00    -0.274 OA
HETATM    2  N   UNK N   1      33.460  16.711   8.716  0.00  0.00    -0.357 N 
HETATM    3  C   UNK N   1      34.595  16.575   9.434  0.00  0.00     0.217 C 
HETATM    4  H   UNK N   1      32.991  15.897   8.421  0.00  0.00     0.162 HD
ENDROOT
BRANCH   2   5
HETATM    5  C   UNK N   1      32.898  17.991   8.363  0.00  0.00     0.161 C 
BRANCH   5   6
HETATM    6  C   UNK N   1      31.416  17.855   8.208  0.00  0.00    -0.038 A 
HETATM    7  C   UNK N   1      30.895  17.111   7.147  0.00  0.00     0.048 A 
HETATM    8  C   UNK N   1      29.501  17.004   6.970  0.00  0.00     0.101 A 
HETATM    9  C   UNK N   1      28.644  17.652   7.873  0.00  0.00     0.099 A 
HETATM   10  C   UNK N   1      29.164  18.386   8.937  0.00  0.00     0.040 A 
HETATM   11  C   UNK N   1      30.542  18.489   9.104  0.00  0.00     0.012 A 
BRANCH   8  12
HETATM   12  O   UNK N   1      28.974  16.296   5.944  0.00  0.00    -0.353 OA
HETATM   13  C   UNK N   1      28.975  16.737   4.641  0.00  0.00     0.210 C 
ENDBRANCH   8  12
BRANCH   9  14
HETATM   14  O   UNK N   1      27.310  17.569   7.717  0.00  0.00    -0.358 OA
HETATM   15  H   UNK N   1      26.774  17.261   8.421  0.00  0.00     0.217 HD
ENDBRANCH   9  14
ENDBRANCH   5   6
ENDBRANCH   2   5
BRANCH   3  16
HETATM   16  C   UNK N   1      35.100  15.201   9.700  0.00  0.00     0.103 C 
BRANCH  16  17
HETATM   17  C   UNK N   1      36.386  15.310  10.489  0.00  0.00     0.010 C 
BRANCH  17  18
HETATM   18  C   UNK N   1      36.620  14.044  11.274  0.00  0.00     0.004 C 
BRANCH  18  19
HETATM   19  C   UNK N   1      35.327  13.592  11.936  0.00  0.00     0.027 C 
BRANCH  19  20
HETATM   20  C   UNK N   1      35.492  13.689  13.410  0.00  0.00    -0.030 C 
HETATM   21  C   UNK N   1      36.670  13.432  13.970  0.00  0.00    -0.027 C 
BRANCH  21  22
HETATM   22  C   UNK N   1      36.863  13.661  15.424  0.00  0.00    -0.001 C 
HETATM   23  C   UNK N   1      37.216  15.109  15.676  0.00  0.00     0.013 C 
HETATM   24  C   UNK N   1      35.570  13.320  16.136  0.00  0.00     0.013 C 
ENDBRANCH  21  22
ENDBRANCH  19  20
ENDBRANCH  18  19
ENDBRANCH  17  18
ENDBRANCH  16  17
ENDBRANCH   3  16
TORSDOF 10
ENDMDL
MODEL 9
REMARK VINA RESULT:      -4.7     21.691     24.506
REMARK  10 active torsions:
REMARK  status: ('A' for Active; 'I' for Inactive)
REMARK    1  A    between atoms: O_2  and  C_19 
REMARK    2  A    between atoms: O_3  and  C_21 
REMARK       I    between atoms: N_4  and  C_11 
REMARK    3  A    between atoms: N_4  and  C_13 
REMARK    4  A    between atoms: C_5  and  C_6 
REMARK    5  A    between atoms: C_5  and  C_7 
REMARK    6  A    between atoms: C_6  and  C_8 
REMARK    7  A    between atoms: C_7  and  C_10 
REMARK    8  A    between atoms: C_8  and  C_11 
REMARK    9  A    between atoms: C_9  and  C_12 
REMARK   10  A    between atoms: C_13  and  C_14 
ROOT
HETATM    1  O   UNK N   1      36.522  11.271  12.068  0.00  0.00    -0.274 OA
HETATM    2  N   UNK N   1      37.585  13.238  12.143  0.00  0.00    -0.357 N 
HETATM    3  C   UNK N   1      37.052  12.144  12.727  0.00  0.00     0.217 C 
HETATM    4  H   UNK N   1      38.004  13.919  12.717  0.00  0.00     0.162 HD
ENDROOT
BRANCH   2   5
HETATM    5  C   UNK N   1      37.573  13.455  10.717  0.00  0.00     0.161 C 
BRANCH   5   6
HETATM    6  C   UNK N   1      36.566  14.512  10.388  0.00  0.00    -0.038 A 
HETATM    7  C   UNK N   1      36.040  14.591   9.097  0.00  0.00     0.048 A 
HETATM    8  C   UNK N   1      35.117  15.604   8.765  0.00  0.00     0.101 A 
HETATM    9  C   UNK N   1      34.733  16.530   9.747  0.00  0.00     0.099 A 
HETATM   10  C   UNK N   1      35.251  16.445  11.038  0.00  0.00     0.040 A 
HETATM   11  C   UNK N   1      36.164  15.444  11.358  0.00  0.00     0.012 A 
BRANCH   8  12
HETATM   12  O   UNK N   1      34.600  15.704   7.518  0.00  0.00    -0.353 OA
HETATM   13  C   UNK N   1      34.941  14.858   6.487  0.00  0.00     0.210 C 
ENDBRANCH   8  12
BRANCH   9  14
HETATM   14  O   UNK N   1      33.860  17.509   9.449  0.00  0.00    -0.358 OA
HETATM   15  H   UNK N   1      33.877  18.314   9.927  0.00  0.00     0.217 HD
ENDBRANCH   9  14
ENDBRANCH   5   6
ENDBRANCH   2   5
BRANCH   3  16
HETATM   16  C   UNK N   1      37.087  12.050  14.211  0.00  0.00     0.103 C 
BRANCH  16  17
HETATM   17  C   UNK N   1      36.537  13.339  14.784  0.00  0.00     0.010 C 
BRANCH  17  18
HETATM   18  C   UNK N   1      35.191  13.090  15.418  0.00  0.00     0.004 C 
BRANCH  18  19
HETATM   19  C   UNK N   1      35.232  13.455  16.894  0.00  0.00     0.027 C 
BRANCH  19  20
HETATM   20  C   UNK N   1      35.232  12.200  17.691  0.00  0.00    -0.030 C 
HETATM   21  C   UNK N   1      35.327  12.249  19.015  0.00  0.00    -0.027 C 
BRANCH  21  22
HETATM   22  C   UNK N   1      35.192  11.003  19.812  0.00  0.00    -0.001 C 
HETATM   23  C   UNK N   1      34.714   9.873  18.927  0.00  0.00     0.013 C 
HETATM   24  C   UNK N   1      36.548  10.658  20.392  0.00  0.00     0.013 C 
ENDBRANCH  21  22
ENDBRANCH  19  20
ENDBRANCH  18  19
ENDBRANCH  17  18
ENDBRANCH  16  17
ENDBRANCH   3  16
TORSDOF 10
ENDMDL
