MODEL 1
REMARK VINA RESULT:      -7.0      0.000      0.000
REMARK  7 active torsions:
REMARK  status: ('A' for Active; 'I' for Inactive)
REMARK    1  A    between atoms: C_3  and  C_23 
REMARK    2  A    between atoms: C_4  and  C_14 
REMARK    3  A    between atoms: C_5  and  C_10 
REMARK    4  A    between atoms: C_10  and  O_12 
REMARK    5  A    between atoms: C_16  and  N_20 
REMARK    6  A    between atoms: C_23  and  O_25 
REMARK    7  A    between atoms: O_25  and  C_26 
ROOT
HETATM    1  C   UNK N   1      25.159  27.262  -5.216  0.00  0.00     0.069 C 
HETATM    2  C   UNK N   1      26.613  26.908  -5.326  0.00  0.00     0.019 C 
HETATM    3  C   UNK N   1      27.062  25.633  -5.225  0.00  0.00     0.052 C 
HETATM    4  C   UNK N   1      28.588  25.388  -5.413  0.00  0.00     0.102 C 
HETATM    5  C   UNK N   1      29.415  26.510  -4.791  0.00  0.00     0.068 C 
HETATM    6  C   UNK N   1      28.862  27.747  -4.757  0.00  0.00     0.127 C 
HETATM    7  N   UNK N   1      27.554  27.969  -5.283  0.00  0.00    -0.350 N 
HETATM    8  C   UNK N   1      29.527  28.850  -4.111  0.00  0.00     0.118 C 
HETATM    9  N   UNK N   1      30.040  29.749  -3.597  0.00  0.00    -0.190 NA
HETATM   10  H   UNK N   1      27.304  28.861  -5.618  0.00  0.00     0.166 HD
ENDROOT
BRANCH   5  11
HETATM   11  C   UNK N   1      30.787  26.255  -4.237  0.00  0.00     0.292 C 
HETATM   12  O   UNK N   1      30.978  26.269  -3.030  0.00  0.00    -0.259 OA
BRANCH  11  13
HETATM   13  O   UNK N   1      31.807  25.964  -5.083  0.00  0.00    -0.323 OA
HETATM   14  C   UNK N   1      32.614  24.861  -4.925  0.00  0.00     0.213 C 
ENDBRANCH  11  13
ENDBRANCH   5  11
BRANCH   4  15
HETATM   15  C   UNK N   1      29.006  23.954  -5.110  0.00  0.00    -0.042 C 
HETATM   16  C   UNK N   1      29.252  23.585  -3.789  0.00  0.00     0.044 C 
HETATM   17  C   UNK N   1      29.967  22.413  -3.519  0.00  0.00     0.103 C 
HETATM   18  C   UNK N   1      30.245  21.507  -4.549  0.00  0.00     0.036 C 
HETATM   19  C   UNK N   1      29.934  21.830  -5.855  0.00  0.00     0.003 C 
HETATM   20  C   UNK N   1      29.426  23.088  -6.128  0.00  0.00     0.008 C 
BRANCH  17  21
HETATM   21  N   UNK N   1      30.744  22.352  -2.337  0.00  0.00    -0.116 N 
HETATM   22  O   UNK N   1      31.866  21.948  -2.403  0.00  0.00    -0.532 OA
HETATM   23  O   UNK N   1      30.414  23.127  -1.326  0.00  0.00    -0.532 OA
ENDBRANCH  17  21
ENDBRANCH   4  15
BRANCH   3  24
HETATM   24  C   UNK N   1      26.107  24.521  -4.886  0.00  0.00     0.292 C 
HETATM   25  O   UNK N   1      26.001  24.143  -3.726  0.00  0.00    -0.259 OA
BRANCH  24  26
HETATM   26  O   UNK N   1      25.331  23.955  -5.839  0.00  0.00    -0.313 OA
BRANCH  26  27
HETATM   27  C   UNK N   1      25.896  23.447  -6.989  0.00  0.00     0.124 C 
HETATM   28  C   UNK N   1      25.454  22.020  -7.244  0.00  0.00     0.040 C 
HETATM   29  C   UNK N   1      25.564  24.344  -8.169  0.00  0.00     0.040 C 
ENDBRANCH  26  27
ENDBRANCH  24  26
ENDBRANCH   3  24
TORSDOF 7
ENDMDL
MODEL 2
REMARK VINA RESULT:      -6.3     12.389     14.703
REMARK  7 active torsions:
REMARK  status: ('A' for Active; 'I' for Inactive)
REMARK    1  A    between atoms: C_3  and  C_23 
REMARK    2  A    between atoms: C_4  and  C_14 
REMARK    3  A    between atoms: C_5  and  C_10 
REMARK    4  A    between atoms: C_10  and  O_12 
REMARK    5  A    between atoms: C_16  and  N_20 
REMARK    6  A    between atoms: C_23  and  O_25 
REMARK    7  A    between atoms: O_25  and  C_26 
ROOT
HETATM    1  C   UNK N   1      29.648  18.689   9.836  0.00  0.00     0.069 C 
HETATM    2  C   UNK N   1      30.413  17.993   8.748  0.00  0.00     0.019 C 
HETATM    3  C   UNK N   1      29.830  17.583   7.595  0.00  0.00     0.052 C 
HETATM    4  C   UNK N   1      30.741  16.924   6.519  0.00  0.00     0.102 C 
HETATM    5  C   UNK N   1      31.810  16.040   7.158  0.00  0.00     0.068 C 
HETATM    6  C   UNK N   1      32.252  16.388   8.391  0.00  0.00     0.127 C 
HETATM    7  N   UNK N   1      31.722  17.537   9.051  0.00  0.00    -0.350 N 
HETATM    8  C   UNK N   1      33.192  15.568   9.111  0.00  0.00     0.118 C 
HETATM    9  N   UNK N   1      33.944  14.925   9.709  0.00  0.00    -0.190 NA
HETATM   10  H   UNK N   1      32.266  18.014   9.719  0.00  0.00     0.166 HD
ENDROOT
BRANCH   5  11
HETATM   11  C   UNK N   1      32.351  14.832   6.449  0.00  0.00     0.292 C 
HETATM   12  O   UNK N   1      32.026  13.709   6.807  0.00  0.00    -0.259 OA
BRANCH  11  13
HETATM   13  O   UNK N   1      33.169  14.994   5.378  0.00  0.00    -0.323 OA
HETATM   14  C   UNK N   1      34.193  15.912   5.354  0.00  0.00     0.213 C 
ENDBRANCH  11  13
ENDBRANCH   5  11
BRANCH   4  15
HETATM   15  C   UNK N   1      29.961  16.347   5.344  0.00  0.00    -0.042 C 
HETATM   16  C   UNK N   1      29.261  15.154   5.516  0.00  0.00     0.044 C 
HETATM   17  C   UNK N   1      28.845  14.428   4.394  0.00  0.00     0.103 C 
HETATM   18  C   UNK N   1      28.935  14.995   3.118  0.00  0.00     0.036 C 
HETATM   19  C   UNK N   1      29.558  16.216   2.947  0.00  0.00     0.003 C 
HETATM   20  C   UNK N   1      30.158  16.816   4.039  0.00  0.00     0.008 C 
BRANCH  17  21
HETATM   21  N   UNK N   1      28.735  13.020   4.503  0.00  0.00    -0.116 N 
HETATM   22  O   UNK N   1      29.691  12.390   4.839  0.00  0.00    -0.532 OA
HETATM   23  O   UNK N   1      27.541  12.495   4.681  0.00  0.00    -0.532 OA
ENDBRANCH  17  21
ENDBRANCH   4  15
BRANCH   3  24
HETATM   24  C   UNK N   1      28.343  17.719   7.412  0.00  0.00     0.292 C 
HETATM   25  O   UNK N   1      27.605  16.786   7.705  0.00  0.00    -0.259 OA
BRANCH  24  26
HETATM   26  O   UNK N   1      27.800  18.874   6.962  0.00  0.00    -0.313 OA
BRANCH  26  27
HETATM   27  C   UNK N   1      27.853  19.197   5.623  0.00  0.00     0.124 C 
HETATM   28  C   UNK N   1      26.848  18.399   4.817  0.00  0.00     0.040 C 
HETATM   29  C   UNK N   1      27.643  20.690   5.441  0.00  0.00     0.040 C 
ENDBRANCH  26  27
ENDBRANCH  24  26
ENDBRANCH   3  24
TORSDOF 7
ENDMDL
MODEL 3
REMARK VINA RESULT:      -6.2      2.622      4.808
REMARK  7 active torsions:
REMARK  status: ('A' for Active; 'I' for Inactive)
REMARK    1  A    between atoms: C_3  and  C_23 
REMARK    2  A    between atoms: C_4  and  C_14 
REMARK    3  A    between atoms: C_5  and  C_10 
REMARK    4  A    between atoms: C_10  and  O_12 
REMARK    5  A    between atoms: C_16  and  N_20 
REMARK    6  A    between atoms: C_23  and  O_25 
REMARK    7  A    between atoms: O_25  and  C_26 
ROOT
HETATM    1  C   UNK N   1      25.238  26.166  -5.671  0.00  0.00     0.069 C 
HETATM    2  C   UNK N   1      26.004  24.916  -5.991  0.00  0.00     0.019 C 
HETATM    3  C   UNK N   1      27.282  24.720  -5.584  0.00  0.00     0.052 C 
HETATM    4  C   UNK N   1      27.950  23.358  -5.930  0.00  0.00     0.102 C 
HETATM    5  C   UNK N   1      27.537  22.870  -7.317  0.00  0.00     0.068 C 
HETATM    6  C   UNK N   1      26.310  23.227  -7.764  0.00  0.00     0.127 C 
HETATM    7  N   UNK N   1      25.452  24.034  -6.956  0.00  0.00    -0.350 N 
HETATM    8  C   UNK N   1      25.866  22.891  -9.093  0.00  0.00     0.118 C 
HETATM    9  N   UNK N   1      25.489  22.635 -10.155  0.00  0.00    -0.190 NA
HETATM   10  H   UNK N   1      24.475  23.977  -7.068  0.00  0.00     0.166 HD
ENDROOT
BRANCH   5  11
HETATM   11  C   UNK N   1      28.456  22.027  -8.154  0.00  0.00     0.292 C 
HETATM   12  O   UNK N   1      29.210  22.551  -8.962  0.00  0.00    -0.259 OA
BRANCH  11  13
HETATM   13  O   UNK N   1      28.478  20.682  -7.977  0.00  0.00    -0.323 OA
HETATM   14  C   UNK N   1      29.492  20.035  -7.309  0.00  0.00     0.213 C 
ENDBRANCH  11  13
ENDBRANCH   5  11
BRANCH   4  15
HETATM   15  C   UNK N   1      29.433  23.311  -5.580  0.00  0.00    -0.042 C 
HETATM   16  C   UNK N   1      29.841  22.603  -4.452  0.00  0.00     0.044 C 
HETATM   17  C   UNK N   1      31.112  22.833  -3.912  0.00  0.00     0.103 C 
HETATM   18  C   UNK N   1      32.045  23.601  -4.617  0.00  0.00     0.036 C 
HETATM   19  C   UNK N   1      31.672  24.244  -5.781  0.00  0.00     0.003 C 
HETATM   20  C   UNK N   1      30.350  24.183  -6.182  0.00  0.00     0.008 C 
BRANCH  17  21
HETATM   21  N   UNK N   1      31.298  22.652  -2.520  0.00  0.00    -0.116 N 
HETATM   22  O   UNK N   1      30.446  23.024  -1.770  0.00  0.00    -0.532 OA
HETATM   23  O   UNK N   1      32.129  21.717  -2.113  0.00  0.00    -0.532 OA
ENDBRANCH  17  21
ENDBRANCH   4  15
BRANCH   3  24
HETATM   24  C   UNK N   1      28.024  25.820  -4.874  0.00  0.00     0.292 C 
HETATM   25  O   UNK N   1      28.132  25.793  -3.654  0.00  0.00    -0.259 OA
BRANCH  24  26
HETATM   26  O   UNK N   1      28.610  26.824  -5.567  0.00  0.00    -0.313 OA
BRANCH  26  27
HETATM   27  C   UNK N   1      28.164  28.121  -5.430  0.00  0.00     0.124 C 
HETATM   28  C   UNK N   1      29.160  28.975  -4.672  0.00  0.00     0.040 C 
HETATM   29  C   UNK N   1      27.862  28.711  -6.797  0.00  0.00     0.040 C 
ENDBRANCH  26  27
ENDBRANCH  24  26
ENDBRANCH   3  24
TORSDOF 7
ENDMDL
MODEL 4
REMARK VINA RESULT:      -6.0      2.422      4.560
REMARK  7 active torsions:
REMARK  status: ('A' for Active; 'I' for Inactive)
REMARK    1  A    between atoms: C_3  and  C_23 
REMARK    2  A    between atoms: C_4  and  C_14 
REMARK    3  A    between atoms: C_5  and  C_10 
REMARK    4  A    between atoms: C_10  and  O_12 
REMARK    5  A    between atoms: C_16  and  N_20 
REMARK    6  A    between atoms: C_23  and  O_25 
REMARK    7  A    between atoms: O_25  and  C_26 
ROOT
HETATM    1  C   UNK N   1      24.579  27.221  -5.574  0.00  0.00     0.069 C 
HETATM    2  C   UNK N   1      25.426  25.986  -5.671  0.00  0.00     0.019 C 
HETATM    3  C   UNK N   1      26.380  25.682  -4.756  0.00  0.00     0.052 C 
HETATM    4  C   UNK N   1      27.153  24.344  -4.935  0.00  0.00     0.102 C 
HETATM    5  C   UNK N   1      27.427  24.050  -6.409  0.00  0.00     0.068 C 
HETATM    6  C   UNK N   1      26.533  24.515  -7.314  0.00  0.00     0.127 C 
HETATM    7  N   UNK N   1      25.389  25.255  -6.887  0.00  0.00    -0.350 N 
HETATM    8  C   UNK N   1      26.750  24.366  -8.730  0.00  0.00     0.118 C 
HETATM    9  N   UNK N   1      26.904  24.260  -9.871  0.00  0.00    -0.190 NA
HETATM   10  H   UNK N   1      24.572  25.258  -7.437  0.00  0.00     0.166 HD
ENDROOT
BRANCH   5  11
HETATM   11  C   UNK N   1      28.638  23.275  -6.839  0.00  0.00     0.292 C 
HETATM   12  O   UNK N   1      29.577  23.845  -7.378  0.00  0.00    -0.259 OA
BRANCH  11  13
HETATM   13  O   UNK N   1      28.708  21.944  -6.585  0.00  0.00    -0.323 OA
HETATM   14  C   UNK N   1      29.764  21.366  -5.918  0.00  0.00     0.213 C 
ENDBRANCH  11  13
ENDBRANCH   5  11
BRANCH   4  15
HETATM   15  C   UNK N   1      28.313  24.186  -3.959  0.00  0.00    -0.042 C 
HETATM   16  C   UNK N   1      29.533  24.791  -4.253  0.00  0.00     0.044 C 
HETATM   17  C   UNK N   1      30.690  24.379  -3.582  0.00  0.00     0.103 C 
HETATM   18  C   UNK N   1      30.593  23.526  -2.477  0.00  0.00     0.036 C 
HETATM   19  C   UNK N   1      29.373  22.982  -2.128  0.00  0.00     0.003 C 
HETATM   20  C   UNK N   1      28.278  23.228  -2.937  0.00  0.00     0.008 C 
BRANCH  17  21
HETATM   21  N   UNK N   1      31.933  24.480  -4.252  0.00  0.00    -0.116 N 
HETATM   22  O   UNK N   1      32.360  23.522  -4.824  0.00  0.00    -0.532 OA
HETATM   23  O   UNK N   1      32.355  25.671  -4.619  0.00  0.00    -0.532 OA
ENDBRANCH  17  21
ENDBRANCH   4  15
BRANCH   3  24
HETATM   24  C   UNK N   1      26.699  26.651  -3.650  0.00  0.00     0.292 C 
HETATM   25  O   UNK N   1      26.225  26.479  -2.534  0.00  0.00    -0.259 OA
BRANCH  24  26
HETATM   26  O   UNK N   1      27.536  27.693  -3.858  0.00  0.00    -0.313 OA
BRANCH  26  27
HETATM   27  C   UNK N   1      27.391  28.861  -3.140  0.00  0.00     0.124 C 
HETATM   28  C   UNK N   1      28.727  29.386  -2.654  0.00  0.00     0.040 C 
HETATM   29  C   UNK N   1      26.666  29.898  -3.980  0.00  0.00     0.040 C 
ENDBRANCH  26  27
ENDBRANCH  24  26
ENDBRANCH   3  24
TORSDOF 7
ENDMDL
MODEL 5
REMARK VINA RESULT:      -6.0     23.959     27.129
REMARK  7 active torsions:
REMARK  status: ('A' for Active; 'I' for Inactive)
REMARK    1  A    between atoms: C_3  and  C_23 
REMARK    2  A    between atoms: C_4  and  C_14 
REMARK    3  A    between atoms: C_5  and  C_10 
REMARK    4  A    between atoms: C_10  and  O_12 
REMARK    5  A    between atoms: C_16  and  N_20 
REMARK    6  A    between atoms: C_23  and  O_25 
REMARK    7  A    between atoms: O_25  and  C_26 
ROOT
HETATM    1  C   UNK N   1      35.010  14.666  18.581  0.00  0.00     0.069 C 
HETATM    2  C   UNK N   1      35.316  13.201  18.691  0.00  0.00     0.019 C 
HETATM    3  C   UNK N   1      35.481  12.407  17.606  0.00  0.00     0.052 C 
HETATM    4  C   UNK N   1      35.851  10.915  17.850  0.00  0.00     0.102 C 
HETATM    5  C   UNK N   1      35.124  10.352  19.070  0.00  0.00     0.068 C 
HETATM    6  C   UNK N   1      34.825  11.214  20.071  0.00  0.00     0.127 C 
HETATM    7  N   UNK N   1      35.179  12.593  19.967  0.00  0.00    -0.350 N 
HETATM    8  C   UNK N   1      34.063  10.797  21.220  0.00  0.00     0.118 C 
HETATM    9  N   UNK N   1      33.452  10.486  22.150  0.00  0.00    -0.190 NA
HETATM   10  H   UNK N   1      35.329  13.125  20.782  0.00  0.00     0.166 HD
ENDROOT
BRANCH   5  11
HETATM   11  C   UNK N   1      34.755   8.899  19.158  0.00  0.00     0.292 C 
HETATM   12  O   UNK N   1      35.587   8.070  19.499  0.00  0.00    -0.259 OA
BRANCH  11  13
HETATM   13  O   UNK N   1      33.479   8.515  18.900  0.00  0.00    -0.323 OA
HETATM   14  C   UNK N   1      32.802   7.608  19.682  0.00  0.00     0.213 C 
ENDBRANCH  11  13
ENDBRANCH   5  11
BRANCH   4  15
HETATM   15  C   UNK N   1      35.841  10.078  16.577  0.00  0.00    -0.042 C 
HETATM   16  C   UNK N   1      37.035   9.523  16.121  0.00  0.00     0.044 C 
HETATM   17  C   UNK N   1      37.128   9.067  14.801  0.00  0.00     0.103 C 
HETATM   18  C   UNK N   1      35.977   8.966  14.012  0.00  0.00     0.036 C 
HETATM   19  C   UNK N   1      34.770   9.442  14.486  0.00  0.00     0.003 C 
HETATM   20  C   UNK N   1      34.743  10.090  15.707  0.00  0.00     0.008 C 
BRANCH  17  21
HETATM   21  N   UNK N   1      38.388   9.109  14.158  0.00  0.00    -0.116 N 
HETATM   22  O   UNK N   1      38.429   9.060  12.965  0.00  0.00    -0.532 OA
HETATM   23  O   UNK N   1      39.405   9.643  14.800  0.00  0.00    -0.532 OA
ENDBRANCH  17  21
ENDBRANCH   4  15
BRANCH   3  24
HETATM   24  C   UNK N   1      35.250  12.959  16.225  0.00  0.00     0.292 C 
HETATM   25  O   UNK N   1      34.108  13.172  15.837  0.00  0.00    -0.259 OA
BRANCH  24  26
HETATM   26  O   UNK N   1      36.291  13.263  15.415  0.00  0.00    -0.313 OA
BRANCH  26  27
HETATM   27  C   UNK N   1      36.113  13.348  14.050  0.00  0.00     0.124 C 
HETATM   28  C   UNK N   1      36.323  14.761  13.548  0.00  0.00     0.040 C 
HETATM   29  C   UNK N   1      37.038  12.370  13.346  0.00  0.00     0.040 C 
ENDBRANCH  26  27
ENDBRANCH  24  26
ENDBRANCH   3  24
TORSDOF 7
ENDMDL
MODEL 6
REMARK VINA RESULT:      -5.9     11.253     13.564
REMARK  7 active torsions:
REMARK  status: ('A' for Active; 'I' for Inactive)
REMARK    1  A    between atoms: C_3  and  C_23 
REMARK    2  A    between atoms: C_4  and  C_14 
REMARK    3  A    between atoms: C_5  and  C_10 
REMARK    4  A    between atoms: C_10  and  O_12 
REMARK    5  A    between atoms: C_16  and  N_20 
REMARK    6  A    between atoms: C_23  and  O_25 
REMARK    7  A    between atoms: O_25  and  C_26 
ROOT
HETATM    1  C   UNK N   1      25.916  20.654   3.019  0.00  0.00     0.069 C 
HETATM    2  C   UNK N   1      24.544  20.134   3.333  0.00  0.00     0.019 C 
HETATM    3  C   UNK N   1      24.340  18.957   3.974  0.00  0.00     0.052 C 
HETATM    4  C   UNK N   1      22.871  18.554   4.294  0.00  0.00     0.102 C 
HETATM    5  C   UNK N   1      21.924  18.950   3.163  0.00  0.00     0.068 C 
HETATM    6  C   UNK N   1      22.250  20.042   2.431  0.00  0.00     0.127 C 
HETATM    7  N   UNK N   1      23.439  20.778   2.718  0.00  0.00    -0.350 N 
HETATM    8  C   UNK N   1      21.468  20.442   1.289  0.00  0.00     0.118 C 
HETATM    9  N   UNK N   1      20.858  20.781   0.367  0.00  0.00    -0.190 NA
HETATM   10  H   UNK N   1      23.492  21.734   2.491  0.00  0.00     0.166 HD
ENDROOT
BRANCH   5  11
HETATM   11  C   UNK N   1      20.681  18.160   2.872  0.00  0.00     0.292 C 
HETATM   12  O   UNK N   1      19.618  18.467   3.392  0.00  0.00    -0.259 OA
BRANCH  11  13
HETATM   13  O   UNK N   1      20.733  17.129   1.990  0.00  0.00    -0.323 OA
HETATM   14  C   UNK N   1      19.991  17.101   0.832  0.00  0.00     0.213 C 
ENDBRANCH  11  13
ENDBRANCH   5  11
BRANCH   4  15
HETATM   15  C   UNK N   1      22.745  17.142   4.855  0.00  0.00    -0.042 C 
HETATM   16  C   UNK N   1      22.903  16.055   3.997  0.00  0.00     0.044 C 
HETATM   17  C   UNK N   1      22.448  14.791   4.390  0.00  0.00     0.103 C 
HETATM   18  C   UNK N   1      22.040  14.572   5.711  0.00  0.00     0.036 C 
HETATM   19  C   UNK N   1      21.956  15.632   6.593  0.00  0.00     0.003 C 
HETATM   20  C   UNK N   1      22.199  16.910   6.124  0.00  0.00     0.008 C 
BRANCH  17  21
HETATM   21  N   UNK N   1      22.019  13.885   3.390  0.00  0.00    -0.116 N 
HETATM   22  O   UNK N   1      22.256  14.133   2.247  0.00  0.00    -0.532 OA
HETATM   23  O   UNK N   1      21.797  12.633   3.730  0.00  0.00    -0.532 OA
ENDBRANCH  17  21
ENDBRANCH   4  15
BRANCH   3  24
HETATM   24  C   UNK N   1      25.506  18.064   4.301  0.00  0.00     0.292 C 
HETATM   25  O   UNK N   1      25.952  17.308   3.447  0.00  0.00    -0.259 OA
BRANCH  24  26
HETATM   26  O   UNK N   1      26.098  18.109   5.517  0.00  0.00    -0.313 OA
BRANCH  26  27
HETATM   27  C   UNK N   1      27.448  18.364   5.629  0.00  0.00     0.124 C 
HETATM   28  C   UNK N   1      27.709  19.691   6.312  0.00  0.00     0.040 C 
HETATM   29  C   UNK N   1      28.131  17.224   6.363  0.00  0.00     0.040 C 
ENDBRANCH  26  27
ENDBRANCH  24  26
ENDBRANCH   3  24
TORSDOF 7
ENDMDL
MODEL 7
REMARK VINA RESULT:      -5.9     11.744     13.917
REMARK  7 active torsions:
REMARK  status: ('A' for Active; 'I' for Inactive)
REMARK    1  A    between atoms: C_3  and  C_23 
REMARK    2  A    between atoms: C_4  and  C_14 
REMARK    3  A    between atoms: C_5  and  C_10 
REMARK    4  A    between atoms: C_10  and  O_12 
REMARK    5  A    between atoms: C_16  and  N_20 
REMARK    6  A    between atoms: C_23  and  O_25 
REMARK    7  A    between atoms: O_25  and  C_26 
ROOT
HETATM    1  C   UNK N   1      25.654  20.386   3.321  0.00  0.00     0.069 C 
HETATM    2  C   UNK N   1      24.250  19.881   3.487  0.00  0.00     0.019 C 
HETATM    3  C   UNK N   1      23.973  18.627   3.920  0.00  0.00     0.052 C 
HETATM    4  C   UNK N   1      22.477  18.240   4.106  0.00  0.00     0.102 C 
HETATM    5  C   UNK N   1      21.603  18.851   3.013  0.00  0.00     0.068 C 
HETATM    6  C   UNK N   1      22.002  20.031   2.482  0.00  0.00     0.127 C 
HETATM    7  N   UNK N   1      23.200  20.661   2.936  0.00  0.00    -0.350 N 
HETATM    8  C   UNK N   1      21.293  20.640   1.386  0.00  0.00     0.118 C 
HETATM    9  N   UNK N   1      20.742  21.147   0.505  0.00  0.00    -0.190 NA
HETATM   10  H   UNK N   1      23.298  21.638   2.868  0.00  0.00     0.166 HD
ENDROOT
BRANCH   5  11
HETATM   11  C   UNK N   1      20.349  18.171   2.544  0.00  0.00     0.292 C 
HETATM   12  O   UNK N   1      19.319  18.256   3.198  0.00  0.00    -0.259 OA
BRANCH  11  13
HETATM   13  O   UNK N   1      20.353  17.497   1.366  0.00  0.00    -0.323 OA
HETATM   14  C   UNK N   1      20.055  16.157   1.273  0.00  0.00     0.213 C 
ENDBRANCH  11  13
ENDBRANCH   5  11
BRANCH   4  15
HETATM   15  C   UNK N   1      22.275  16.764   4.426  0.00  0.00    -0.042 C 
HETATM   16  C   UNK N   1      21.821  16.401   5.693  0.00  0.00     0.044 C 
HETATM   17  C   UNK N   1      21.967  15.079   6.128  0.00  0.00     0.103 C 
HETATM   18  C   UNK N   1      22.361  14.084   5.227  0.00  0.00     0.036 C 
HETATM   19  C   UNK N   1      22.737  14.424   3.943  0.00  0.00     0.003 C 
HETATM   20  C   UNK N   1      22.798  15.762   3.598  0.00  0.00     0.008 C 
BRANCH  17  21
HETATM   21  N   UNK N   1      22.120  14.836   7.514  0.00  0.00    -0.116 N 
HETATM   22  O   UNK N   1      21.364  15.356   8.279  0.00  0.00    -0.532 OA
HETATM   23  O   UNK N   1      22.748  13.744   7.896  0.00  0.00    -0.532 OA
ENDBRANCH  17  21
ENDBRANCH   4  15
BRANCH   3  24
HETATM   24  C   UNK N   1      25.090  17.645   4.150  0.00  0.00     0.292 C 
HETATM   25  O   UNK N   1      25.630  17.102   3.194  0.00  0.00    -0.259 OA
BRANCH  24  26
HETATM   26  O   UNK N   1      25.536  17.378   5.400  0.00  0.00    -0.313 OA
BRANCH  26  27
HETATM   27  C   UNK N   1      26.353  16.293   5.634  0.00  0.00     0.124 C 
HETATM   28  C   UNK N   1      27.698  16.717   6.186  0.00  0.00     0.040 C 
HETATM   29  C   UNK N   1      25.659  15.314   6.566  0.00  0.00     0.040 C 
ENDBRANCH  26  27
ENDBRANCH  24  26
ENDBRANCH   3  24
TORSDOF 7
ENDMDL
MODEL 8
REMARK VINA RESULT:      -5.8     12.305     15.072
REMARK  7 active torsions:
REMARK  status: ('A' for Active; 'I' for Inactive)
REMARK    1  A    between atoms: C_3  and  C_23 
REMARK    2  A    between atoms: C_4  and  C_14 
REMARK    3  A    between atoms: C_5  and  C_10 
REMARK    4  A    between atoms: C_10  and  O_12 
REMARK    5  A    between atoms: C_16  and  N_20 
REMARK    6  A    between atoms: C_23  and  O_25 
REMARK    7  A    between atoms: O_25  and  C_26 
ROOT
HETATM    1  C   UNK N   1      30.344  18.556   9.134  0.00  0.00     0.069 C 
HETATM    2  C   UNK N   1      31.534  18.035   8.383  0.00  0.00     0.019 C 
HETATM    3  C   UNK N   1      31.427  17.442   7.169  0.00  0.00     0.052 C 
HETATM    4  C   UNK N   1      32.741  16.994   6.465  0.00  0.00     0.102 C 
HETATM    5  C   UNK N   1      33.751  16.440   7.468  0.00  0.00     0.068 C 
HETATM    6  C   UNK N   1      33.718  16.939   8.727  0.00  0.00     0.127 C 
HETATM    7  N   UNK N   1      32.766  17.941   9.083  0.00  0.00    -0.350 N 
HETATM    8  C   UNK N   1      34.569  16.417   9.765  0.00  0.00     0.118 C 
HETATM    9  N   UNK N   1      35.241  16.013  10.615  0.00  0.00    -0.190 NA
HETATM   10  H   UNK N   1      32.963  18.569   9.815  0.00  0.00     0.166 HD
ENDROOT
BRANCH   5  11
HETATM   11  C   UNK N   1      34.742  15.382   7.075  0.00  0.00     0.292 C 
HETATM   12  O   UNK N   1      35.711  15.668   6.387  0.00  0.00    -0.259 OA
BRANCH  11  13
HETATM   13  O   UNK N   1      34.580  14.113   7.527  0.00  0.00    -0.323 OA
HETATM   14  C   UNK N   1      35.634  13.329   7.940  0.00  0.00     0.213 C 
ENDBRANCH  11  13
ENDBRANCH   5  11
BRANCH   4  15
HETATM   15  C   UNK N   1      32.496  16.188   5.195  0.00  0.00    -0.042 C 
HETATM   16  C   UNK N   1      32.000  14.891   5.300  0.00  0.00     0.044 C 
HETATM   17  C   UNK N   1      32.103  14.019   4.210  0.00  0.00     0.103 C 
HETATM   18  C   UNK N   1      32.499  14.505   2.959  0.00  0.00     0.036 C 
HETATM   19  C   UNK N   1      32.919  15.814   2.827  0.00  0.00     0.003 C 
HETATM   20  C   UNK N   1      33.019  16.599   3.961  0.00  0.00     0.008 C 
BRANCH  17  21
HETATM   21  N   UNK N   1      32.212  12.630   4.462  0.00  0.00    -0.116 N 
HETATM   22  O   UNK N   1      32.836  11.953   3.703  0.00  0.00    -0.532 OA
HETATM   23  O   UNK N   1      32.040  12.199   5.694  0.00  0.00    -0.532 OA
ENDBRANCH  17  21
ENDBRANCH   4  15
BRANCH   3  24
HETATM   24  C   UNK N   1      30.070  17.186   6.571  0.00  0.00     0.292 C 
HETATM   25  O   UNK N   1      29.410  16.226   6.949  0.00  0.00    -0.259 OA
BRANCH  24  26
HETATM   26  O   UNK N   1      29.548  18.024   5.646  0.00  0.00    -0.313 OA
BRANCH  26  27
HETATM   27  C   UNK N   1      28.193  18.277   5.618  0.00  0.00     0.124 C 
HETATM   28  C   UNK N   1      27.835  19.487   6.457  0.00  0.00     0.040 C 
HETATM   29  C   UNK N   1      27.728  18.446   4.182  0.00  0.00     0.040 C 
ENDBRANCH  26  27
ENDBRANCH  24  26
ENDBRANCH   3  24
TORSDOF 7
ENDMDL
MODEL 9
REMARK VINA RESULT:      -5.8      1.877      5.155
REMARK  7 active torsions:
REMARK  status: ('A' for Active; 'I' for Inactive)
REMARK    1  A    between atoms: C_3  and  C_23 
REMARK    2  A    between atoms: C_4  and  C_14 
REMARK    3  A    between atoms: C_5  and  C_10 
REMARK    4  A    between atoms: C_10  and  O_12 
REMARK    5  A    between atoms: C_16  and  N_20 
REMARK    6  A    between atoms: C_23  and  O_25 
REMARK    7  A    between atoms: O_25  and  C_26 
ROOT
HETATM    1  C   UNK N   1      30.107  20.332  -7.586  0.00  0.00     0.069 C 
HETATM    2  C   UNK N   1      29.890  20.979  -6.250  0.00  0.00     0.019 C 
HETATM    3  C   UNK N   1      29.133  22.092  -6.094  0.00  0.00     0.052 C 
HETATM    4  C   UNK N   1      28.936  22.636  -4.649  0.00  0.00     0.102 C 
HETATM    5  C   UNK N   1      30.211  22.491  -3.820  0.00  0.00     0.068 C 
HETATM    6  C   UNK N   1      31.033  21.456  -4.116  0.00  0.00     0.127 C 
HETATM    7  N   UNK N   1      30.706  20.551  -5.170  0.00  0.00    -0.350 N 
HETATM    8  C   UNK N   1      32.299  21.288  -3.451  0.00  0.00     0.118 C 
HETATM    9  N   UNK N   1      33.321  21.134  -2.932  0.00  0.00    -0.190 NA
HETATM   10  H   UNK N   1      31.046  19.627  -5.148  0.00  0.00     0.166 HD
ENDROOT
BRANCH   5  11
HETATM   11  C   UNK N   1      30.540  23.457  -2.719  0.00  0.00     0.292 C 
HETATM   12  O   UNK N   1      30.367  23.144  -1.549  0.00  0.00    -0.259 OA
BRANCH  11  13
HETATM   13  O   UNK N   1      31.077  24.665  -3.026  0.00  0.00    -0.323 OA
HETATM   14  C   UNK N   1      31.922  24.856  -4.095  0.00  0.00     0.213 C 
ENDBRANCH  11  13
ENDBRANCH   5  11
BRANCH   4  15
HETATM   15  C   UNK N   1      28.219  23.980  -4.606  0.00  0.00    -0.042 C 
HETATM   16  C   UNK N   1      28.835  25.096  -5.170  0.00  0.00     0.044 C 
HETATM   17  C   UNK N   1      28.382  26.378  -4.838  0.00  0.00     0.103 C 
HETATM   18  C   UNK N   1      27.189  26.538  -4.123  0.00  0.00     0.036 C 
HETATM   19  C   UNK N   1      26.528  25.432  -3.628  0.00  0.00     0.003 C 
HETATM   20  C   UNK N   1      27.108  24.185  -3.777  0.00  0.00     0.008 C 
BRANCH  17  21
HETATM   21  N   UNK N   1      29.309  27.448  -4.855  0.00  0.00    -0.116 N 
HETATM   22  O   UNK N   1      29.647  27.935  -3.818  0.00  0.00    -0.532 OA
HETATM   23  O   UNK N   1      30.100  27.579  -5.899  0.00  0.00    -0.532 OA
ENDBRANCH  17  21
ENDBRANCH   4  15
BRANCH   3  24
HETATM   24  C   UNK N   1      28.562  22.791  -7.298  0.00  0.00     0.292 C 
HETATM   25  O   UNK N   1      29.220  23.651  -7.872  0.00  0.00    -0.259 OA
BRANCH  24  26
HETATM   26  O   UNK N   1      27.344  22.458  -7.784  0.00  0.00    -0.313 OA
BRANCH  26  27
HETATM   27  C   UNK N   1      26.200  22.784  -7.087  0.00  0.00     0.124 C 
HETATM   28  C   UNK N   1      25.764  24.208  -7.368  0.00  0.00     0.040 C 
HETATM   29  C   UNK N   1      25.095  21.795  -7.413  0.00  0.00     0.040 C 
ENDBRANCH  26  27
ENDBRANCH  24  26
ENDBRANCH   3  24
TORSDOF 7
ENDMDL
