MODEL 1
REMARK VINA RESULT:      -6.6      0.000      0.000
REMARK  3 active torsions:
REMARK  status: ('A' for Active; 'I' for Inactive)
REMARK    1  A    between atoms: O_6  and  C_15 
REMARK       I    between atoms: N_9  and  C_18 
REMARK    2  A    between atoms: N_9  and  C_20 
REMARK    3  A    between atoms: C_14  and  C_18 
ROOT
HETATM    1 Cl   UNK N   1      26.514  20.388   6.237  0.00  0.00    -0.076 Cl
HETATM    2  S   UNK N   1      30.566  16.642   5.132  0.00  0.00     0.266 S 
HETATM    3  S   UNK N   1      28.423  18.752   7.937  0.00  0.00    -0.074 SA
HETATM    4  O   UNK N   1      29.877  15.447   4.456  0.00  0.00    -0.200 OA
HETATM    5  O   UNK N   1      31.436  17.291   4.044  0.00  0.00    -0.200 OA
HETATM    6  N   UNK N   1      31.683  15.922   6.273  0.00  0.00    -0.268 N 
HETATM    7  C   UNK N   1      29.503  17.694   6.021  0.00  0.00     0.102 A 
HETATM    8  C   UNK N   1      29.577  17.691   7.397  0.00  0.00     0.065 A 
HETATM    9  C   UNK N   1      31.502  16.076   7.712  0.00  0.00     0.147 C 
HETATM   10  C   UNK N   1      30.511  16.896   8.230  0.00  0.00     0.117 C 
HETATM   11  C   UNK N   1      28.516  18.559   5.473  0.00  0.00     0.058 A 
HETATM   12  C   UNK N   1      27.814  19.240   6.473  0.00  0.00     0.076 A 
HETATM   13  C   UNK N   1      32.787  15.176   5.718  0.00  0.00     0.170 C 
ENDROOT
BRANCH   9  14
HETATM   14  C   UNK N   1      32.431  15.338   8.665  0.00  0.00     0.277 C 
HETATM   15  O   UNK N   1      32.410  14.119   8.719  0.00  0.00    -0.266 OA
HETATM   16  N   UNK N   1      33.301  16.033   9.453  0.00  0.00    -0.308 N 
HETATM   17  H   UNK N   1      33.258  17.016   9.391  0.00  0.00     0.170 HD
BRANCH  16  18
HETATM   18  C   UNK N   1      34.261  15.497  10.357  0.00  0.00     0.107 A 
HETATM   19  N   UNK N   1      33.955  14.353  11.030  0.00  0.00    -0.352 N 
HETATM   20  C   UNK N   1      34.817  13.789  11.919  0.00  0.00     0.089 A 
ATOM     21  HN  UNK N   1      33.054  13.905  10.863  1.00  0.00     0.166 HD
HETATM   22  C   UNK N   1      36.054  14.383  12.168  0.00  0.00     0.017 A 
HETATM   23  C   UNK N   1      36.394  15.556  11.497  0.00  0.00     0.005 A 
HETATM   24  C   UNK N   1      35.498  16.120  10.588  0.00  0.00     0.048 A 
ENDBRANCH  16  18
ENDBRANCH   9  14
BRANCH  10  25
HETATM   25  O   UNK N   1      30.356  17.017   9.565  0.00  0.00    -0.357 OA
HETATM   26  H   UNK N   1      29.508  17.181   9.928  0.00  0.00     0.217 HD
ENDBRANCH  10  25
TORSDOF 3
ENDMDL
MODEL 2
REMARK VINA RESULT:      -6.5      2.888      3.840
REMARK  3 active torsions:
REMARK  status: ('A' for Active; 'I' for Inactive)
REMARK    1  A    between atoms: O_6  and  C_15 
REMARK       I    between atoms: N_9  and  C_18 
REMARK    2  A    between atoms: N_9  and  C_20 
REMARK    3  A    between atoms: C_14  and  C_18 
ROOT
HETATM    1 Cl   UNK N   1      29.374  16.128   3.817  0.00  0.00    -0.076 Cl
HETATM    2  S   UNK N   1      33.357  17.457   7.563  0.00  0.00     0.266 S 
HETATM    3  S   UNK N   1      30.977  14.565   5.866  0.00  0.00    -0.074 SA
HETATM    4  O   UNK N   1      34.562  17.958   6.753  0.00  0.00    -0.200 OA
HETATM    5  O   UNK N   1      32.819  18.687   8.312  0.00  0.00    -0.200 OA
HETATM    6  N   UNK N   1      34.049  16.414   8.789  0.00  0.00    -0.268 N 
HETATM    7  C   UNK N   1      32.203  16.520   6.658  0.00  0.00     0.102 A 
HETATM    8  C   UNK N   1      32.120  15.167   6.905  0.00  0.00     0.065 A 
HETATM    9  C   UNK N   1      33.794  14.979   8.796  0.00  0.00     0.147 C 
HETATM   10  C   UNK N   1      32.899  14.402   7.906  0.00  0.00     0.117 C 
HETATM   11  C   UNK N   1      31.334  17.002   5.641  0.00  0.00     0.058 A 
HETATM   12  C   UNK N   1      30.559  15.973   5.095  0.00  0.00     0.076 A 
HETATM   13  C   UNK N   1      34.877  17.047   9.787  0.00  0.00     0.170 C 
ENDROOT
BRANCH   9  14
HETATM   14  C   UNK N   1      34.508  14.098   9.810  0.00  0.00     0.277 C 
HETATM   15  O   UNK N   1      35.277  13.229   9.433  0.00  0.00    -0.266 OA
HETATM   16  N   UNK N   1      34.303  14.283  11.146  0.00  0.00    -0.308 N 
HETATM   17  H   UNK N   1      33.652  14.979  11.397  0.00  0.00     0.170 HD
BRANCH  16  18
HETATM   18  C   UNK N   1      34.924  13.581  12.218  0.00  0.00     0.107 A 
HETATM   19  N   UNK N   1      34.566  12.286  12.443  0.00  0.00    -0.352 N 
HETATM   20  C   UNK N   1      35.106  11.556  13.456  0.00  0.00     0.089 A 
ATOM     21  HN  UNK N   1      33.873  11.850  11.835  1.00  0.00     0.166 HD
HETATM   22  C   UNK N   1      36.053  12.129  14.305  0.00  0.00     0.017 A 
HETATM   23  C   UNK N   1      36.437  13.454  14.101  0.00  0.00     0.005 A 
HETATM   24  C   UNK N   1      35.873  14.186  13.056  0.00  0.00     0.048 A 
ENDBRANCH  16  18
ENDBRANCH   9  14
BRANCH  10  25
HETATM   25  O   UNK N   1      32.685  13.069   7.925  0.00  0.00    -0.357 OA
HETATM   26  H   UNK N   1      32.536  12.605   7.124  0.00  0.00     0.217 HD
ENDBRANCH  10  25
TORSDOF 3
ENDMDL
MODEL 3
REMARK VINA RESULT:      -6.5      9.270     10.584
REMARK  3 active torsions:
REMARK  status: ('A' for Active; 'I' for Inactive)
REMARK    1  A    between atoms: O_6  and  C_15 
REMARK       I    between atoms: N_9  and  C_18 
REMARK    2  A    between atoms: N_9  and  C_20 
REMARK    3  A    between atoms: C_14  and  C_18 
ROOT
HETATM    1 Cl   UNK N   1      26.334  21.264   2.502  0.00  0.00    -0.076 Cl
HETATM    2  S   UNK N   1      21.347  18.890   3.582  0.00  0.00     0.266 S 
HETATM    3  S   UNK N   1      25.409  18.943   4.225  0.00  0.00    -0.074 SA
HETATM    4  O   UNK N   1      20.499  19.964   4.278  0.00  0.00    -0.200 OA
HETATM    5  O   UNK N   1      20.694  18.669   2.208  0.00  0.00    -0.200 OA
HETATM    6  N   UNK N   1      21.046  17.426   4.496  0.00  0.00    -0.268 N 
HETATM    7  C   UNK N   1      23.062  19.184   3.600  0.00  0.00     0.102 A 
HETATM    8  C   UNK N   1      23.857  18.386   4.395  0.00  0.00     0.065 A 
HETATM    9  C   UNK N   1      22.100  16.791   5.279  0.00  0.00     0.147 C 
HETATM   10  C   UNK N   1      23.408  17.251   5.234  0.00  0.00     0.117 C 
HETATM   11  C   UNK N   1      23.753  20.205   2.890  0.00  0.00     0.058 A 
HETATM   12  C   UNK N   1      25.126  20.181   3.157  0.00  0.00     0.076 A 
HETATM   13  C   UNK N   1      19.711  16.884   4.432  0.00  0.00     0.170 C 
ENDROOT
BRANCH   9  14
HETATM   14  C   UNK N   1      21.763  15.588   6.148  0.00  0.00     0.277 C 
HETATM   15  O   UNK N   1      21.450  14.527   5.630  0.00  0.00    -0.266 OA
HETATM   16  N   UNK N   1      21.822  15.683   7.507  0.00  0.00    -0.308 N 
HETATM   17  H   UNK N   1      22.053  16.568   7.874  0.00  0.00     0.170 HD
BRANCH  16  18
HETATM   18  C   UNK N   1      21.584  14.647   8.454  0.00  0.00     0.107 A 
HETATM   19  N   UNK N   1      22.472  13.618   8.531  0.00  0.00    -0.352 N 
HETATM   20  C   UNK N   1      22.305  12.587   9.402  0.00  0.00     0.089 A 
ATOM     21  HN  UNK N   1      23.288  13.620   7.918  1.00  0.00     0.166 HD
HETATM   22  C   UNK N   1      21.197  12.558  10.249  0.00  0.00     0.017 A 
HETATM   23  C   UNK N   1      20.268  13.597  10.192  0.00  0.00     0.005 A 
HETATM   24  C   UNK N   1      20.458  14.646   9.292  0.00  0.00     0.048 A 
ENDBRANCH  16  18
ENDBRANCH   9  14
BRANCH  10  25
HETATM   25  O   UNK N   1      24.365  16.653   5.974  0.00  0.00    -0.357 OA
HETATM   26  H   UNK N   1      24.199  16.431   6.869  0.00  0.00     0.217 HD
ENDBRANCH  10  25
TORSDOF 3
ENDMDL
MODEL 4
REMARK VINA RESULT:      -6.4      4.750      6.559
REMARK  3 active torsions:
REMARK  status: ('A' for Active; 'I' for Inactive)
REMARK    1  A    between atoms: O_6  and  C_15 
REMARK       I    between atoms: N_9  and  C_18 
REMARK    2  A    between atoms: N_9  and  C_20 
REMARK    3  A    between atoms: C_14  and  C_18 
ROOT
HETATM    1 Cl   UNK N   1      32.724  15.714   5.398  0.00  0.00    -0.076 Cl
HETATM    2  S   UNK N   1      36.670  13.311   8.613  0.00  0.00     0.266 S 
HETATM    3  S   UNK N   1      33.095  15.331   8.387  0.00  0.00    -0.074 SA
HETATM    4  O   UNK N   1      36.672  11.819   8.251  0.00  0.00    -0.200 OA
HETATM    5  O   UNK N   1      38.008  13.867   8.100  0.00  0.00    -0.200 OA
HETATM    6  N   UNK N   1      36.776  13.344  10.361  0.00  0.00    -0.268 N 
HETATM    7  C   UNK N   1      35.231  14.176   8.152  0.00  0.00     0.102 A 
HETATM    8  C   UNK N   1      34.368  14.588   9.145  0.00  0.00     0.065 A 
HETATM    9  C   UNK N   1      35.674  13.835  11.180  0.00  0.00     0.147 C 
HETATM   10  C   UNK N   1      34.548  14.406  10.604  0.00  0.00     0.117 C 
HETATM   11  C   UNK N   1      34.818  14.485   6.827  0.00  0.00     0.058 A 
HETATM   12  C   UNK N   1      33.593  15.160   6.813  0.00  0.00     0.076 A 
HETATM   13  C   UNK N   1      38.006  12.865  10.945  0.00  0.00     0.170 C 
ENDROOT
BRANCH   9  14
HETATM   14  C   UNK N   1      35.767  13.737  12.695  0.00  0.00     0.277 C 
HETATM   15  O   UNK N   1      36.080  14.715  13.354  0.00  0.00    -0.266 OA
HETATM   16  N   UNK N   1      35.488  12.560  13.326  0.00  0.00    -0.308 N 
HETATM   17  H   UNK N   1      35.266  11.794  12.747  0.00  0.00     0.170 HD
BRANCH  16  18
HETATM   18  C   UNK N   1      35.482  12.315  14.729  0.00  0.00     0.107 A 
HETATM   19  N   UNK N   1      34.945  13.257  15.553  0.00  0.00    -0.352 N 
HETATM   20  C   UNK N   1      34.916  13.098  16.904  0.00  0.00     0.089 A 
ATOM     21  HN  UNK N   1      34.552  14.106  15.146  1.00  0.00     0.166 HD
HETATM   22  C   UNK N   1      35.449  11.948  17.485  0.00  0.00     0.017 A 
HETATM   23  C   UNK N   1      36.009  10.967  16.668  0.00  0.00     0.005 A 
HETATM   24  C   UNK N   1      36.029  11.147  15.284  0.00  0.00     0.048 A 
ENDBRANCH  16  18
ENDBRANCH   9  14
BRANCH  10  25
HETATM   25  O   UNK N   1      33.535  14.845  11.381  0.00  0.00    -0.357 OA
HETATM   26  H   UNK N   1      33.163  15.692  11.234  0.00  0.00     0.217 HD
ENDBRANCH  10  25
TORSDOF 3
ENDMDL
MODEL 5
REMARK VINA RESULT:      -6.3      3.782      7.418
REMARK  3 active torsions:
REMARK  status: ('A' for Active; 'I' for Inactive)
REMARK    1  A    between atoms: O_6  and  C_15 
REMARK       I    between atoms: N_9  and  C_18 
REMARK    2  A    between atoms: N_9  and  C_20 
REMARK    3  A    between atoms: C_14  and  C_18 
ROOT
HETATM    1 Cl   UNK N   1      36.688  14.573   9.832  0.00  0.00    -0.076 Cl
HETATM    2  S   UNK N   1      32.413  14.270   6.184  0.00  0.00     0.266 S 
HETATM    3  S   UNK N   1      34.168  16.200   9.364  0.00  0.00    -0.074 SA
HETATM    4  O   UNK N   1      33.018  14.492   4.790  0.00  0.00    -0.200 OA
HETATM    5  O   UNK N   1      31.956  12.802   6.212  0.00  0.00    -0.200 OA
HETATM    6  N   UNK N   1      30.946  15.228   6.189  0.00  0.00    -0.268 N 
HETATM    7  C   UNK N   1      33.404  14.810   7.509  0.00  0.00     0.102 A 
HETATM    8  C   UNK N   1      33.005  15.925   8.215  0.00  0.00     0.065 A 
HETATM    9  C   UNK N   1      30.804  16.394   7.054  0.00  0.00     0.147 C 
HETATM   10  C   UNK N   1      31.775  16.719   7.990  0.00  0.00     0.117 C 
HETATM   11  C   UNK N   1      34.631  14.233   7.938  0.00  0.00     0.058 A 
HETATM   12  C   UNK N   1      35.185  14.937   9.011  0.00  0.00     0.076 A 
HETATM   13  C   UNK N   1      29.891  14.804   5.301  0.00  0.00     0.170 C 
ENDROOT
BRANCH   9  14
HETATM   14  C   UNK N   1      29.559  17.261   6.940  0.00  0.00     0.277 C 
HETATM   15  O   UNK N   1      28.734  17.268   7.839  0.00  0.00    -0.266 OA
HETATM   16  N   UNK N   1      29.366  18.045   5.841  0.00  0.00    -0.308 N 
HETATM   17  H   UNK N   1      30.048  17.982   5.132  0.00  0.00     0.170 HD
BRANCH  16  18
HETATM   18  C   UNK N   1      28.286  18.943   5.602  0.00  0.00     0.107 A 
HETATM   19  N   UNK N   1      27.777  19.644   6.652  0.00  0.00    -0.352 N 
HETATM   20  C   UNK N   1      26.738  20.509   6.503  0.00  0.00     0.089 A 
ATOM     21  HN  UNK N   1      28.186  19.517   7.578  1.00  0.00     0.166 HD
HETATM   22  C   UNK N   1      26.159  20.699   5.249  0.00  0.00     0.017 A 
HETATM   23  C   UNK N   1      26.656  19.992   4.155  0.00  0.00     0.005 A 
HETATM   24  C   UNK N   1      27.723  19.109   4.327  0.00  0.00     0.048 A 
ENDBRANCH  16  18
ENDBRANCH   9  14
BRANCH  10  25
HETATM   25  O   UNK N   1      31.627  17.808   8.774  0.00  0.00    -0.357 OA
HETATM   26  H   UNK N   1      30.783  18.201   8.880  0.00  0.00     0.217 HD
ENDBRANCH  10  25
TORSDOF 3
ENDMDL
MODEL 6
REMARK VINA RESULT:      -6.3      5.105      8.184
REMARK  3 active torsions:
REMARK  status: ('A' for Active; 'I' for Inactive)
REMARK    1  A    between atoms: O_6  and  C_15 
REMARK       I    between atoms: N_9  and  C_18 
REMARK    2  A    between atoms: N_9  and  C_20 
REMARK    3  A    between atoms: C_14  and  C_18 
ROOT
HETATM    1 Cl   UNK N   1      37.609  11.234  14.504  0.00  0.00    -0.076 Cl
HETATM    2  S   UNK N   1      37.209  13.326   9.294  0.00  0.00     0.266 S 
HETATM    3  S   UNK N   1      35.759  13.217  13.142  0.00  0.00    -0.074 SA
HETATM    4  O   UNK N   1      38.507  14.106   9.041  0.00  0.00    -0.200 OA
HETATM    5  O   UNK N   1      37.266  12.107   8.360  0.00  0.00    -0.200 OA
HETATM    6  N   UNK N   1      35.942  14.356   8.661  0.00  0.00    -0.268 N 
HETATM    7  C   UNK N   1      36.854  13.016  10.970  0.00  0.00     0.102 A 
HETATM    8  C   UNK N   1      35.807  13.696  11.555  0.00  0.00     0.065 A 
HETATM    9  C   UNK N   1      34.951  14.967   9.539  0.00  0.00     0.147 C 
HETATM   10  C   UNK N   1      34.900  14.662  10.891  0.00  0.00     0.117 C 
HETATM   11  C   UNK N   1      37.563  12.139  11.837  0.00  0.00     0.058 A 
HETATM   12  C   UNK N   1      37.032  12.154  13.131  0.00  0.00     0.076 A 
HETATM   13  C   UNK N   1      35.928  14.564   7.233  0.00  0.00     0.170 C 
ENDROOT
BRANCH   9  14
HETATM   14  C   UNK N   1      33.940  15.946   8.959  0.00  0.00     0.277 C 
HETATM   15  O   UNK N   1      34.308  17.036   8.551  0.00  0.00    -0.266 OA
HETATM   16  N   UNK N   1      32.622  15.605   8.878  0.00  0.00    -0.308 N 
HETATM   17  H   UNK N   1      32.374  14.725   9.246  0.00  0.00     0.170 HD
BRANCH  16  18
HETATM   18  C   UNK N   1      31.564  16.381   8.324  0.00  0.00     0.107 A 
HETATM   19  N   UNK N   1      31.048  17.402   9.063  0.00  0.00    -0.352 N 
HETATM   20  C   UNK N   1      30.028  18.178   8.605  0.00  0.00     0.089 A 
ATOM     21  HN  UNK N   1      31.437  17.592   9.986  1.00  0.00     0.166 HD
HETATM   22  C   UNK N   1      29.476  17.937   7.347  0.00  0.00     0.017 A 
HETATM   23  C   UNK N   1      29.981  16.896   6.568  0.00  0.00     0.005 A 
HETATM   24  C   UNK N   1      31.028  16.112   7.055  0.00  0.00     0.048 A 
ENDBRANCH  16  18
ENDBRANCH   9  14
BRANCH  10  25
HETATM   25  O   UNK N   1      33.980  15.246  11.687  0.00  0.00    -0.357 OA
HETATM   26  H   UNK N   1      33.120  15.424  11.361  0.00  0.00     0.217 HD
ENDBRANCH  10  25
TORSDOF 3
ENDMDL
MODEL 7
REMARK VINA RESULT:      -6.3      4.503      5.970
REMARK  3 active torsions:
REMARK  status: ('A' for Active; 'I' for Inactive)
REMARK    1  A    between atoms: O_6  and  C_15 
REMARK       I    between atoms: N_9  and  C_18 
REMARK    2  A    between atoms: N_9  and  C_20 
REMARK    3  A    between atoms: C_14  and  C_18 
ROOT
HETATM    1 Cl   UNK N   1      35.256  13.018   2.383  0.00  0.00    -0.076 Cl
HETATM    2  S   UNK N   1      34.085  16.295   6.806  0.00  0.00     0.266 S 
HETATM    3  S   UNK N   1      36.205  13.126   5.264  0.00  0.00    -0.074 SA
HETATM    4  O   UNK N   1      34.540  17.712   6.426  0.00  0.00    -0.200 OA
HETATM    5  O   UNK N   1      32.551  16.354   6.875  0.00  0.00    -0.200 OA
HETATM    6  N   UNK N   1      34.631  16.082   8.457  0.00  0.00    -0.268 N 
HETATM    7  C   UNK N   1      34.781  15.020   5.847  0.00  0.00     0.102 A 
HETATM    8  C   UNK N   1      35.710  14.190   6.436  0.00  0.00     0.065 A 
HETATM    9  C   UNK N   1      35.667  15.112   8.794  0.00  0.00     0.147 C 
HETATM   10  C   UNK N   1      36.173  14.238   7.843  0.00  0.00     0.117 C 
HETATM   11  C   UNK N   1      34.514  14.750   4.476  0.00  0.00     0.058 A 
HETATM   12  C   UNK N   1      35.271  13.672   4.006  0.00  0.00     0.076 A 
HETATM   13  C   UNK N   1      34.005  16.909   9.459  0.00  0.00     0.170 C 
ENDROOT
BRANCH   9  14
HETATM   14  C   UNK N   1      36.189  15.043  10.221  0.00  0.00     0.277 C 
HETATM   15  O   UNK N   1      36.879  15.946  10.665  0.00  0.00    -0.266 OA
HETATM   16  N   UNK N   1      35.879  13.979  11.016  0.00  0.00    -0.308 N 
HETATM   17  H   UNK N   1      35.342  13.264  10.601  0.00  0.00     0.170 HD
BRANCH  16  18
HETATM   18  C   UNK N   1      36.246  13.785  12.378  0.00  0.00     0.107 A 
HETATM   19  N   UNK N   1      36.290  14.870  13.202  0.00  0.00    -0.352 N 
HETATM   20  C   UNK N   1      36.644  14.764  14.511  0.00  0.00     0.089 A 
ATOM     21  HN  UNK N   1      36.050  15.787  12.827  1.00  0.00     0.166 HD
HETATM   22  C   UNK N   1      36.981  13.521  15.048  0.00  0.00     0.017 A 
HETATM   23  C   UNK N   1      36.948  12.394  14.229  0.00  0.00     0.005 A 
HETATM   24  C   UNK N   1      36.581  12.521  12.888  0.00  0.00     0.048 A 
ENDBRANCH  16  18
ENDBRANCH   9  14
BRANCH  10  25
HETATM   25  O   UNK N   1      37.137  13.354   8.175  0.00  0.00    -0.357 OA
HETATM   26  H   UNK N   1      37.957  13.359   7.721  0.00  0.00     0.217 HD
ENDBRANCH  10  25
TORSDOF 3
ENDMDL
MODEL 8
REMARK VINA RESULT:      -6.2      3.877      5.109
REMARK  3 active torsions:
REMARK  status: ('A' for Active; 'I' for Inactive)
REMARK    1  A    between atoms: O_6  and  C_15 
REMARK       I    between atoms: N_9  and  C_18 
REMARK    2  A    between atoms: N_9  and  C_20 
REMARK    3  A    between atoms: C_14  and  C_18 
ROOT
HETATM    1 Cl   UNK N   1      32.296  16.928   2.725  0.00  0.00    -0.076 Cl
HETATM    2  S   UNK N   1      34.138  17.653   7.993  0.00  0.00     0.266 S 
HETATM    3  S   UNK N   1      33.923  15.250   4.663  0.00  0.00    -0.074 SA
HETATM    4  O   UNK N   1      35.104  18.847   7.953  0.00  0.00    -0.200 OA
HETATM    5  O   UNK N   1      32.915  18.133   8.791  0.00  0.00    -0.200 OA
HETATM    6  N   UNK N   1      34.937  16.470   9.009  0.00  0.00    -0.268 N 
HETATM    7  C   UNK N   1      33.828  16.908   6.452  0.00  0.00     0.102 A 
HETATM    8  C   UNK N   1      34.353  15.656   6.211  0.00  0.00     0.065 A 
HETATM    9  C   UNK N   1      35.412  15.203   8.466  0.00  0.00     0.147 C 
HETATM   10  C   UNK N   1      35.145  14.833   7.156  0.00  0.00     0.117 C 
HETATM   11  C   UNK N   1      33.101  17.474   5.369  0.00  0.00     0.058 A 
HETATM   12  C   UNK N   1      33.072  16.618   4.263  0.00  0.00     0.076 A 
HETATM   13  C   UNK N   1      35.096  16.812  10.401  0.00  0.00     0.170 C 
ENDROOT
BRANCH   9  14
HETATM   14  C   UNK N   1      36.202  14.257   9.360  0.00  0.00     0.277 C 
HETATM   15  O   UNK N   1      37.416  14.188   9.256  0.00  0.00    -0.266 OA
HETATM   16  N   UNK N   1      35.560  13.494  10.290  0.00  0.00    -0.308 N 
HETATM   17  H   UNK N   1      34.578  13.567  10.314  0.00  0.00     0.170 HD
BRANCH  16  18
HETATM   18  C   UNK N   1      36.151  12.600  11.228  0.00  0.00     0.107 A 
HETATM   19  N   UNK N   1      36.274  11.287  10.889  0.00  0.00    -0.352 N 
HETATM   20  C   UNK N   1      36.817  10.372  11.737  0.00  0.00     0.089 A 
ATOM     21  HN  UNK N   1      35.951  10.979   9.972  1.00  0.00     0.166 HD
HETATM   22  C   UNK N   1      37.263  10.767  12.999  0.00  0.00     0.017 A 
HETATM   23  C   UNK N   1      37.148  12.104  13.376  0.00  0.00     0.005 A 
HETATM   24  C   UNK N   1      36.589  13.027  12.491  0.00  0.00     0.048 A 
ENDBRANCH  16  18
ENDBRANCH   9  14
BRANCH  10  25
HETATM   25  O   UNK N   1      35.602  13.659   6.673  0.00  0.00    -0.357 OA
HETATM   26  H   UNK N   1      36.513  13.447   6.737  0.00  0.00     0.217 HD
ENDBRANCH  10  25
TORSDOF 3
ENDMDL
MODEL 9
REMARK VINA RESULT:      -6.2      4.655      7.978
REMARK  3 active torsions:
REMARK  status: ('A' for Active; 'I' for Inactive)
REMARK    1  A    between atoms: O_6  and  C_15 
REMARK       I    between atoms: N_9  and  C_18 
REMARK    2  A    between atoms: N_9  and  C_20 
REMARK    3  A    between atoms: C_14  and  C_18 
ROOT
HETATM    1 Cl   UNK N   1      36.569   9.475  11.780  0.00  0.00    -0.076 Cl
HETATM    2  S   UNK N   1      35.952  14.981  10.796  0.00  0.00     0.266 S 
HETATM    3  S   UNK N   1      34.478  11.165  10.372  0.00  0.00    -0.074 SA
HETATM    4  O   UNK N   1      35.813  15.653  12.170  0.00  0.00    -0.200 OA
HETATM    5  O   UNK N   1      37.306  15.450  10.238  0.00  0.00    -0.200 OA
HETATM    6  N   UNK N   1      34.732  15.750   9.802  0.00  0.00    -0.268 N 
HETATM    7  C   UNK N   1      35.647  13.268  10.783  0.00  0.00     0.102 A 
HETATM    8  C   UNK N   1      34.495  12.812  10.178  0.00  0.00     0.065 A 
HETATM    9  C   UNK N   1      33.584  15.005   9.298  0.00  0.00     0.147 C 
HETATM   10  C   UNK N   1      33.475  13.635   9.487  0.00  0.00     0.117 C 
HETATM   11  C   UNK N   1      36.460  12.259  11.370  0.00  0.00     0.058 A 
HETATM   12  C   UNK N   1      35.903  10.987  11.204  0.00  0.00     0.076 A 
HETATM   13  C   UNK N   1      34.923  17.149   9.505  0.00  0.00     0.170 C 
ENDROOT
BRANCH   9  14
HETATM   14  C   UNK N   1      32.492  15.740   8.536  0.00  0.00     0.277 C 
HETATM   15  O   UNK N   1      32.500  15.755   7.316  0.00  0.00    -0.266 OA
HETATM   16  N   UNK N   1      31.491  16.375   9.211  0.00  0.00    -0.308 N 
HETATM   17  H   UNK N   1      31.545  16.356  10.195  0.00  0.00     0.170 HD
BRANCH  16  18
HETATM   18  C   UNK N   1      30.377  17.064   8.652  0.00  0.00     0.107 A 
HETATM   19  N   UNK N   1      30.025  16.797   7.363  0.00  0.00    -0.352 N 
HETATM   20  C   UNK N   1      28.981  17.424   6.758  0.00  0.00     0.089 A 
ATOM     21  HN  UNK N   1      30.559  16.105   6.837  1.00  0.00     0.166 HD
HETATM   22  C   UNK N   1      28.237  18.376   7.455  0.00  0.00     0.017 A 
HETATM   23  C   UNK N   1      28.575  18.674   8.774  0.00  0.00     0.005 A 
HETATM   24  C   UNK N   1      29.649  18.019   9.379  0.00  0.00     0.048 A 
ENDBRANCH  16  18
ENDBRANCH   9  14
BRANCH  10  25
HETATM   25  O   UNK N   1      32.399  12.967   9.021  0.00  0.00    -0.357 OA
HETATM   26  H   UNK N   1      31.780  12.596   9.618  0.00  0.00     0.217 HD
ENDBRANCH  10  25
TORSDOF 3
ENDMDL
