MODEL 1
REMARK VINA RESULT:      -7.1      0.000      0.000
REMARK  8 active torsions:
REMARK  status: ('A' for Active; 'I' for Inactive)
REMARK    1  A    between atoms: O_2  and  C_3 
REMARK    2  A    between atoms: C_3  and  C_4 
REMARK    3  A    between atoms: C_3  and  C_19 
REMARK    4  A    between atoms: C_3  and  C_25 
REMARK    5  A    between atoms: C_4  and  O_5 
REMARK    6  A    between atoms: C_4  and  C_16 
REMARK    7  A    between atoms: O_5  and  C_6 
REMARK    8  A    between atoms: C_16  and  O_18 
ROOT
HETATM    1  C   UNK N   1      33.160  15.932   8.722  0.00  0.00     0.273 C 
ENDROOT
BRANCH   1   2
HETATM    2  C   UNK N   1      32.593  17.155   7.907  0.00  0.00     0.151 C 
BRANCH   2   3
HETATM    3  O   UNK N   1      33.283  18.375   8.194  0.00  0.00    -0.372 OA
HETATM    4  C   UNK N   1      34.634  18.345   7.824  0.00  0.00     0.203 C 
ENDBRANCH   2   3
BRANCH   2   5
HETATM    5  C   UNK N   1      31.065  17.373   8.043  0.00  0.00    -0.016 A 
HETATM    6  C   UNK N   1      30.550  18.285   8.982  0.00  0.00     0.011 A 
HETATM    7  C   UNK N   1      29.180  18.559   9.041  0.00  0.00     0.001 A 
HETATM    8  C   UNK N   1      28.297  17.921   8.168  0.00  0.00     0.000 A 
HETATM    9  C   UNK N   1      28.783  17.002   7.238  0.00  0.00     0.001 A 
HETATM   10  C   UNK N   1      30.153  16.740   7.171  0.00  0.00     0.011 A 
ENDBRANCH   2   5
BRANCH   2  11
HETATM   11  C   UNK N   1      32.909  16.826   6.441  0.00  0.00    -0.016 A 
HETATM   12  C   UNK N   1      32.508  17.693   5.408  0.00  0.00     0.011 A 
HETATM   13  C   UNK N   1      32.749  17.366   4.073  0.00  0.00     0.001 A 
HETATM   14  C   UNK N   1      33.402  16.175   3.751  0.00  0.00     0.000 A 
HETATM   15  C   UNK N   1      33.818  15.309   4.765  0.00  0.00     0.001 A 
HETATM   16  C   UNK N   1      33.568  15.628   6.102  0.00  0.00     0.011 A 
ENDBRANCH   2  11
ENDBRANCH   1   2
BRANCH   1  17
HETATM   17  O   UNK N   1      34.050  16.381   9.677  0.00  0.00    -0.302 OA
BRANCH  17  18
HETATM   18  C   UNK N   1      35.035  15.607  10.166  0.00  0.00     0.225 A 
HETATM   19  N   UNK N   1      35.108  15.369  11.505  0.00  0.00    -0.326 N 
HETATM   20  C   UNK N   1      36.071  14.563  12.019  0.00  0.00     0.010 A 
ATOM     21  HN  UNK N   1      34.430  15.804  12.131  1.00  0.00     0.169 HD
HETATM   22  C   UNK N   1      36.142  14.329  13.485  0.00  0.00     0.068 C 
HETATM   23  C   UNK N   1      36.988  13.946  11.171  0.00  0.00     0.049 A 
HETATM   24  C   UNK N   1      36.895  14.191   9.801  0.00  0.00     0.010 A 
HETATM   25  C   UNK N   1      37.843  13.532   8.864  0.00  0.00     0.068 C 
HETATM   26  N   UNK N   1      35.929  15.017   9.324  0.00  0.00    -0.326 N 
ATOM     27  HN  UNK N   1      35.872  15.199   8.321  1.00  0.00     0.169 HD
ENDBRANCH  17  18
ENDBRANCH   1  17
BRANCH   1  28
HETATM   28  C   UNK N   1      32.211  14.924   9.319  0.00  0.00     0.174 C 
HETATM   29  O   UNK N   1      32.093  13.832   8.789  0.00  0.00    -0.648 OA
BRANCH  28  30
HETATM   30  O   UNK N   1      31.563  15.171  10.473  0.00  0.00    -0.774 OA
HETATM   31  H   UNK N   1      30.879  14.799  10.995  0.00  0.00     0.167 HD
ENDBRANCH  28  30
ENDBRANCH   1  28
TORSDOF 8
ENDMDL
MODEL 2
REMARK VINA RESULT:      -6.6      2.323      5.343
REMARK  8 active torsions:
REMARK  status: ('A' for Active; 'I' for Inactive)
REMARK    1  A    between atoms: O_2  and  C_3 
REMARK    2  A    between atoms: C_3  and  C_4 
REMARK    3  A    between atoms: C_3  and  C_19 
REMARK    4  A    between atoms: C_3  and  C_25 
REMARK    5  A    between atoms: C_4  and  O_5 
REMARK    6  A    between atoms: C_4  and  C_16 
REMARK    7  A    between atoms: O_5  and  C_6 
REMARK    8  A    between atoms: C_16  and  O_18 
ROOT
HETATM    1  C   UNK N   1      34.916  14.810  10.543  0.00  0.00     0.273 C 
ENDROOT
BRANCH   1   2
HETATM    2  C   UNK N   1      34.388  14.477   9.097  0.00  0.00     0.151 C 
BRANCH   2   3
HETATM    3  O   UNK N   1      33.590  13.290   9.063  0.00  0.00    -0.372 OA
HETATM    4  C   UNK N   1      33.546  12.691   7.797  0.00  0.00     0.203 C 
ENDBRANCH   2   3
BRANCH   2   5
HETATM    5  C   UNK N   1      35.486  14.401   8.007  0.00  0.00    -0.016 A 
HETATM    6  C   UNK N   1      36.700  13.734   8.254  0.00  0.00     0.011 A 
HETATM    7  C   UNK N   1      37.652  13.577   7.242  0.00  0.00     0.001 A 
HETATM    8  C   UNK N   1      37.413  14.090   5.966  0.00  0.00     0.000 A 
HETATM    9  C   UNK N   1      36.223  14.767   5.701  0.00  0.00     0.001 A 
HETATM   10  C   UNK N   1      35.268  14.912   6.708  0.00  0.00     0.011 A 
ENDBRANCH   2   5
BRANCH   2  11
HETATM   11  C   UNK N   1      33.439  15.634   8.753  0.00  0.00    -0.016 A 
HETATM   12  C   UNK N   1      33.929  16.814   8.167  0.00  0.00     0.011 A 
HETATM   13  C   UNK N   1      33.074  17.886   7.904  0.00  0.00     0.001 A 
HETATM   14  C   UNK N   1      31.716  17.789   8.214  0.00  0.00     0.000 A 
HETATM   15  C   UNK N   1      31.211  16.619   8.785  0.00  0.00     0.001 A 
HETATM   16  C   UNK N   1      32.066  15.549   9.061  0.00  0.00     0.011 A 
ENDBRANCH   2  11
ENDBRANCH   1   2
BRANCH   1  17
HETATM   17  O   UNK N   1      35.510  13.691  11.091  0.00  0.00    -0.302 OA
BRANCH  17  18
HETATM   18  C   UNK N   1      35.436  13.404  12.404  0.00  0.00     0.225 A 
HETATM   19  N   UNK N   1      34.637  12.388  12.831  0.00  0.00    -0.326 N 
HETATM   20  C   UNK N   1      34.573  12.057  14.145  0.00  0.00     0.010 A 
ATOM     21  HN  UNK N   1      34.077  11.870  12.154  1.00  0.00     0.169 HD
HETATM   22  C   UNK N   1      33.681  10.954  14.592  0.00  0.00     0.068 C 
HETATM   23  C   UNK N   1      35.350  12.743  15.076  0.00  0.00     0.049 A 
HETATM   24  C   UNK N   1      36.171  13.775  14.622  0.00  0.00     0.010 A 
HETATM   25  C   UNK N   1      37.032  14.515  15.583  0.00  0.00     0.068 C 
HETATM   26  N   UNK N   1      36.198  14.091  13.301  0.00  0.00    -0.326 N 
ATOM     27  HN  UNK N   1      36.794  14.852  12.977  1.00  0.00     0.169 HD
ENDBRANCH  17  18
ENDBRANCH   1  17
BRANCH   1  28
HETATM   28  C   UNK N   1      35.779  16.027  10.765  0.00  0.00     0.174 C 
HETATM   29  O   UNK N   1      35.248  17.092  11.032  0.00  0.00    -0.648 OA
BRANCH  28  30
HETATM   30  O   UNK N   1      37.123  15.941  10.764  0.00  0.00    -0.774 OA
HETATM   31  H   UNK N   1      37.810  15.575  10.241  0.00  0.00     0.167 HD
ENDBRANCH  28  30
ENDBRANCH   1  28
TORSDOF 8
ENDMDL
MODEL 3
REMARK VINA RESULT:      -6.3     13.842     16.925
REMARK  8 active torsions:
REMARK  status: ('A' for Active; 'I' for Inactive)
REMARK    1  A    between atoms: O_2  and  C_3 
REMARK    2  A    between atoms: C_3  and  C_4 
REMARK    3  A    between atoms: C_3  and  C_19 
REMARK    4  A    between atoms: C_3  and  C_25 
REMARK    5  A    between atoms: C_4  and  O_5 
REMARK    6  A    between atoms: C_4  and  C_16 
REMARK    7  A    between atoms: O_5  and  C_6 
REMARK    8  A    between atoms: C_16  and  O_18 
ROOT
HETATM    1  C   UNK N   1      28.085  24.319  -4.470  0.00  0.00     0.273 C 
ENDROOT
BRANCH   1   2
HETATM    2  C   UNK N   1      28.110  25.660  -5.296  0.00  0.00     0.151 C 
BRANCH   2   3
HETATM    3  O   UNK N   1      29.421  25.996  -5.758  0.00  0.00    -0.372 OA
HETATM    4  C   UNK N   1      29.770  25.346  -6.950  0.00  0.00     0.203 C 
ENDBRANCH   2   3
BRANCH   2   5
HETATM    5  C   UNK N   1      27.480  26.878  -4.575  0.00  0.00    -0.016 A 
HETATM    6  C   UNK N   1      28.282  27.775  -3.846  0.00  0.00     0.011 A 
HETATM    7  C   UNK N   1      27.734  28.929  -3.277  0.00  0.00     0.001 A 
HETATM    8  C   UNK N   1      26.373  29.205  -3.419  0.00  0.00     0.000 A 
HETATM    9  C   UNK N   1      25.556  28.323  -4.126  0.00  0.00     0.001 A 
HETATM   10  C   UNK N   1      26.106  27.178  -4.705  0.00  0.00     0.011 A 
ENDBRANCH   2   5
BRANCH   2  11
HETATM   11  C   UNK N   1      27.283  25.357  -6.554  0.00  0.00    -0.016 A 
HETATM   12  C   UNK N   1      26.895  26.392  -7.424  0.00  0.00     0.011 A 
HETATM   13  C   UNK N   1      26.099  26.123  -8.538  0.00  0.00     0.001 A 
HETATM   14  C   UNK N   1      25.686  24.816  -8.804  0.00  0.00     0.000 A 
HETATM   15  C   UNK N   1      26.073  23.775  -7.956  0.00  0.00     0.001 A 
HETATM   16  C   UNK N   1      26.861  24.043  -6.834  0.00  0.00     0.011 A 
ENDBRANCH   2  11
ENDBRANCH   1   2
BRANCH   1  17
HETATM   17  O   UNK N   1      29.336  24.074  -3.942  0.00  0.00    -0.302 OA
BRANCH  17  18
HETATM   18  C   UNK N   1      30.013  22.936  -4.186  0.00  0.00     0.225 A 
HETATM   19  N   UNK N   1      29.686  22.172  -5.264  0.00  0.00    -0.326 N 
HETATM   20  C   UNK N   1      30.376  21.040  -5.552  0.00  0.00     0.010 A 
ATOM     21  HN  UNK N   1      28.910  22.453  -5.864  1.00  0.00     0.169 HD
HETATM   22  C   UNK N   1      29.992  20.211  -6.725  0.00  0.00     0.068 C 
HETATM   23  C   UNK N   1      31.452  20.658  -4.753  0.00  0.00     0.049 A 
HETATM   24  C   UNK N   1      31.781  21.456  -3.658  0.00  0.00     0.010 A 
HETATM   25  C   UNK N   1      32.937  21.092  -2.796  0.00  0.00     0.068 C 
HETATM   26  N   UNK N   1      31.058  22.574  -3.390  0.00  0.00    -0.326 N 
ATOM     27  HN  UNK N   1      31.299  23.149  -2.583  1.00  0.00     0.169 HD
ENDBRANCH  17  18
ENDBRANCH   1  17
BRANCH   1  28
HETATM   28  C   UNK N   1      27.020  24.102  -3.424  0.00  0.00     0.174 C 
HETATM   29  O   UNK N   1      25.856  24.000  -3.773  0.00  0.00    -0.648 OA
BRANCH  28  30
HETATM   30  O   UNK N   1      27.339  23.928  -2.127  0.00  0.00    -0.774 OA
HETATM   31  H   UNK N   1      28.090  23.732  -1.602  0.00  0.00     0.167 HD
ENDBRANCH  28  30
ENDBRANCH   1  28
TORSDOF 8
ENDMDL
MODEL 4
REMARK VINA RESULT:      -6.2     12.020     13.803
REMARK  8 active torsions:
REMARK  status: ('A' for Active; 'I' for Inactive)
REMARK    1  A    between atoms: O_2  and  C_3 
REMARK    2  A    between atoms: C_3  and  C_4 
REMARK    3  A    between atoms: C_3  and  C_19 
REMARK    4  A    between atoms: C_3  and  C_25 
REMARK    5  A    between atoms: C_4  and  O_5 
REMARK    6  A    between atoms: C_4  and  C_16 
REMARK    7  A    between atoms: O_5  and  C_6 
REMARK    8  A    between atoms: C_16  and  O_18 
ROOT
HETATM    1  C   UNK N   1      20.253  14.713   4.297  0.00  0.00     0.273 C 
ENDROOT
BRANCH   1   2
HETATM    2  C   UNK N   1      20.692  15.086   2.831  0.00  0.00     0.151 C 
BRANCH   2   3
HETATM    3  O   UNK N   1      19.630  14.937   1.884  0.00  0.00    -0.372 OA
HETATM    4  C   UNK N   1      19.335  13.599   1.590  0.00  0.00     0.203 C 
ENDBRANCH   2   3
BRANCH   2   5
HETATM    5  C   UNK N   1      21.953  14.343   2.323  0.00  0.00    -0.016 A 
HETATM    6  C   UNK N   1      22.486  14.619   1.051  0.00  0.00     0.011 A 
HETATM    7  C   UNK N   1      23.680  14.025   0.628  0.00  0.00     0.001 A 
HETATM    8  C   UNK N   1      24.359  13.138   1.465  0.00  0.00     0.000 A 
HETATM    9  C   UNK N   1      23.842  12.839   2.725  0.00  0.00     0.001 A 
HETATM   10  C   UNK N   1      22.658  13.442   3.151  0.00  0.00     0.011 A 
ENDBRANCH   2   5
BRANCH   2  11
HETATM   11  C   UNK N   1      21.001  16.588   2.887  0.00  0.00    -0.016 A 
HETATM   12  C   UNK N   1      22.162  17.059   3.526  0.00  0.00     0.011 A 
HETATM   13  C   UNK N   1      22.415  18.428   3.623  0.00  0.00     0.001 A 
HETATM   14  C   UNK N   1      21.516  19.346   3.076  0.00  0.00     0.000 A 
HETATM   15  C   UNK N   1      20.364  18.894   2.427  0.00  0.00     0.001 A 
HETATM   16  C   UNK N   1      20.102  17.525   2.338  0.00  0.00     0.011 A 
ENDBRANCH   2  11
ENDBRANCH   1   2
BRANCH   1  17
HETATM   17  O   UNK N   1      21.063  15.362   5.205  0.00  0.00    -0.302 OA
BRANCH  17  18
HETATM   18  C   UNK N   1      20.827  15.338   6.530  0.00  0.00     0.225 A 
HETATM   19  N   UNK N   1      20.213  16.396   7.128  0.00  0.00    -0.326 N 
HETATM   20  C   UNK N   1      19.932  16.381   8.455  0.00  0.00     0.010 A 
ATOM     21  HN  UNK N   1      19.962  17.213   6.570  1.00  0.00     0.169 HD
HETATM   22  C   UNK N   1      19.275  17.554   9.091  0.00  0.00     0.068 C 
HETATM   23  C   UNK N   1      20.250  15.261   9.222  0.00  0.00     0.049 A 
HETATM   24  C   UNK N   1      20.869  14.182   8.593  0.00  0.00     0.010 A 
HETATM   25  C   UNK N   1      21.203  12.961   9.376  0.00  0.00     0.068 C 
HETATM   26  N   UNK N   1      21.151  14.238   7.266  0.00  0.00    -0.326 N 
ATOM     27  HN  UNK N   1      21.612  13.448   6.815  1.00  0.00     0.169 HD
ENDBRANCH  17  18
ENDBRANCH   1  17
BRANCH   1  28
HETATM   28  C   UNK N   1      18.804  14.836   4.701  0.00  0.00     0.174 C 
HETATM   29  O   UNK N   1      18.152  13.823   4.892  0.00  0.00    -0.648 OA
BRANCH  28  30
HETATM   30  O   UNK N   1      18.245  16.037   4.942  0.00  0.00    -0.774 OA
HETATM   31  H   UNK N   1      17.400  16.442   4.923  0.00  0.00     0.167 HD
ENDBRANCH  28  30
ENDBRANCH   1  28
TORSDOF 8
ENDMDL
MODEL 5
REMARK VINA RESULT:      -6.2      1.431      2.379
REMARK  8 active torsions:
REMARK  status: ('A' for Active; 'I' for Inactive)
REMARK    1  A    between atoms: O_2  and  C_3 
REMARK    2  A    between atoms: C_3  and  C_4 
REMARK    3  A    between atoms: C_3  and  C_19 
REMARK    4  A    between atoms: C_3  and  C_25 
REMARK    5  A    between atoms: C_4  and  O_5 
REMARK    6  A    between atoms: C_4  and  C_16 
REMARK    7  A    between atoms: O_5  and  C_6 
REMARK    8  A    between atoms: C_16  and  O_18 
ROOT
HETATM    1  C   UNK N   1      33.718  15.393   7.797  0.00  0.00     0.273 C 
ENDROOT
BRANCH   1   2
HETATM    2  C   UNK N   1      33.197  16.726   7.138  0.00  0.00     0.151 C 
BRANCH   2   3
HETATM    3  O   UNK N   1      34.110  17.814   7.305  0.00  0.00    -0.372 OA
HETATM    4  C   UNK N   1      34.536  17.980   8.630  0.00  0.00     0.203 C 
ENDBRANCH   2   3
BRANCH   2   5
HETATM    5  C   UNK N   1      31.778  17.159   7.586  0.00  0.00    -0.016 A 
HETATM    6  C   UNK N   1      31.607  18.130   8.590  0.00  0.00     0.011 A 
HETATM    7  C   UNK N   1      30.332  18.597   8.927  0.00  0.00     0.001 A 
HETATM    8  C   UNK N   1      29.204  18.097   8.273  0.00  0.00     0.000 A 
HETATM    9  C   UNK N   1      29.349  17.125   7.284  0.00  0.00     0.001 A 
HETATM   10  C   UNK N   1      30.623  16.669   6.940  0.00  0.00     0.011 A 
ENDBRANCH   2   5
BRANCH   2  11
HETATM   11  C   UNK N   1      33.163  16.429   5.633  0.00  0.00    -0.016 A 
HETATM   12  C   UNK N   1      32.875  17.448   4.707  0.00  0.00     0.011 A 
HETATM   13  C   UNK N   1      32.793  17.165   3.342  0.00  0.00     0.001 A 
HETATM   14  C   UNK N   1      33.005  15.864   2.883  0.00  0.00     0.000 A 
HETATM   15  C   UNK N   1      33.304  14.843   3.789  0.00  0.00     0.001 A 
HETATM   16  C   UNK N   1      33.376  15.120   5.156  0.00  0.00     0.011 A 
ENDBRANCH   2  11
ENDBRANCH   1   2
BRANCH   1  17
HETATM   17  O   UNK N   1      35.032  15.548   8.186  0.00  0.00    -0.302 OA
BRANCH  17  18
HETATM   18  C   UNK N   1      35.888  14.513   8.268  0.00  0.00     0.225 A 
HETATM   19  N   UNK N   1      36.180  13.785   7.155  0.00  0.00    -0.326 N 
HETATM   20  C   UNK N   1      37.067  12.760   7.205  0.00  0.00     0.010 A 
ATOM     21  HN  UNK N   1      35.725  14.013   6.272  1.00  0.00     0.169 HD
HETATM   22  C   UNK N   1      37.359  11.968   5.981  0.00  0.00     0.068 C 
HETATM   23  C   UNK N   1      37.712  12.454   8.402  0.00  0.00     0.049 A 
HETATM   24  C   UNK N   1      37.410  13.214   9.531  0.00  0.00     0.010 A 
HETATM   25  C   UNK N   1      38.095  12.930  10.820  0.00  0.00     0.068 C 
HETATM   26  N   UNK N   1      36.504  14.223   9.448  0.00  0.00    -0.326 N 
ATOM     27  HN  UNK N   1      36.282  14.770  10.281  1.00  0.00     0.169 HD
ENDBRANCH  17  18
ENDBRANCH   1  17
BRANCH   1  28
HETATM   28  C   UNK N   1      32.918  14.735   8.894  0.00  0.00     0.174 C 
HETATM   29  O   UNK N   1      32.270  13.734   8.639  0.00  0.00    -0.648 OA
BRANCH  28  30
HETATM   30  O   UNK N   1      32.977  15.178  10.164  0.00  0.00    -0.774 OA
HETATM   31  H   UNK N   1      32.817  15.964  10.649  0.00  0.00     0.167 HD
ENDBRANCH  28  30
ENDBRANCH   1  28
TORSDOF 8
ENDMDL
MODEL 6
REMARK VINA RESULT:      -6.1     14.580     17.713
REMARK  8 active torsions:
REMARK  status: ('A' for Active; 'I' for Inactive)
REMARK    1  A    between atoms: O_2  and  C_3 
REMARK    2  A    between atoms: C_3  and  C_4 
REMARK    3  A    between atoms: C_3  and  C_19 
REMARK    4  A    between atoms: C_3  and  C_25 
REMARK    5  A    between atoms: C_4  and  O_5 
REMARK    6  A    between atoms: C_4  and  C_16 
REMARK    7  A    between atoms: O_5  and  C_6 
REMARK    8  A    between atoms: C_16  and  O_18 
ROOT
HETATM    1  C   UNK N   1      28.892  24.446  -6.969  0.00  0.00     0.273 C 
ENDROOT
BRANCH   1   2
HETATM    2  C   UNK N   1      27.498  25.023  -7.421  0.00  0.00     0.151 C 
BRANCH   2   3
HETATM    3  O   UNK N   1      27.565  25.700  -8.679  0.00  0.00    -0.372 OA
HETATM    4  C   UNK N   1      28.027  27.019  -8.573  0.00  0.00     0.203 C 
ENDBRANCH   2   3
BRANCH   2   5
HETATM    5  C   UNK N   1      26.802  25.931  -6.375  0.00  0.00    -0.016 A 
HETATM    6  C   UNK N   1      25.519  26.454  -6.617  0.00  0.00     0.011 A 
HETATM    7  C   UNK N   1      24.846  27.190  -5.636  0.00  0.00     0.001 A 
HETATM    8  C   UNK N   1      25.446  27.424  -4.398  0.00  0.00     0.000 A 
HETATM    9  C   UNK N   1      26.723  26.926  -4.140  0.00  0.00     0.001 A 
HETATM   10  C   UNK N   1      27.388  26.181  -5.115  0.00  0.00     0.011 A 
ENDBRANCH   2   5
BRANCH   2  11
HETATM   11  C   UNK N   1      26.621  23.785  -7.652  0.00  0.00    -0.016 A 
HETATM   12  C   UNK N   1      25.890  23.215  -6.595  0.00  0.00     0.011 A 
HETATM   13  C   UNK N   1      25.134  22.059  -6.795  0.00  0.00     0.001 A 
HETATM   14  C   UNK N   1      25.091  21.461  -8.056  0.00  0.00     0.000 A 
HETATM   15  C   UNK N   1      25.802  22.022  -9.120  0.00  0.00     0.001 A 
HETATM   16  C   UNK N   1      26.568  23.173  -8.920  0.00  0.00     0.011 A 
ENDBRANCH   2  11
ENDBRANCH   1   2
BRANCH   1  17
HETATM   17  O   UNK N   1      28.747  23.131  -6.576  0.00  0.00    -0.302 OA
BRANCH  17  18
HETATM   18  C   UNK N   1      29.426  22.609  -5.538  0.00  0.00     0.225 A 
HETATM   19  N   UNK N   1      29.196  23.068  -4.277  0.00  0.00    -0.326 N 
HETATM   20  C   UNK N   1      29.842  22.533  -3.211  0.00  0.00     0.010 A 
ATOM     21  HN  UNK N   1      28.530  23.827  -4.132  1.00  0.00     0.169 HD
HETATM   22  C   UNK N   1      29.588  23.061  -1.845  0.00  0.00     0.068 C 
HETATM   23  C   UNK N   1      30.737  21.481  -3.395  0.00  0.00     0.049 A 
HETATM   24  C   UNK N   1      30.954  21.014  -4.691  0.00  0.00     0.010 A 
HETATM   25  C   UNK N   1      31.886  19.878  -4.922  0.00  0.00     0.068 C 
HETATM   26  N   UNK N   1      30.303  21.585  -5.737  0.00  0.00    -0.326 N 
ATOM     27  HN  UNK N   1      30.474  21.244  -6.683  1.00  0.00     0.169 HD
ENDBRANCH  17  18
ENDBRANCH   1  17
BRANCH   1  28
HETATM   28  C   UNK N   1      30.094  24.597  -7.868  0.00  0.00     0.174 C 
HETATM   29  O   UNK N   1      31.103  25.122  -7.429  0.00  0.00    -0.648 OA
BRANCH  28  30
HETATM   30  O   UNK N   1      30.105  24.083  -9.113  0.00  0.00    -0.774 OA
HETATM   31  H   UNK N   1      30.691  23.629  -9.687  0.00  0.00     0.167 HD
ENDBRANCH  28  30
ENDBRANCH   1  28
TORSDOF 8
ENDMDL
MODEL 7
REMARK VINA RESULT:      -6.1      4.306      6.857
REMARK  8 active torsions:
REMARK  status: ('A' for Active; 'I' for Inactive)
REMARK    1  A    between atoms: O_2  and  C_3 
REMARK    2  A    between atoms: C_3  and  C_4 
REMARK    3  A    between atoms: C_3  and  C_19 
REMARK    4  A    between atoms: C_3  and  C_25 
REMARK    5  A    between atoms: C_4  and  O_5 
REMARK    6  A    between atoms: C_4  and  C_16 
REMARK    7  A    between atoms: O_5  and  C_6 
REMARK    8  A    between atoms: C_16  and  O_18 
ROOT
HETATM    1  C   UNK N   1      29.369  16.526   4.739  0.00  0.00     0.273 C 
ENDROOT
BRANCH   1   2
HETATM    2  C   UNK N   1      27.813  16.412   4.963  0.00  0.00     0.151 C 
BRANCH   2   3
HETATM    3  O   UNK N   1      27.479  15.979   6.285  0.00  0.00    -0.372 OA
HETATM    4  C   UNK N   1      26.124  15.655   6.433  0.00  0.00     0.203 C 
ENDBRANCH   2   3
BRANCH   2   5
HETATM    5  C   UNK N   1      27.070  15.538   3.922  0.00  0.00    -0.016 A 
HETATM    6  C   UNK N   1      26.500  16.117   2.773  0.00  0.00     0.011 A 
HETATM    7  C   UNK N   1      25.915  15.321   1.783  0.00  0.00     0.001 A 
HETATM    8  C   UNK N   1      25.883  13.933   1.925  0.00  0.00     0.000 A 
HETATM    9  C   UNK N   1      26.430  13.338   3.061  0.00  0.00     0.001 A 
HETATM   10  C   UNK N   1      27.024  14.132   4.043  0.00  0.00     0.011 A 
ENDBRANCH   2   5
BRANCH   2  11
HETATM   11  C   UNK N   1      27.297  17.853   4.847  0.00  0.00    -0.016 A 
HETATM   12  C   UNK N   1      28.194  18.935   4.790  0.00  0.00     0.011 A 
HETATM   13  C   UNK N   1      27.722  20.248   4.737  0.00  0.00     0.001 A 
HETATM   14  C   UNK N   1      26.349  20.498   4.734  0.00  0.00     0.000 A 
HETATM   15  C   UNK N   1      25.445  19.434   4.779  0.00  0.00     0.001 A 
HETATM   16  C   UNK N   1      25.913  18.119   4.842  0.00  0.00     0.011 A 
ENDBRANCH   2  11
ENDBRANCH   1   2
BRANCH   1  17
HETATM   17  O   UNK N   1      30.036  15.986   5.820  0.00  0.00    -0.302 OA
BRANCH  17  18
HETATM   18  C   UNK N   1      30.663  16.748   6.734  0.00  0.00     0.225 A 
HETATM   19  N   UNK N   1      29.954  17.301   7.757  0.00  0.00    -0.326 N 
HETATM   20  C   UNK N   1      30.569  18.043   8.711  0.00  0.00     0.010 A 
ATOM     21  HN  UNK N   1      28.945  17.157   7.804  1.00  0.00     0.169 HD
HETATM   22  C   UNK N   1      29.773  18.652   9.809  0.00  0.00     0.068 C 
HETATM   23  C   UNK N   1      31.950  18.228   8.668  0.00  0.00     0.049 A 
HETATM   24  C   UNK N   1      32.664  17.646   7.621  0.00  0.00     0.010 A 
HETATM   25  C   UNK N   1      34.142  17.803   7.555  0.00  0.00     0.068 C 
HETATM   26  N   UNK N   1      32.013  16.924   6.673  0.00  0.00    -0.326 N 
ATOM     27  HN  UNK N   1      32.541  16.508   5.905  1.00  0.00     0.169 HD
ENDBRANCH  17  18
ENDBRANCH   1  17
BRANCH   1  28
HETATM   28  C   UNK N   1      29.978  16.039   3.448  0.00  0.00     0.174 C 
HETATM   29  O   UNK N   1      30.394  14.894   3.381  0.00  0.00    -0.648 OA
BRANCH  28  30
HETATM   30  O   UNK N   1      29.989  16.811   2.345  0.00  0.00    -0.774 OA
HETATM   31  H   UNK N   1      30.555  17.419   1.910  0.00  0.00     0.167 HD
ENDBRANCH  28  30
ENDBRANCH   1  28
TORSDOF 8
ENDMDL
MODEL 8
REMARK VINA RESULT:      -6.1      9.310     12.594
REMARK  8 active torsions:
REMARK  status: ('A' for Active; 'I' for Inactive)
REMARK    1  A    between atoms: O_2  and  C_3 
REMARK    2  A    between atoms: C_3  and  C_4 
REMARK    3  A    between atoms: C_3  and  C_19 
REMARK    4  A    between atoms: C_3  and  C_25 
REMARK    5  A    between atoms: C_4  and  O_5 
REMARK    6  A    between atoms: C_4  and  C_16 
REMARK    7  A    between atoms: O_5  and  C_6 
REMARK    8  A    between atoms: C_16  and  O_18 
ROOT
HETATM    1  C   UNK N   1      23.783  16.180   5.119  0.00  0.00     0.273 C 
ENDROOT
BRANCH   1   2
HETATM    2  C   UNK N   1      22.638  15.107   5.261  0.00  0.00     0.151 C 
BRANCH   2   3
HETATM    3  O   UNK N   1      23.141  13.805   5.572  0.00  0.00    -0.372 OA
HETATM    4  C   UNK N   1      23.713  13.156   4.470  0.00  0.00     0.203 C 
ENDBRANCH   2   3
BRANCH   2   5
HETATM    5  C   UNK N   1      21.676  15.021   4.049  0.00  0.00    -0.016 A 
HETATM    6  C   UNK N   1      20.442  14.355   4.157  0.00  0.00     0.011 A 
HETATM    7  C   UNK N   1      19.528  14.360   3.098  0.00  0.00     0.001 A 
HETATM    8  C   UNK N   1      19.833  15.025   1.909  0.00  0.00     0.000 A 
HETATM    9  C   UNK N   1      21.056  15.680   1.774  0.00  0.00     0.001 A 
HETATM   10  C   UNK N   1      21.962  15.686   2.836  0.00  0.00     0.011 A 
ENDBRANCH   2   5
BRANCH   2  11
HETATM   11  C   UNK N   1      21.835  15.555   6.489  0.00  0.00    -0.016 A 
HETATM   12  C   UNK N   1      21.889  14.821   7.688  0.00  0.00     0.011 A 
HETATM   13  C   UNK N   1      21.117  15.200   8.788  0.00  0.00     0.001 A 
HETATM   14  C   UNK N   1      20.287  16.320   8.709  0.00  0.00     0.000 A 
HETATM   15  C   UNK N   1      20.231  17.066   7.529  0.00  0.00     0.001 A 
HETATM   16  C   UNK N   1      20.994  16.684   6.423  0.00  0.00     0.011 A 
ENDBRANCH   2  11
ENDBRANCH   1   2
BRANCH   1  17
HETATM   17  O   UNK N   1      23.285  17.434   5.409  0.00  0.00    -0.302 OA
BRANCH  17  18
HETATM   18  C   UNK N   1      23.454  18.485   4.587  0.00  0.00     0.225 A 
HETATM   19  N   UNK N   1      24.706  18.966   4.350  0.00  0.00    -0.326 N 
HETATM   20  C   UNK N   1      24.907  20.002   3.498  0.00  0.00     0.010 A 
ATOM     21  HN  UNK N   1      25.505  18.541   4.822  1.00  0.00     0.169 HD
HETATM   22  C   UNK N   1      26.281  20.521   3.267  0.00  0.00     0.068 C 
HETATM   23  C   UNK N   1      23.825  20.575   2.831  0.00  0.00     0.049 A 
HETATM   24  C   UNK N   1      22.551  20.066   3.076  0.00  0.00     0.010 A 
HETATM   25  C   UNK N   1      21.375  20.638   2.366  0.00  0.00     0.068 C 
HETATM   26  N   UNK N   1      22.385  19.038   3.948  0.00  0.00    -0.326 N 
ATOM     27  HN  UNK N   1      21.448  18.677   4.129  1.00  0.00     0.169 HD
ENDBRANCH  17  18
ENDBRANCH   1  17
BRANCH   1  28
HETATM   28  C   UNK N   1      25.104  15.964   5.815  0.00  0.00     0.174 C 
HETATM   29  O   UNK N   1      26.126  16.373   5.289  0.00  0.00    -0.648 OA
BRANCH  28  30
HETATM   30  O   UNK N   1      25.167  15.413   7.041  0.00  0.00    -0.774 OA
HETATM   31  H   UNK N   1      25.556  14.674   7.467  0.00  0.00     0.167 HD
ENDBRANCH  28  30
ENDBRANCH   1  28
TORSDOF 8
ENDMDL
MODEL 9
REMARK VINA RESULT:      -6.1     10.417     13.187
REMARK  8 active torsions:
REMARK  status: ('A' for Active; 'I' for Inactive)
REMARK    1  A    between atoms: O_2  and  C_3 
REMARK    2  A    between atoms: C_3  and  C_4 
REMARK    3  A    between atoms: C_3  and  C_19 
REMARK    4  A    between atoms: C_3  and  C_25 
REMARK    5  A    between atoms: C_4  and  O_5 
REMARK    6  A    between atoms: C_4  and  C_16 
REMARK    7  A    between atoms: O_5  and  C_6 
REMARK    8  A    between atoms: C_16  and  O_18 
ROOT
HETATM    1  C   UNK N   1      20.259  14.639   4.579  0.00  0.00     0.273 C 
ENDROOT
BRANCH   1   2
HETATM    2  C   UNK N   1      20.648  15.105   3.125  0.00  0.00     0.151 C 
BRANCH   2   3
HETATM    3  O   UNK N   1      19.560  14.993   2.203  0.00  0.00    -0.372 OA
HETATM    4  C   UNK N   1      19.442  13.714   1.641  0.00  0.00     0.203 C 
ENDBRANCH   2   3
BRANCH   2   5
HETATM    5  C   UNK N   1      21.905  14.416   2.537  0.00  0.00    -0.016 A 
HETATM    6  C   UNK N   1      22.534  13.362   3.224  0.00  0.00     0.011 A 
HETATM    7  C   UNK N   1      23.608  12.672   2.652  0.00  0.00     0.001 A 
HETATM    8  C   UNK N   1      24.078  13.028   1.386  0.00  0.00     0.000 A 
HETATM    9  C   UNK N   1      23.479  14.078   0.693  0.00  0.00     0.001 A 
HETATM   10  C   UNK N   1      22.399  14.758   1.259  0.00  0.00     0.011 A 
ENDBRANCH   2   5
BRANCH   2  11
HETATM   11  C   UNK N   1      20.933  16.607   3.261  0.00  0.00    -0.016 A 
HETATM   12  C   UNK N   1      19.940  17.557   2.961  0.00  0.00     0.011 A 
HETATM   13  C   UNK N   1      20.217  18.923   3.034  0.00  0.00     0.001 A 
HETATM   14  C   UNK N   1      21.488  19.359   3.414  0.00  0.00     0.000 A 
HETATM   15  C   UNK N   1      22.482  18.429   3.727  0.00  0.00     0.001 A 
HETATM   16  C   UNK N   1      22.211  17.061   3.645  0.00  0.00     0.011 A 
ENDBRANCH   2  11
ENDBRANCH   1   2
BRANCH   1  17
HETATM   17  O   UNK N   1      20.988  15.355   5.507  0.00  0.00    -0.302 OA
BRANCH  17  18
HETATM   18  C   UNK N   1      21.540  14.779   6.591  0.00  0.00     0.225 A 
HETATM   19  N   UNK N   1      20.782  14.557   7.700  0.00  0.00    -0.326 N 
HETATM   20  C   UNK N   1      21.306  13.946   8.792  0.00  0.00     0.010 A 
ATOM     21  HN  UNK N   1      19.807  14.855   7.711  1.00  0.00     0.169 HD
HETATM   22  C   UNK N   1      20.465  13.728   9.999  0.00  0.00     0.068 C 
HETATM   23  C   UNK N   1      22.631  13.514   8.780  0.00  0.00     0.049 A 
HETATM   24  C   UNK N   1      23.391  13.739   7.634  0.00  0.00     0.010 A 
HETATM   25  C   UNK N   1      24.803  13.272   7.577  0.00  0.00     0.068 C 
HETATM   26  N   UNK N   1      22.839  14.369   6.565  0.00  0.00    -0.326 N 
ATOM     27  HN  UNK N   1      23.404  14.539   5.732  1.00  0.00     0.169 HD
ENDBRANCH  17  18
ENDBRANCH   1  17
BRANCH   1  28
HETATM   28  C   UNK N   1      18.808  14.576   4.984  0.00  0.00     0.174 C 
HETATM   29  O   UNK N   1      18.312  15.524   5.570  0.00  0.00    -0.648 OA
BRANCH  28  30
HETATM   30  O   UNK N   1      18.028  13.535   4.634  0.00  0.00    -0.774 OA
HETATM   31  H   UNK N   1      17.120  13.305   4.614  0.00  0.00     0.167 HD
ENDBRANCH  28  30
ENDBRANCH   1  28
TORSDOF 8
ENDMDL
