MODEL 1
REMARK VINA RESULT:      -3.0      0.000      0.000
REMARK  0 active torsions:
REMARK  status: ('A' for Active; 'I' for Inactive)
ROOT
HETATM    1  O   UNK N   1      19.228  19.902  11.167  0.00  0.00    -0.200 OA
ATOM      2  HO  UNK N   1      20.118  20.211  11.290  1.00  0.00     0.263 HD
HETATM    3  N   UNK N   1      18.001  19.478  10.996  0.00  0.00    -0.197 N 
HETATM    4  N   UNK N   1      16.951  19.115  10.851  0.00  0.00    -0.254 N 
ATOM      5  HN1 UNK N   1      15.995  18.785  10.718  1.00  0.00     0.194 HD
ATOM      6  HN2 UNK N   1      17.923  19.349  11.053  1.00  0.00     0.194 HD
ENDROOT
TORSDOF 0
ENDMDL
MODEL 2
REMARK VINA RESULT:      -3.0      8.193      8.279
REMARK  0 active torsions:
REMARK  status: ('A' for Active; 'I' for Inactive)
ROOT
HETATM    1  O   UNK N   1      17.647  26.153   6.764  0.00  0.00    -0.200 OA
ATOM      2  HO  UNK N   1      17.925  25.579   6.060  1.00  0.00     0.263 HD
HETATM    3  N   UNK N   1      17.265  26.948   7.732  0.00  0.00    -0.197 N 
HETATM    4  N   UNK N   1      16.938  27.626   8.561  0.00  0.00    -0.254 N 
ATOM      5  HN1 UNK N   1      16.640  28.244   9.316  1.00  0.00     0.194 HD
ATOM      6  HN2 UNK N   1      17.152  26.931   7.846  1.00  0.00     0.194 HD
ENDROOT
TORSDOF 0
ENDMDL
MODEL 3
REMARK VINA RESULT:      -2.8     10.980     11.044
REMARK  0 active torsions:
REMARK  status: ('A' for Active; 'I' for Inactive)
ROOT
HETATM    1  O   UNK N   1      20.617  19.704   0.009  0.00  0.00    -0.200 OA
ATOM      2  HO  UNK N   1      20.797  18.821  -0.292  1.00  0.00     0.263 HD
HETATM    3  N   UNK N   1      20.369  20.922   0.421  0.00  0.00    -0.197 N 
HETATM    4  N   UNK N   1      20.156  21.963   0.775  0.00  0.00    -0.254 N 
ATOM      5  HN1 UNK N   1      19.963  22.912   1.096  1.00  0.00     0.194 HD
ATOM      6  HN2 UNK N   1      20.341  20.982   0.568  1.00  0.00     0.194 HD
ENDROOT
TORSDOF 0
ENDMDL
MODEL 4
REMARK VINA RESULT:      -2.7      9.830      9.844
REMARK  0 active torsions:
REMARK  status: ('A' for Active; 'I' for Inactive)
ROOT
HETATM    1  O   UNK N   1      26.785  14.566  11.307  0.00  0.00    -0.200 OA
ATOM      2  HO  UNK N   1      27.392  15.238  11.595  1.00  0.00     0.263 HD
HETATM    3  N   UNK N   1      25.947  13.641  10.913  0.00  0.00    -0.197 N 
HETATM    4  N   UNK N   1      25.231  12.848  10.575  0.00  0.00    -0.254 N 
ATOM      5  HN1 UNK N   1      24.578  12.128  10.268  1.00  0.00     0.194 HD
ATOM      6  HN2 UNK N   1      25.956  13.530  10.796  1.00  0.00     0.194 HD
ENDROOT
TORSDOF 0
ENDMDL
MODEL 5
REMARK VINA RESULT:      -2.6      1.673      2.017
REMARK  0 active torsions:
REMARK  status: ('A' for Active; 'I' for Inactive)
ROOT
HETATM    1  O   UNK N   1      16.938  18.807  10.590  0.00  0.00    -0.200 OA
ATOM      2  HO  UNK N   1      16.083  18.397  10.539  1.00  0.00     0.263 HD
HETATM    3  N   UNK N   1      18.116  19.375  10.661  0.00  0.00    -0.197 N 
HETATM    4  N   UNK N   1      19.124  19.859  10.722  0.00  0.00    -0.254 N 
ATOM      5  HN1 UNK N   1      20.042  20.301  10.778  1.00  0.00     0.194 HD
ATOM      6  HN2 UNK N   1      18.259  19.333  10.599  1.00  0.00     0.194 HD
ENDROOT
TORSDOF 0
ENDMDL
MODEL 6
REMARK VINA RESULT:      -2.5     28.801     28.880
REMARK  0 active torsions:
REMARK  status: ('A' for Active; 'I' for Inactive)
ROOT
HETATM    1  O   UNK N   1      45.754  22.187   4.232  0.00  0.00    -0.200 OA
ATOM      2  HO  UNK N   1      45.834  21.475   4.855  1.00  0.00     0.263 HD
HETATM    3  N   UNK N   1      45.644  23.171   3.374  0.00  0.00    -0.197 N 
HETATM    4  N   UNK N   1      45.550  24.011   2.639  0.00  0.00    -0.254 N 
ATOM      5  HN1 UNK N   1      45.464  24.777   1.972  1.00  0.00     0.194 HD
ATOM      6  HN2 UNK N   1      45.639  23.172   3.213  1.00  0.00     0.194 HD
ENDROOT
TORSDOF 0
ENDMDL
MODEL 7
REMARK VINA RESULT:      -2.5     27.453     27.769
REMARK  0 active torsions:
REMARK  status: ('A' for Active; 'I' for Inactive)
ROOT
HETATM    1  O   UNK N   1      45.141  25.061   2.777  0.00  0.00    -0.200 OA
ATOM      2  HO  UNK N   1      45.779  25.607   2.332  1.00  0.00     0.263 HD
HETATM    3  N   UNK N   1      44.260  24.308   3.387  0.00  0.00    -0.197 N 
HETATM    4  N   UNK N   1      43.508  23.664   3.911  0.00  0.00    -0.254 N 
ATOM      5  HN1 UNK N   1      42.823  23.078   4.387  1.00  0.00     0.194 HD
ATOM      6  HN2 UNK N   1      44.255  24.250   3.537  1.00  0.00     0.194 HD
ENDROOT
TORSDOF 0
ENDMDL
MODEL 8
REMARK VINA RESULT:      -2.5     16.906     17.009
REMARK  0 active torsions:
REMARK  status: ('A' for Active; 'I' for Inactive)
ROOT
HETATM    1  O   UNK N   1      35.289  19.218   8.535  0.00  0.00    -0.200 OA
ATOM      2  HO  UNK N   1      35.595  19.996   8.085  1.00  0.00     0.263 HD
HETATM    3  N   UNK N   1      34.865  18.146   9.157  0.00  0.00    -0.197 N 
HETATM    4  N   UNK N   1      34.503  17.228   9.688  0.00  0.00    -0.254 N 
ATOM      5  HN1 UNK N   1      34.173  16.394  10.172  1.00  0.00     0.194 HD
ATOM      6  HN2 UNK N   1      34.925  17.997   9.167  1.00  0.00     0.194 HD
ENDROOT
TORSDOF 0
ENDMDL
MODEL 9
REMARK VINA RESULT:      -2.5      9.264      9.321
REMARK  0 active torsions:
REMARK  status: ('A' for Active; 'I' for Inactive)
ROOT
HETATM    1  O   UNK N   1      23.785  12.386  13.952  0.00  0.00    -0.200 OA
ATOM      2  HO  UNK N   1      23.892  12.425  14.895  1.00  0.00     0.263 HD
HETATM    3  N   UNK N   1      23.634  12.331  12.652  0.00  0.00    -0.197 N 
HETATM    4  N   UNK N   1      23.507  12.285  11.540  0.00  0.00    -0.254 N 
ATOM      5  HN1 UNK N   1      23.390  12.243  10.528  1.00  0.00     0.194 HD
ATOM      6  HN2 UNK N   1      23.739  12.351  12.531  1.00  0.00     0.194 HD
ENDROOT
TORSDOF 0
ENDMDL
