MODEL 1
REMARK VINA RESULT:      -5.9      0.000      0.000
REMARK  8 active torsions:
REMARK  status: ('A' for Active; 'I' for Inactive)
REMARK    1  A    between atoms: P_2  and  C_1 
REMARK    2  A    between atoms: P_3  and  C_1 
REMARK    3  A    between atoms: N_4  and  C_1 
REMARK    4  A    between atoms: O_7  and  P_2 
REMARK    5  A    between atoms: O_10  and  P_2 
REMARK    6  A    between atoms: O_8  and  P_3 
REMARK    7  A    between atoms: O_9  and  P_3 
REMARK    8  A    between atoms: C_11  and  N_4 
ROOT
HETATM    1  C   UNK N   1      34.460  16.372   9.121  0.00  0.00     0.302 C 
ENDROOT
BRANCH   1   2
HETATM    2  P   UNK N   1      32.899  15.364   9.032  0.00  0.00     0.270 P 
HETATM    3  O   UNK N   1      33.216  13.900   8.628  0.00  0.00    -0.652 OA
BRANCH   2   4
HETATM    4  O   UNK N   1      31.758  15.893   7.834  0.00  0.00    -0.327 OA
HETATM    5  H   UNK N   1      30.806  15.868   7.652  0.00  0.00     0.220 HD
ENDBRANCH   2   4
BRANCH   2   6
HETATM    6  O   UNK N   1      32.030  15.213  10.527  0.00  0.00    -0.327 OA
HETATM    7  H   UNK N   1      31.727  14.685  11.282  0.00  0.00     0.220 HD
ENDBRANCH   2   6
ENDBRANCH   1   2
BRANCH   1   8
HETATM    8  P   UNK N   1      34.266  17.920   8.108  0.00  0.00     0.270 P 
HETATM    9  O   UNK N   1      32.835  18.497   8.280  0.00  0.00    -0.652 OA
BRANCH   8  10
HETATM   10  O   UNK N   1      34.427  17.703   6.395  0.00  0.00    -0.327 OA
HETATM   11  H   UNK N   1      34.048  16.920   5.966  0.00  0.00     0.220 HD
ENDBRANCH   8  10
BRANCH   8  12
HETATM   12  O   UNK N   1      35.308  19.235   8.553  0.00  0.00    -0.327 OA
HETATM   13  H   UNK N   1      36.215  19.475   8.796  0.00  0.00     0.220 HD
ENDBRANCH   8  12
ENDBRANCH   1   8
BRANCH   1  14
HETATM   14  N   UNK N   1      34.761  16.724  10.502  0.00  0.00    -0.394 N 
HETATM   15  H   UNK N   1      34.227  17.362  11.092  0.00  0.00     0.155 HD
BRANCH  14  16
HETATM   16  C   UNK N   1      35.967  15.996  10.889  0.00  0.00     0.078 C 
HETATM   17  C   UNK N   1      36.395  15.069   9.746  0.00  0.00     0.024 C 
HETATM   18  C   UNK N   1      37.455  14.060  10.168  0.00  0.00     0.002 C 
HETATM   19  C   UNK N   1      36.779  12.767  10.615  0.00  0.00     0.000 C 
HETATM   20  C   UNK N   1      36.193  12.858  12.023  0.00  0.00     0.000 C 
HETATM   21  C   UNK N   1      35.116  13.928  12.139  0.00  0.00     0.002 C 
HETATM   22  C   UNK N   1      35.787  15.289  12.246  0.00  0.00     0.024 C 
ENDBRANCH  14  16
ENDBRANCH   1  14
TORSDOF 8
ENDMDL
MODEL 2
REMARK VINA RESULT:      -5.4     13.298     14.625
REMARK  8 active torsions:
REMARK  status: ('A' for Active; 'I' for Inactive)
REMARK    1  A    between atoms: P_2  and  C_1 
REMARK    2  A    between atoms: P_3  and  C_1 
REMARK    3  A    between atoms: N_4  and  C_1 
REMARK    4  A    between atoms: O_7  and  P_2 
REMARK    5  A    between atoms: O_10  and  P_2 
REMARK    6  A    between atoms: O_8  and  P_3 
REMARK    7  A    between atoms: O_9  and  P_3 
REMARK    8  A    between atoms: C_11  and  N_4 
ROOT
HETATM    1  C   UNK N   1      21.412  18.674   3.050  0.00  0.00     0.302 C 
ENDROOT
BRANCH   1   2
HETATM    2  P   UNK N   1      20.070  17.888   2.028  0.00  0.00     0.270 P 
HETATM    3  O   UNK N   1      20.031  16.355   2.266  0.00  0.00    -0.652 OA
BRANCH   2   4
HETATM    4  O   UNK N   1      20.279  18.043   0.311  0.00  0.00    -0.327 OA
HETATM    5  H   UNK N   1      19.751  18.130  -0.497  0.00  0.00     0.220 HD
ENDBRANCH   2   4
BRANCH   2   6
HETATM    6  O   UNK N   1      18.458  18.417   2.392  0.00  0.00    -0.327 OA
HETATM    7  H   UNK N   1      17.509  18.448   2.189  0.00  0.00     0.220 HD
ENDBRANCH   2   6
ENDBRANCH   1   2
BRANCH   1   8
HETATM    8  P   UNK N   1      21.713  20.412   2.460  0.00  0.00     0.270 P 
HETATM    9  O   UNK N   1      20.668  21.378   3.081  0.00  0.00    -0.652 OA
BRANCH   8  10
HETATM   10  O   UNK N   1      21.539  20.649   0.750  0.00  0.00    -0.327 OA
HETATM   11  H   UNK N   1      22.085  20.140   0.131  0.00  0.00     0.220 HD
ENDBRANCH   8  10
BRANCH   8  12
HETATM   12  O   UNK N   1      23.242  21.097   2.914  0.00  0.00    -0.327 OA
HETATM   13  H   UNK N   1      23.832  21.284   3.660  0.00  0.00     0.220 HD
ENDBRANCH   8  12
ENDBRANCH   1   8
BRANCH   1  14
HETATM   14  N   UNK N   1      21.035  18.692   4.457  0.00  0.00    -0.394 N 
HETATM   15  H   UNK N   1      20.137  18.993   4.838  0.00  0.00     0.155 HD
BRANCH  14  16
HETATM   16  C   UNK N   1      22.177  18.201   5.225  0.00  0.00     0.078 C 
HETATM   17  C   UNK N   1      23.149  17.476   4.289  0.00  0.00     0.024 C 
HETATM   18  C   UNK N   1      24.208  16.678   5.039  0.00  0.00     0.002 C 
HETATM   19  C   UNK N   1      23.726  15.242   5.226  0.00  0.00     0.000 C 
HETATM   20  C   UNK N   1      22.706  15.098   6.353  0.00  0.00     0.000 C 
HETATM   21  C   UNK N   1      21.442  15.910   6.105  0.00  0.00     0.002 C 
HETATM   22  C   UNK N   1      21.723  17.367   6.438  0.00  0.00     0.024 C 
ENDBRANCH  14  16
ENDBRANCH   1  14
TORSDOF 8
ENDMDL
MODEL 3
REMARK VINA RESULT:      -5.4     12.414     13.735
REMARK  8 active torsions:
REMARK  status: ('A' for Active; 'I' for Inactive)
REMARK    1  A    between atoms: P_2  and  C_1 
REMARK    2  A    between atoms: P_3  and  C_1 
REMARK    3  A    between atoms: N_4  and  C_1 
REMARK    4  A    between atoms: O_7  and  P_2 
REMARK    5  A    between atoms: O_10  and  P_2 
REMARK    6  A    between atoms: O_8  and  P_3 
REMARK    7  A    between atoms: O_9  and  P_3 
REMARK    8  A    between atoms: C_11  and  N_4 
ROOT
HETATM    1  C   UNK N   1      21.978  18.738   3.137  0.00  0.00     0.302 C 
ENDROOT
BRANCH   1   2
HETATM    2  P   UNK N   1      20.737  17.479   3.719  0.00  0.00     0.270 P 
HETATM    3  O   UNK N   1      21.031  16.091   3.090  0.00  0.00    -0.652 OA
BRANCH   2   4
HETATM    4  O   UNK N   1      19.096  17.810   3.261  0.00  0.00    -0.327 OA
HETATM    5  H   UNK N   1      18.341  17.376   2.833  0.00  0.00     0.220 HD
ENDBRANCH   2   4
BRANCH   2   6
HETATM    6  O   UNK N   1      20.735  17.179   5.429  0.00  0.00    -0.327 OA
HETATM    7  H   UNK N   1      20.820  16.576   6.184  0.00  0.00     0.220 HD
ENDBRANCH   2   6
ENDBRANCH   1   2
BRANCH   1   8
HETATM    8  P   UNK N   1      21.116  20.344   2.767  0.00  0.00     0.270 P 
HETATM    9  O   UNK N   1      20.118  20.691   3.904  0.00  0.00    -0.652 OA
BRANCH   8  10
HETATM   10  O   UNK N   1      20.137  20.339   1.335  0.00  0.00    -0.327 OA
HETATM   11  H   UNK N   1      19.197  20.104   1.389  0.00  0.00     0.220 HD
ENDBRANCH   8  10
BRANCH   8  12
HETATM   12  O   UNK N   1      22.148  21.736   2.671  0.00  0.00    -0.327 OA
HETATM   13  H   UNK N   1      22.273  22.647   2.978  0.00  0.00     0.220 HD
ENDBRANCH   8  12
ENDBRANCH   1   8
BRANCH   1  14
HETATM   14  N   UNK N   1      23.000  18.952   4.152  0.00  0.00    -0.394 N 
HETATM   15  H   UNK N   1      22.842  19.251   5.114  0.00  0.00     0.155 HD
BRANCH  14  16
HETATM   16  C   UNK N   1      24.295  18.659   3.541  0.00  0.00     0.078 C 
HETATM   17  C   UNK N   1      25.044  17.632   4.396  0.00  0.00     0.024 C 
HETATM   18  C   UNK N   1      26.509  17.493   4.006  0.00  0.00     0.002 C 
HETATM   19  C   UNK N   1      27.356  18.432   4.861  0.00  0.00     0.000 C 
HETATM   20  C   UNK N   1      27.287  19.885   4.394  0.00  0.00     0.000 C 
HETATM   21  C   UNK N   1      25.877  20.454   4.459  0.00  0.00     0.002 C 
HETATM   22  C   UNK N   1      25.089  19.949   3.260  0.00  0.00     0.024 C 
ENDBRANCH  14  16
ENDBRANCH   1  14
TORSDOF 8
ENDMDL
MODEL 4
REMARK VINA RESULT:      -5.3     12.386     14.383
REMARK  8 active torsions:
REMARK  status: ('A' for Active; 'I' for Inactive)
REMARK    1  A    between atoms: P_2  and  C_1 
REMARK    2  A    between atoms: P_3  and  C_1 
REMARK    3  A    between atoms: N_4  and  C_1 
REMARK    4  A    between atoms: O_7  and  P_2 
REMARK    5  A    between atoms: O_10  and  P_2 
REMARK    6  A    between atoms: O_8  and  P_3 
REMARK    7  A    between atoms: O_9  and  P_3 
REMARK    8  A    between atoms: C_11  and  N_4 
ROOT
HETATM    1  C   UNK N   1      42.276  22.835   1.673  0.00  0.00     0.302 C 
ENDROOT
BRANCH   1   2
HETATM    2  P   UNK N   1      43.791  23.252   2.669  0.00  0.00     0.270 P 
HETATM    3  O   UNK N   1      44.530  24.470   2.056  0.00  0.00    -0.652 OA
BRANCH   2   4
HETATM    4  O   UNK N   1      44.999  22.005   2.713  0.00  0.00    -0.327 OA
HETATM    5  H   UNK N   1      45.961  21.900   2.654  0.00  0.00     0.220 HD
ENDBRANCH   2   4
BRANCH   2   6
HETATM    6  O   UNK N   1      43.489  23.722   4.313  0.00  0.00    -0.327 OA
HETATM    7  H   UNK N   1      43.760  24.167   5.131  0.00  0.00     0.220 HD
ENDBRANCH   2   6
ENDBRANCH   1   2
BRANCH   1   8
HETATM    8  P   UNK N   1      41.518  21.261   2.312  0.00  0.00     0.270 P 
HETATM    9  O   UNK N   1      42.239  20.808   3.610  0.00  0.00    -0.652 OA
BRANCH   8  10
HETATM   10  O   UNK N   1      41.661  19.894   1.254  0.00  0.00    -0.327 OA
HETATM   11  H   UNK N   1      42.497  19.405   1.202  0.00  0.00     0.220 HD
ENDBRANCH   8  10
BRANCH   8  12
HETATM   12  O   UNK N   1      39.849  21.373   2.773  0.00  0.00    -0.327 OA
HETATM   13  H   UNK N   1      39.018  20.880   2.854  0.00  0.00     0.220 HD
ENDBRANCH   8  12
ENDBRANCH   1   8
BRANCH   1  14
HETATM   14  N   UNK N   1      41.302  23.915   1.751  0.00  0.00    -0.394 N 
HETATM   15  H   UNK N   1      40.800  24.216   2.587  0.00  0.00     0.155 HD
BRANCH  14  16
HETATM   16  C   UNK N   1      41.175  24.491   0.414  0.00  0.00     0.078 C 
HETATM   17  C   UNK N   1      40.154  25.633   0.444  0.00  0.00     0.024 C 
HETATM   18  C   UNK N   1      39.737  26.090  -0.948  0.00  0.00     0.002 C 
HETATM   19  C   UNK N   1      38.485  25.332  -1.379  0.00  0.00     0.000 C 
HETATM   20  C   UNK N   1      38.784  23.910  -1.850  0.00  0.00     0.000 C 
HETATM   21  C   UNK N   1      39.409  23.052  -0.758  0.00  0.00     0.002 C 
HETATM   22  C   UNK N   1      40.883  23.407  -0.640  0.00  0.00     0.024 C 
ENDBRANCH  14  16
ENDBRANCH   1  14
TORSDOF 8
ENDMDL
MODEL 5
REMARK VINA RESULT:      -5.3      3.189      5.541
REMARK  8 active torsions:
REMARK  status: ('A' for Active; 'I' for Inactive)
REMARK    1  A    between atoms: P_2  and  C_1 
REMARK    2  A    between atoms: P_3  and  C_1 
REMARK    3  A    between atoms: N_4  and  C_1 
REMARK    4  A    between atoms: O_7  and  P_2 
REMARK    5  A    between atoms: O_10  and  P_2 
REMARK    6  A    between atoms: O_8  and  P_3 
REMARK    7  A    between atoms: O_9  and  P_3 
REMARK    8  A    between atoms: C_11  and  N_4 
ROOT
HETATM    1  C   UNK N   1      34.632  14.604  10.167  0.00  0.00     0.302 C 
ENDROOT
BRANCH   1   2
HETATM    2  P   UNK N   1      35.838  15.841  10.858  0.00  0.00     0.270 P 
HETATM    3  O   UNK N   1      35.778  15.854  12.408  0.00  0.00    -0.652 OA
BRANCH   2   4
HETATM    4  O   UNK N   1      35.527  17.489  10.411  0.00  0.00    -0.327 OA
HETATM    5  H   UNK N   1      35.376  18.355  10.820  0.00  0.00     0.220 HD
ENDBRANCH   2   4
BRANCH   2   6
HETATM    6  O   UNK N   1      37.507  15.525  10.501  0.00  0.00    -0.327 OA
HETATM    7  H   UNK N   1      38.204  14.954  10.139  0.00  0.00     0.220 HD
ENDBRANCH   2   6
ENDBRANCH   1   2
BRANCH   1   8
HETATM    8  P   UNK N   1      34.818  12.981  11.056  0.00  0.00     0.270 P 
HETATM    9  O   UNK N   1      36.290  12.496  10.983  0.00  0.00    -0.652 OA
BRANCH   8  10
HETATM   10  O   UNK N   1      33.908  11.666  10.384  0.00  0.00    -0.327 OA
HETATM   11  H   UNK N   1      32.947  11.628  10.505  0.00  0.00     0.220 HD
ENDBRANCH   8  10
BRANCH   8  12
HETATM   12  O   UNK N   1      34.471  13.021  12.756  0.00  0.00    -0.327 OA
HETATM   13  H   UNK N   1      34.234  12.481  13.526  0.00  0.00     0.220 HD
ENDBRANCH   8  12
ENDBRANCH   1   8
BRANCH   1  14
HETATM   14  N   UNK N   1      33.266  15.089  10.312  0.00  0.00    -0.394 N 
HETATM   15  H   UNK N   1      32.815  15.372  11.183  0.00  0.00     0.155 HD
BRANCH  14  16
HETATM   16  C   UNK N   1      32.659  15.100   8.983  0.00  0.00     0.078 C 
HETATM   17  C   UNK N   1      33.705  14.697   7.939  0.00  0.00     0.024 C 
HETATM   18  C   UNK N   1      33.251  14.969   6.511  0.00  0.00     0.002 C 
HETATM   19  C   UNK N   1      33.732  16.351   6.077  0.00  0.00     0.000 C 
HETATM   20  C   UNK N   1      32.879  17.483   6.647  0.00  0.00     0.000 C 
HETATM   21  C   UNK N   1      32.897  17.518   8.169  0.00  0.00     0.002 C 
HETATM   22  C   UNK N   1      31.959  16.442   8.695  0.00  0.00     0.024 C 
ENDBRANCH  14  16
ENDBRANCH   1  14
TORSDOF 8
ENDMDL
MODEL 6
REMARK VINA RESULT:      -5.2      3.753      5.457
REMARK  8 active torsions:
REMARK  status: ('A' for Active; 'I' for Inactive)
REMARK    1  A    between atoms: P_2  and  C_1 
REMARK    2  A    between atoms: P_3  and  C_1 
REMARK    3  A    between atoms: N_4  and  C_1 
REMARK    4  A    between atoms: O_7  and  P_2 
REMARK    5  A    between atoms: O_10  and  P_2 
REMARK    6  A    between atoms: O_8  and  P_3 
REMARK    7  A    between atoms: O_9  and  P_3 
REMARK    8  A    between atoms: C_11  and  N_4 
ROOT
HETATM    1  C   UNK N   1      33.265  15.616   7.940  0.00  0.00     0.302 C 
ENDROOT
BRANCH   1   2
HETATM    2  P   UNK N   1      33.374  14.396   9.341  0.00  0.00     0.270 P 
HETATM    3  O   UNK N   1      34.822  13.860   9.486  0.00  0.00    -0.652 OA
BRANCH   2   4
HETATM    4  O   UNK N   1      32.413  12.965   9.135  0.00  0.00    -0.327 OA
HETATM    5  H   UNK N   1      31.611  12.551   9.489  0.00  0.00     0.220 HD
ENDBRANCH   2   4
BRANCH   2   6
HETATM    6  O   UNK N   1      32.999  15.037  10.910  0.00  0.00    -0.327 OA
HETATM    7  H   UNK N   1      33.251  15.528  11.708  0.00  0.00     0.220 HD
ENDBRANCH   2   6
ENDBRANCH   1   2
BRANCH   1   8
HETATM    8  P   UNK N   1      33.747  17.308   8.542  0.00  0.00     0.270 P 
HETATM    9  O   UNK N   1      32.483  18.185   8.747  0.00  0.00    -0.652 OA
BRANCH   8  10
HETATM   10  O   UNK N   1      34.722  18.230   7.442  0.00  0.00    -0.327 OA
HETATM   11  H   UNK N   1      34.994  17.845   6.594  0.00  0.00     0.220 HD
ENDBRANCH   8  10
BRANCH   8  12
HETATM   12  O   UNK N   1      34.544  17.349  10.083  0.00  0.00    -0.327 OA
HETATM   13  H   UNK N   1      34.528  17.742  10.970  0.00  0.00     0.220 HD
ENDBRANCH   8  12
ENDBRANCH   1   8
BRANCH   1  14
HETATM   14  N   UNK N   1      34.141  15.216   6.847  0.00  0.00    -0.394 N 
HETATM   15  H   UNK N   1      35.158  15.140   6.885  0.00  0.00     0.155 HD
BRANCH  14  16
HETATM   16  C   UNK N   1      33.299  14.940   5.685  0.00  0.00     0.078 C 
HETATM   17  C   UNK N   1      34.182  14.747   4.448  0.00  0.00     0.024 C 
HETATM   18  C   UNK N   1      33.388  14.754   3.148  0.00  0.00     0.002 C 
HETATM   19  C   UNK N   1      33.353  16.170   2.580  0.00  0.00     0.000 C 
HETATM   20  C   UNK N   1      32.347  17.072   3.291  0.00  0.00     0.000 C 
HETATM   21  C   UNK N   1      32.663  17.248   4.770  0.00  0.00     0.002 C 
HETATM   22  C   UNK N   1      32.201  16.008   5.520  0.00  0.00     0.024 C 
ENDBRANCH  14  16
ENDBRANCH   1  14
TORSDOF 8
ENDMDL
MODEL 7
REMARK VINA RESULT:      -5.2      3.626      4.825
REMARK  8 active torsions:
REMARK  status: ('A' for Active; 'I' for Inactive)
REMARK    1  A    between atoms: P_2  and  C_1 
REMARK    2  A    between atoms: P_3  and  C_1 
REMARK    3  A    between atoms: N_4  and  C_1 
REMARK    4  A    between atoms: O_7  and  P_2 
REMARK    5  A    between atoms: O_10  and  P_2 
REMARK    6  A    between atoms: O_8  and  P_3 
REMARK    7  A    between atoms: O_9  and  P_3 
REMARK    8  A    between atoms: C_11  and  N_4 
ROOT
HETATM    1  C   UNK N   1      36.217  13.723  11.252  0.00  0.00     0.302 C 
ENDROOT
BRANCH   1   2
HETATM    2  P   UNK N   1      35.091  15.128  10.782  0.00  0.00     0.270 P 
HETATM    3  O   UNK N   1      35.522  16.435  11.497  0.00  0.00    -0.652 OA
BRANCH   2   4
HETATM    4  O   UNK N   1      33.432  14.918  11.251  0.00  0.00    -0.327 OA
HETATM    5  H   UNK N   1      32.597  15.411  11.271  0.00  0.00     0.220 HD
ENDBRANCH   2   4
BRANCH   2   6
HETATM    6  O   UNK N   1      35.092  15.544   9.097  0.00  0.00    -0.327 OA
HETATM    7  H   UNK N   1      34.798  16.105   8.362  0.00  0.00     0.220 HD
ENDBRANCH   2   6
ENDBRANCH   1   2
BRANCH   1   8
HETATM    8  P   UNK N   1      37.623  13.613  10.039  0.00  0.00     0.270 P 
HETATM    9  O   UNK N   1      37.074  13.503   8.591  0.00  0.00    -0.652 OA
BRANCH   8  10
HETATM   10  O   UNK N   1      38.635  12.215  10.211  0.00  0.00    -0.327 OA
HETATM   11  H   UNK N   1      39.280  12.168  10.934  0.00  0.00     0.220 HD
ENDBRANCH   8  10
BRANCH   8  12
HETATM   12  O   UNK N   1      38.671  14.995   9.990  0.00  0.00    -0.327 OA
HETATM   13  H   UNK N   1      39.545  15.313   9.714  0.00  0.00     0.220 HD
ENDBRANCH   8  12
ENDBRANCH   1   8
BRANCH   1  14
HETATM   14  N   UNK N   1      36.743  13.919  12.596  0.00  0.00    -0.394 N 
HETATM   15  H   UNK N   1      37.125  14.787  12.974  0.00  0.00     0.155 HD
BRANCH  14  16
HETATM   16  C   UNK N   1      36.623  12.648  13.306  0.00  0.00     0.078 C 
HETATM   17  C   UNK N   1      35.348  11.928  12.855  0.00  0.00     0.024 C 
HETATM   18  C   UNK N   1      34.987  10.750  13.750  0.00  0.00     0.002 C 
HETATM   19  C   UNK N   1      34.025  11.214  14.840  0.00  0.00     0.000 C 
HETATM   20  C   UNK N   1      34.727  11.960  15.973  0.00  0.00     0.000 C 
HETATM   21  C   UNK N   1      35.424  13.227  15.495  0.00  0.00     0.002 C 
HETATM   22  C   UNK N   1      36.737  12.842  14.830  0.00  0.00     0.024 C 
ENDBRANCH  14  16
ENDBRANCH   1  14
TORSDOF 8
ENDMDL
MODEL 8
REMARK VINA RESULT:      -5.2      6.439      8.608
REMARK  8 active torsions:
REMARK  status: ('A' for Active; 'I' for Inactive)
REMARK    1  A    between atoms: P_2  and  C_1 
REMARK    2  A    between atoms: P_3  and  C_1 
REMARK    3  A    between atoms: N_4  and  C_1 
REMARK    4  A    between atoms: O_7  and  P_2 
REMARK    5  A    between atoms: O_10  and  P_2 
REMARK    6  A    between atoms: O_8  and  P_3 
REMARK    7  A    between atoms: O_9  and  P_3 
REMARK    8  A    between atoms: C_11  and  N_4 
ROOT
HETATM    1  C   UNK N   1      29.876  17.858   7.685  0.00  0.00     0.302 C 
ENDROOT
BRANCH   1   2
HETATM    2  P   UNK N   1      29.199  17.838   9.419  0.00  0.00     0.270 P 
HETATM    3  O   UNK N   1      29.696  19.074  10.213  0.00  0.00    -0.652 OA
BRANCH   2   4
HETATM    4  O   UNK N   1      29.709  16.486  10.382  0.00  0.00    -0.327 OA
HETATM    5  H   UNK N   1      29.395  15.937  11.118  0.00  0.00     0.220 HD
ENDBRANCH   2   4
BRANCH   2   6
HETATM    6  O   UNK N   1      27.470  17.922   9.538  0.00  0.00    -0.327 OA
HETATM    7  H   UNK N   1      26.586  17.772   9.168  0.00  0.00     0.220 HD
ENDBRANCH   2   6
ENDBRANCH   1   2
BRANCH   1   8
HETATM    8  P   UNK N   1      31.419  16.822   7.602  0.00  0.00     0.270 P 
HETATM    9  O   UNK N   1      32.461  17.489   6.665  0.00  0.00    -0.652 OA
BRANCH   8  10
HETATM   10  O   UNK N   1      31.205  15.237   6.931  0.00  0.00    -0.327 OA
HETATM   11  H   UNK N   1      30.996  14.488   7.510  0.00  0.00     0.220 HD
ENDBRANCH   8  10
BRANCH   8  12
HETATM   12  O   UNK N   1      32.265  16.627   9.104  0.00  0.00    -0.327 OA
HETATM   13  H   UNK N   1      33.137  16.491   9.507  0.00  0.00     0.220 HD
ENDBRANCH   8  12
ENDBRANCH   1   8
BRANCH   1  14
HETATM   14  N   UNK N   1      28.888  17.342   6.747  0.00  0.00    -0.394 N 
HETATM   15  H   UNK N   1      28.395  16.451   6.818  0.00  0.00     0.155 HD
BRANCH  14  16
HETATM   16  C   UNK N   1      28.728  18.334   5.686  0.00  0.00     0.078 C 
HETATM   17  C   UNK N   1      27.871  19.497   6.198  0.00  0.00     0.024 C 
HETATM   18  C   UNK N   1      27.405  20.423   5.082  0.00  0.00     0.002 C 
HETATM   19  C   UNK N   1      26.034  19.974   4.586  0.00  0.00     0.000 C 
HETATM   20  C   UNK N   1      26.104  18.762   3.658  0.00  0.00     0.000 C 
HETATM   21  C   UNK N   1      26.699  17.538   4.340  0.00  0.00     0.002 C 
HETATM   22  C   UNK N   1      28.212  17.690   4.386  0.00  0.00     0.024 C 
ENDBRANCH  14  16
ENDBRANCH   1  14
TORSDOF 8
ENDMDL
MODEL 9
REMARK VINA RESULT:      -5.1     19.010     20.555
REMARK  8 active torsions:
REMARK  status: ('A' for Active; 'I' for Inactive)
REMARK    1  A    between atoms: P_2  and  C_1 
REMARK    2  A    between atoms: P_3  and  C_1 
REMARK    3  A    between atoms: N_4  and  C_1 
REMARK    4  A    between atoms: O_7  and  P_2 
REMARK    5  A    between atoms: O_10  and  P_2 
REMARK    6  A    between atoms: O_8  and  P_3 
REMARK    7  A    between atoms: O_9  and  P_3 
REMARK    8  A    between atoms: C_11  and  N_4 
ROOT
HETATM    1  C   UNK N   1      26.559  22.736  -6.938  0.00  0.00     0.302 C 
ENDROOT
BRANCH   1   2
HETATM    2  P   UNK N   1      25.076  22.066  -7.841  0.00  0.00     0.270 P 
HETATM    3  O   UNK N   1      24.411  23.175  -8.698  0.00  0.00    -0.652 OA
BRANCH   2   4
HETATM    4  O   UNK N   1      23.794  21.501  -6.815  0.00  0.00    -0.327 OA
HETATM    5  H   UNK N   1      23.468  20.679  -6.417  0.00  0.00     0.220 HD
ENDBRANCH   2   4
BRANCH   2   6
HETATM    6  O   UNK N   1      25.413  20.796  -8.976  0.00  0.00    -0.327 OA
HETATM    7  H   UNK N   1      25.986  20.088  -9.311  0.00  0.00     0.220 HD
ENDBRANCH   2   6
ENDBRANCH   1   2
BRANCH   1   8
HETATM    8  P   UNK N   1      28.103  21.915  -7.572  0.00  0.00     0.270 P 
HETATM    9  O   UNK N   1      29.188  21.884  -6.462  0.00  0.00    -0.652 OA
BRANCH   8  10
HETATM   10  O   UNK N   1      28.878  22.729  -8.893  0.00  0.00    -0.327 OA
HETATM   11  H   UNK N   1      29.163  23.651  -8.796  0.00  0.00     0.220 HD
ENDBRANCH   8  10
BRANCH   8  12
HETATM   12  O   UNK N   1      27.924  20.252  -8.035  0.00  0.00    -0.327 OA
HETATM   13  H   UNK N   1      27.745  19.357  -7.708  0.00  0.00     0.220 HD
ENDBRANCH   8  12
ENDBRANCH   1   8
BRANCH   1  14
HETATM   14  N   UNK N   1      26.658  24.177  -7.122  0.00  0.00    -0.394 N 
HETATM   15  H   UNK N   1      27.297  24.663  -7.753  0.00  0.00     0.155 HD
BRANCH  14  16
HETATM   16  C   UNK N   1      25.676  24.803  -6.239  0.00  0.00     0.078 C 
HETATM   17  C   UNK N   1      25.532  26.284  -6.602  0.00  0.00     0.024 C 
HETATM   18  C   UNK N   1      24.763  27.078  -5.554  0.00  0.00     0.002 C 
HETATM   19  C   UNK N   1      25.743  27.687  -4.555  0.00  0.00     0.000 C 
HETATM   20  C   UNK N   1      26.253  26.676  -3.530  0.00  0.00     0.000 C 
HETATM   21  C   UNK N   1      27.009  25.522  -4.173  0.00  0.00     0.002 C 
HETATM   22  C   UNK N   1      26.004  24.542  -4.757  0.00  0.00     0.024 C 
ENDBRANCH  14  16
ENDBRANCH   1  14
TORSDOF 8
ENDMDL
