MODEL 1
REMARK VINA RESULT:      -3.7      0.000      0.000
REMARK  1 active torsions:
REMARK  status: ('A' for Active; 'I' for Inactive)
REMARK    1  A    between atoms: N_6  and  C_5 
ROOT
HETATM    1  C   UNK N   1      21.965  12.997  10.149  0.00  0.00     0.046 A 
HETATM    2  C   UNK N   1      23.047  11.781  11.935  0.00  0.00     0.046 A 
HETATM    3  C   UNK N   1      23.223  13.334   9.644  0.00  0.00     0.089 A 
HETATM    4  C   UNK N   1      24.286  12.139  11.399  0.00  0.00     0.089 A 
HETATM    5  C   UNK N   1      21.882  12.215  11.303  0.00  0.00     0.028 A 
HETATM    6  N   UNK N   1      24.349  12.901  10.274  0.00  0.00    -0.375 N 
HETATM    7  H   UNK N   1      25.229  13.146   9.908  0.00  0.00     0.164 HD
ENDROOT
BRANCH   5   8
HETATM    8  N   UNK N   1      20.739  11.898  11.778  0.00  0.00    -0.399 N 
HETATM    9  H   UNK N   1      20.032  12.579  11.855  0.00  0.00     0.156 HD
ATOM     10  HN  UNK N   1      20.560  10.940  12.078  1.00  0.00     0.156 HD
ENDBRANCH   5   8
TORSDOF 1
ENDMDL
MODEL 2
REMARK VINA RESULT:      -3.7      0.057      1.811
REMARK  1 active torsions:
REMARK  status: ('A' for Active; 'I' for Inactive)
REMARK    1  A    between atoms: N_6  and  C_5 
ROOT
HETATM    1  C   UNK N   1      23.034  11.801  11.940  0.00  0.00     0.046 A 
HETATM    2  C   UNK N   1      22.019  13.017  10.116  0.00  0.00     0.046 A 
HETATM    3  C   UNK N   1      24.293  12.140  11.438  0.00  0.00     0.089 A 
HETATM    4  C   UNK N   1      23.294  13.336   9.645  0.00  0.00     0.089 A 
HETATM    5  C   UNK N   1      21.893  12.244  11.271  0.00  0.00     0.028 A 
HETATM    6  N   UNK N   1      24.397  12.895  10.310  0.00  0.00    -0.375 N 
HETATM    7  H   UNK N   1      25.289  13.127   9.967  0.00  0.00     0.164 HD
ENDROOT
BRANCH   5   8
HETATM    8  N   UNK N   1      20.733  11.943  11.717  0.00  0.00    -0.399 N 
HETATM    9  H   UNK N   1      20.486  10.999  11.845  0.00  0.00     0.156 HD
ATOM     10  HN  UNK N   1      20.066  12.680  11.940  1.00  0.00     0.156 HD
ENDBRANCH   5   8
TORSDOF 1
ENDMDL
MODEL 3
REMARK VINA RESULT:      -3.4     14.057     14.591
REMARK  1 active torsions:
REMARK  status: ('A' for Active; 'I' for Inactive)
REMARK    1  A    between atoms: N_6  and  C_5 
ROOT
HETATM    1  C   UNK N   1      35.165  13.744  18.109  0.00  0.00     0.046 A 
HETATM    2  C   UNK N   1      35.394  11.473  18.901  0.00  0.00     0.046 A 
HETATM    3  C   UNK N   1      35.398  13.292  16.808  0.00  0.00     0.089 A 
HETATM    4  C   UNK N   1      35.623  11.059  17.587  0.00  0.00     0.089 A 
HETATM    5  C   UNK N   1      35.164  12.825  19.159  0.00  0.00     0.028 A 
HETATM    6  N   UNK N   1      35.620  11.969  16.575  0.00  0.00    -0.375 N 
HETATM    7  H   UNK N   1      35.782  11.663  15.654  0.00  0.00     0.164 HD
ENDROOT
BRANCH   5   8
HETATM    8  N   UNK N   1      34.953  13.222  20.355  0.00  0.00    -0.399 N 
HETATM    9  H   UNK N   1      34.505  12.627  20.999  0.00  0.00     0.156 HD
ATOM     10  HN  UNK N   1      35.249  14.155  20.642  1.00  0.00     0.156 HD
ENDBRANCH   5   8
TORSDOF 1
ENDMDL
MODEL 4
REMARK VINA RESULT:      -3.3      1.264      2.925
REMARK  1 active torsions:
REMARK  status: ('A' for Active; 'I' for Inactive)
REMARK    1  A    between atoms: N_6  and  C_5 
ROOT
HETATM    1  C   UNK N   1      23.568  12.510  10.377  0.00  0.00     0.046 A 
HETATM    2  C   UNK N   1      21.212  12.947  10.069  0.00  0.00     0.046 A 
HETATM    3  C   UNK N   1      23.268  11.846  11.569  0.00  0.00     0.089 A 
HETATM    4  C   UNK N   1      20.952  12.276  11.266  0.00  0.00     0.089 A 
HETATM    5  C   UNK N   1      22.530  13.063   9.626  0.00  0.00     0.028 A 
HETATM    6  N   UNK N   1      21.976  11.743  11.986  0.00  0.00    -0.375 N 
HETATM    7  H   UNK N   1      21.778  11.272  12.827  0.00  0.00     0.164 HD
ENDROOT
BRANCH   5   8
HETATM    8  N   UNK N   1      22.787  13.674   8.534  0.00  0.00    -0.399 N 
HETATM    9  H   UNK N   1      22.460  14.592   8.395  0.00  0.00     0.156 HD
ATOM     10  HN  UNK N   1      23.331  13.210   7.806  1.00  0.00     0.156 HD
ENDBRANCH   5   8
TORSDOF 1
ENDMDL
MODEL 5
REMARK VINA RESULT:      -3.3      1.256      2.081
REMARK  1 active torsions:
REMARK  status: ('A' for Active; 'I' for Inactive)
REMARK    1  A    between atoms: N_6  and  C_5 
ROOT
HETATM    1  C   UNK N   1      23.831  12.255  10.828  0.00  0.00     0.046 A 
HETATM    2  C   UNK N   1      21.429  12.517  10.808  0.00  0.00     0.046 A 
HETATM    3  C   UNK N   1      23.895  12.949   9.617  0.00  0.00     0.089 A 
HETATM    4  C   UNK N   1      21.534  13.206   9.599  0.00  0.00     0.089 A 
HETATM    5  C   UNK N   1      22.587  12.040  11.423  0.00  0.00     0.028 A 
HETATM    6  N   UNK N   1      22.755  13.407   9.032  0.00  0.00    -0.375 N 
HETATM    7  H   UNK N   1      22.815  13.894   8.179  0.00  0.00     0.164 HD
ENDROOT
BRANCH   5   8
HETATM    8  N   UNK N   1      22.510  11.407  12.531  0.00  0.00    -0.399 N 
HETATM    9  H   UNK N   1      23.173  10.713  12.747  0.00  0.00     0.156 HD
ATOM     10  HN  UNK N   1      21.762  11.622  13.189  1.00  0.00     0.156 HD
ENDBRANCH   5   8
TORSDOF 1
ENDMDL
MODEL 6
REMARK VINA RESULT:      -3.2     20.522     21.168
REMARK  1 active torsions:
REMARK  status: ('A' for Active; 'I' for Inactive)
REMARK    1  A    between atoms: N_6  and  C_5 
ROOT
HETATM    1  C   UNK N   1      25.029  26.728  -5.728  0.00  0.00     0.046 A 
HETATM    2  C   UNK N   1      26.280  25.191  -4.345  0.00  0.00     0.046 A 
HETATM    3  C   UNK N   1      25.239  27.725  -4.773  0.00  0.00     0.089 A 
HETATM    4  C   UNK N   1      26.468  26.214  -3.414  0.00  0.00     0.089 A 
HETATM    5  C   UNK N   1      25.556  25.454  -5.508  0.00  0.00     0.028 A 
HETATM    6  N   UNK N   1      25.948  27.451  -3.644  0.00  0.00    -0.375 N 
HETATM    7  H   UNK N   1      26.089  28.162  -2.979  0.00  0.00     0.164 HD
ENDROOT
BRANCH   5   8
HETATM    8  N   UNK N   1      25.373  24.530  -6.372  0.00  0.00    -0.399 N 
HETATM    9  H   UNK N   1      24.890  23.710  -6.120  0.00  0.00     0.156 HD
ATOM     10  HN  UNK N   1      25.728  24.642  -7.321  1.00  0.00     0.156 HD
ENDBRANCH   5   8
TORSDOF 1
ENDMDL
MODEL 7
REMARK VINA RESULT:      -3.2      8.542      9.205
REMARK  1 active torsions:
REMARK  status: ('A' for Active; 'I' for Inactive)
REMARK    1  A    between atoms: N_6  and  C_5 
ROOT
HETATM    1  C   UNK N   1      28.758  17.502   7.370  0.00  0.00     0.046 A 
HETATM    2  C   UNK N   1      29.910  18.488   9.251  0.00  0.00     0.046 A 
HETATM    3  C   UNK N   1      29.990  17.085   6.860  0.00  0.00     0.089 A 
HETATM    4  C   UNK N   1      31.122  18.054   8.710  0.00  0.00     0.089 A 
HETATM    5  C   UNK N   1      28.722  18.208   8.573  0.00  0.00     0.028 A 
HETATM    6  N   UNK N   1      31.138  17.367   7.535  0.00  0.00    -0.375 N 
HETATM    7  H   UNK N   1      31.999  17.068   7.165  0.00  0.00     0.164 HD
ENDROOT
BRANCH   5   8
HETATM    8  N   UNK N   1      27.604  18.597   9.053  0.00  0.00    -0.399 N 
HETATM    9  H   UNK N   1      26.854  17.963   9.126  0.00  0.00     0.156 HD
ATOM     10  HN  UNK N   1      27.489  19.562   9.360  1.00  0.00     0.156 HD
ENDBRANCH   5   8
TORSDOF 1
ENDMDL
MODEL 8
REMARK VINA RESULT:      -3.2      9.160     10.063
REMARK  1 active torsions:
REMARK  status: ('A' for Active; 'I' for Inactive)
REMARK    1  A    between atoms: N_6  and  C_5 
ROOT
HETATM    1  C   UNK N   1      28.479  18.210   6.410  0.00  0.00     0.046 A 
HETATM    2  C   UNK N   1      27.461  20.393   6.596  0.00  0.00     0.046 A 
HETATM    3  C   UNK N   1      28.672  18.439   5.046  0.00  0.00     0.089 A 
HETATM    4  C   UNK N   1      27.671  20.585   5.229  0.00  0.00     0.089 A 
HETATM    5  C   UNK N   1      27.870  19.197   7.187  0.00  0.00     0.028 A 
HETATM    6  N   UNK N   1      28.267  19.612   4.487  0.00  0.00    -0.375 N 
HETATM    7  H   UNK N   1      28.409  19.761   3.525  0.00  0.00     0.164 HD
ENDROOT
BRANCH   5   8
HETATM    8  N   UNK N   1      27.686  19.004   8.436  0.00  0.00    -0.399 N 
HETATM    9  H   UNK N   1      28.416  19.177   9.073  0.00  0.00     0.156 HD
ATOM     10  HN  UNK N   1      26.783  18.670   8.773  1.00  0.00     0.156 HD
ENDBRANCH   5   8
TORSDOF 1
ENDMDL
MODEL 9
REMARK VINA RESULT:      -3.2     14.020     14.666
REMARK  1 active torsions:
REMARK  status: ('A' for Active; 'I' for Inactive)
REMARK    1  A    between atoms: N_6  and  C_5 
ROOT
HETATM    1  C   UNK N   1      35.293  12.670  19.431  0.00  0.00     0.046 A 
HETATM    2  C   UNK N   1      35.204  13.119  17.059  0.00  0.00     0.046 A 
HETATM    3  C   UNK N   1      35.288  11.301  19.151  0.00  0.00     0.089 A 
HETATM    4  C   UNK N   1      35.201  11.744  16.819  0.00  0.00     0.089 A 
HETATM    5  C   UNK N   1      35.251  13.581  18.375  0.00  0.00     0.028 A 
HETATM    6  N   UNK N   1      35.243  10.869  17.861  0.00  0.00    -0.375 N 
HETATM    7  H   UNK N   1      35.240   9.902  17.677  0.00  0.00     0.164 HD
ENDROOT
BRANCH   5   8
HETATM    8  N   UNK N   1      35.255  14.837  18.613  0.00  0.00    -0.399 N 
HETATM    9  H   UNK N   1      34.405  15.311  18.765  0.00  0.00     0.156 HD
ATOM     10  HN  UNK N   1      36.137  15.346  18.647  1.00  0.00     0.156 HD
ENDBRANCH   5   8
TORSDOF 1
ENDMDL
