MODEL 1
REMARK VINA RESULT:      -7.2      0.000      0.000
REMARK  11 active torsions:
REMARK  status: ('A' for Active; 'I' for Inactive)
REMARK    1  A    between atoms: C_2  and  C_3 
REMARK    2  A    between atoms: C_3  and  C_4 
REMARK    3  A    between atoms: C_4  and  N_5 
REMARK    4  A    between atoms: N_5  and  C_6 
REMARK    5  A    between atoms: N_5  and  C_10 
REMARK    6  A    between atoms: C_6  and  C_7 
REMARK    7  A    between atoms: C_7  and  C_8 
REMARK    8  A    between atoms: C_10  and  C_11 
REMARK    9  A    between atoms: C_11  and  C_12 
REMARK   10  A    between atoms: C_11  and  O_35 
REMARK   11  A    between atoms: C_22  and  C_23 
ROOT
HETATM    1  C   UNK N   1      26.747  23.240  -7.518  0.00  0.00    -0.014 A 
HETATM    2  C   UNK N   1      27.173  24.007  -6.412  0.00  0.00    -0.005 A 
HETATM    3  C   UNK N   1      26.700  25.284  -5.854  0.00  0.00    -0.013 A 
HETATM    4  C   UNK N   1      27.491  25.617  -4.762  0.00  0.00    -0.012 A 
HETATM    5  C   UNK N   1      27.281  26.791  -4.040  0.00  0.00     0.037 A 
HETATM    6  C   UNK N   1      26.230  27.634  -4.437  0.00  0.00     0.035 A 
HETATM    7  C   UNK N   1      25.420  27.295  -5.541  0.00  0.00     0.024 A 
HETATM    8  C   UNK N   1      25.653  26.111  -6.259  0.00  0.00     0.015 A 
HETATM    9 Cl   UNK N   1      25.930  29.123  -3.565  0.00  0.00    -0.084 Cl
HETATM   10  C   UNK N   1      28.520  24.589  -4.600  0.00  0.00    -0.013 A 
HETATM   11  C   UNK N   1      29.542  24.600  -3.720  0.00  0.00     0.024 C 
HETATM   12  C   UNK N   1      28.245  23.584  -5.644  0.00  0.00    -0.012 A 
HETATM   13  C   UNK N   1      28.889  22.374  -5.895  0.00  0.00     0.037 A 
HETATM   14  C   UNK N   1      28.460  21.588  -6.964  0.00  0.00     0.035 A 
HETATM   15  C   UNK N   1      27.408  22.027  -7.782  0.00  0.00     0.034 A 
HETATM   16 Cl   UNK N   1      29.249  20.061  -7.287  0.00  0.00    -0.084 Cl
ENDROOT
BRANCH   1  17
HETATM   17  C   UNK N   1      25.663  23.651  -8.455  0.00  0.00     0.180 C 
BRANCH  17  18
HETATM   18  C   UNK N   1      26.133  23.850  -9.885  0.00  0.00     0.308 C 
BRANCH  18  19
HETATM   19  N   UNK N   1      26.462  25.255 -10.092  0.00  0.00     0.091 N 
BRANCH  19  20
HETATM   20  C   UNK N   1      27.896  25.339 -10.327  0.00  0.00     0.272 C 
BRANCH  20  21
HETATM   21  C   UNK N   1      28.578  25.990  -9.133  0.00  0.00     0.030 C 
BRANCH  21  22
HETATM   22  C   UNK N   1      27.919  27.318  -8.800  0.00  0.00    -0.003 C 
HETATM   23  C   UNK N   1      28.603  27.972  -7.614  0.00  0.00     0.005 C 
ENDBRANCH  21  22
ENDBRANCH  20  21
ENDBRANCH  19  20
BRANCH  19  24
HETATM   24  C   UNK N   1      25.805  25.692 -11.314  0.00  0.00     0.272 C 
BRANCH  24  25
HETATM   25  C   UNK N   1      24.405  26.202 -11.014  0.00  0.00     0.030 C 
BRANCH  25  26
HETATM   26  C   UNK N   1      23.926  27.119 -12.121  0.00  0.00    -0.003 C 
HETATM   27  C   UNK N   1      22.784  27.975 -11.616  0.00  0.00     0.005 C 
ENDBRANCH  25  26
ENDBRANCH  24  25
ENDBRANCH  19  24
ENDBRANCH  18  19
ENDBRANCH  17  18
BRANCH  17  28
HETATM   28  O   UNK N   1      24.583  22.768  -8.394  0.00  0.00    -0.389 OA
HETATM   29  H   UNK N   1      23.647  22.613  -8.189  0.00  0.00     0.210 HD
ENDBRANCH  17  28
ENDBRANCH   1  17
BRANCH  11  30
HETATM   30  C   UNK N   1      30.633  23.619  -3.835  0.00  0.00    -0.035 A 
HETATM   31  C   UNK N   1      30.634  22.503  -2.983  0.00  0.00     0.013 A 
HETATM   32  C   UNK N   1      31.713  21.623  -2.973  0.00  0.00     0.024 A 
HETATM   33  C   UNK N   1      32.803  21.853  -3.812  0.00  0.00     0.034 A 
HETATM   34  C   UNK N   1      32.799  22.950  -4.683  0.00  0.00     0.024 A 
HETATM   35 Cl   UNK N   1      34.180  20.775  -3.753  0.00  0.00    -0.084 Cl
HETATM   36  C   UNK N   1      31.713  23.835  -4.696  0.00  0.00     0.013 A 
ENDBRANCH  11  30
TORSDOF 11
ENDMDL
MODEL 2
REMARK VINA RESULT:      -7.0      1.396      1.963
REMARK  11 active torsions:
REMARK  status: ('A' for Active; 'I' for Inactive)
REMARK    1  A    between atoms: C_2  and  C_3 
REMARK    2  A    between atoms: C_3  and  C_4 
REMARK    3  A    between atoms: C_4  and  N_5 
REMARK    4  A    between atoms: N_5  and  C_6 
REMARK    5  A    between atoms: N_5  and  C_10 
REMARK    6  A    between atoms: C_6  and  C_7 
REMARK    7  A    between atoms: C_7  and  C_8 
REMARK    8  A    between atoms: C_10  and  C_11 
REMARK    9  A    between atoms: C_11  and  C_12 
REMARK   10  A    between atoms: C_11  and  O_35 
REMARK   11  A    between atoms: C_22  and  C_23 
ROOT
HETATM    1  C   UNK N   1      27.050  22.288  -7.578  0.00  0.00    -0.014 A 
HETATM    2  C   UNK N   1      27.396  23.102  -6.477  0.00  0.00    -0.005 A 
HETATM    3  C   UNK N   1      26.774  24.307  -5.905  0.00  0.00    -0.013 A 
HETATM    4  C   UNK N   1      27.538  24.737  -4.827  0.00  0.00    -0.012 A 
HETATM    5  C   UNK N   1      27.193  25.874  -4.097  0.00  0.00     0.037 A 
HETATM    6  C   UNK N   1      26.035  26.575  -4.470  0.00  0.00     0.035 A 
HETATM    7  C   UNK N   1      25.253  26.136  -5.559  0.00  0.00     0.024 A 
HETATM    8  C   UNK N   1      25.622  24.993  -6.286  0.00  0.00     0.015 A 
HETATM    9 Cl   UNK N   1      25.563  28.012  -3.586  0.00  0.00    -0.084 Cl
HETATM   10  C   UNK N   1      28.693  23.850  -4.690  0.00  0.00    -0.013 A 
HETATM   11  C   UNK N   1      29.722  23.991  -3.830  0.00  0.00     0.024 C 
HETATM   12  C   UNK N   1      28.529  22.819  -5.732  0.00  0.00    -0.012 A 
HETATM   13  C   UNK N   1      29.318  21.702  -6.000  0.00  0.00     0.037 A 
HETATM   14  C   UNK N   1      28.972  20.869  -7.063  0.00  0.00     0.035 A 
HETATM   15  C   UNK N   1      27.856  21.170  -7.859  0.00  0.00     0.034 A 
HETATM   16 Cl   UNK N   1      29.944  19.456  -7.408  0.00  0.00    -0.084 Cl
ENDROOT
BRANCH   1  17
HETATM   17  C   UNK N   1      25.903  22.557  -8.491  0.00  0.00     0.180 C 
BRANCH  17  18
HETATM   18  C   UNK N   1      26.317  22.834  -9.925  0.00  0.00     0.308 C 
BRANCH  18  19
HETATM   19  N   UNK N   1      27.270  23.938  -9.946  0.00  0.00     0.091 N 
BRANCH  19  20
HETATM   20  C   UNK N   1      28.366  23.552 -10.824  0.00  0.00     0.272 C 
BRANCH  20  21
HETATM   21  C   UNK N   1      29.642  24.261 -10.398  0.00  0.00     0.030 C 
BRANCH  21  22
HETATM   22  C   UNK N   1      30.181  23.664  -9.109  0.00  0.00    -0.003 C 
HETATM   23  C   UNK N   1      30.450  24.752  -8.087  0.00  0.00     0.005 C 
ENDBRANCH  21  22
ENDBRANCH  20  21
ENDBRANCH  19  20
BRANCH  19  24
HETATM   24  C   UNK N   1      26.616  25.082 -10.561  0.00  0.00     0.272 C 
BRANCH  24  25
HETATM   25  C   UNK N   1      26.404  26.188  -9.539  0.00  0.00     0.030 C 
BRANCH  25  26
HETATM   26  C   UNK N   1      27.683  26.973  -9.335  0.00  0.00    -0.003 C 
HETATM   27  C   UNK N   1      27.839  27.321  -7.870  0.00  0.00     0.005 C 
ENDBRANCH  25  26
ENDBRANCH  24  25
ENDBRANCH  19  24
ENDBRANCH  18  19
ENDBRANCH  17  18
BRANCH  17  28
HETATM   28  O   UNK N   1      24.955  21.534  -8.425  0.00  0.00    -0.389 OA
HETATM   29  H   UNK N   1      24.195  21.079  -8.821  0.00  0.00     0.210 HD
ENDBRANCH  17  28
ENDBRANCH   1  17
BRANCH  11  30
HETATM   30  C   UNK N   1      30.928  23.159  -3.970  0.00  0.00    -0.035 A 
HETATM   31  C   UNK N   1      31.086  22.048  -3.127  0.00  0.00     0.013 A 
HETATM   32  C   UNK N   1      32.269  21.312  -3.141  0.00  0.00     0.024 A 
HETATM   33  C   UNK N   1      33.307  21.685  -3.996  0.00  0.00     0.034 A 
HETATM   34  C   UNK N   1      33.147  22.778  -4.858  0.00  0.00     0.024 A 
HETATM   35 Cl   UNK N   1      34.811  20.792  -3.967  0.00  0.00    -0.084 Cl
HETATM   36  C   UNK N   1      31.956  23.516  -4.847  0.00  0.00     0.013 A 
ENDBRANCH  11  30
TORSDOF 11
ENDMDL
MODEL 3
REMARK VINA RESULT:      -6.7     22.894     27.997
REMARK  11 active torsions:
REMARK  status: ('A' for Active; 'I' for Inactive)
REMARK    1  A    between atoms: C_2  and  C_3 
REMARK    2  A    between atoms: C_3  and  C_4 
REMARK    3  A    between atoms: C_4  and  N_5 
REMARK    4  A    between atoms: N_5  and  C_6 
REMARK    5  A    between atoms: N_5  and  C_10 
REMARK    6  A    between atoms: C_6  and  C_7 
REMARK    7  A    between atoms: C_7  and  C_8 
REMARK    8  A    between atoms: C_10  and  C_11 
REMARK    9  A    between atoms: C_11  and  C_12 
REMARK   10  A    between atoms: C_11  and  O_35 
REMARK   11  A    between atoms: C_22  and  C_23 
ROOT
HETATM    1  C   UNK N   1      36.304  12.848  16.074  0.00  0.00    -0.014 A 
HETATM    2  C   UNK N   1      36.475  11.459  16.256  0.00  0.00    -0.005 A 
HETATM    3  C   UNK N   1      37.091  10.421  15.413  0.00  0.00    -0.013 A 
HETATM    4  C   UNK N   1      36.971   9.194  16.054  0.00  0.00    -0.012 A 
HETATM    5  C   UNK N   1      37.455   8.020  15.477  0.00  0.00     0.037 A 
HETATM    6  C   UNK N   1      38.088   8.107  14.226  0.00  0.00     0.035 A 
HETATM    7  C   UNK N   1      38.218   9.353  13.577  0.00  0.00     0.024 A 
HETATM    8  C   UNK N   1      37.716  10.523  14.171  0.00  0.00     0.015 A 
HETATM    9 Cl   UNK N   1      38.708   6.660  13.460  0.00  0.00    -0.084 Cl
HETATM   10  C   UNK N   1      36.245   9.391  17.309  0.00  0.00    -0.013 A 
HETATM   11  C   UNK N   1      35.839   8.433  18.166  0.00  0.00     0.024 C 
HETATM   12  C   UNK N   1      35.994  10.841  17.398  0.00  0.00    -0.012 A 
HETATM   13  C   UNK N   1      35.390  11.571  18.421  0.00  0.00     0.037 A 
HETATM   14  C   UNK N   1      35.243  12.950  18.273  0.00  0.00     0.035 A 
HETATM   15  C   UNK N   1      35.680  13.582  17.099  0.00  0.00     0.034 A 
HETATM   16 Cl   UNK N   1      34.497  13.882  19.551  0.00  0.00    -0.084 Cl
ENDROOT
BRANCH   1  17
HETATM   17  C   UNK N   1      36.709  13.589  14.846  0.00  0.00     0.180 C 
BRANCH  17  18
HETATM   18  C   UNK N   1      35.588  13.753  13.834  0.00  0.00     0.308 C 
BRANCH  18  19
HETATM   19  N   UNK N   1      35.962  13.089  12.591  0.00  0.00     0.091 N 
BRANCH  19  20
HETATM   20  C   UNK N   1      34.787  12.381  12.103  0.00  0.00     0.272 C 
BRANCH  20  21
HETATM   21  C   UNK N   1      34.987  10.881  12.259  0.00  0.00     0.030 C 
BRANCH  21  22
HETATM   22  C   UNK N   1      33.776  10.246  12.923  0.00  0.00    -0.003 C 
HETATM   23  C   UNK N   1      33.654  10.703  14.364  0.00  0.00     0.005 C 
ENDBRANCH  21  22
ENDBRANCH  20  21
ENDBRANCH  19  20
BRANCH  19  24
HETATM   24  C   UNK N   1      36.274  14.118  11.612  0.00  0.00     0.272 C 
BRANCH  24  25
HETATM   25  C   UNK N   1      35.030  14.921  11.266  0.00  0.00     0.030 C 
BRANCH  25  26
HETATM   26  C   UNK N   1      35.384  16.376  11.040  0.00  0.00    -0.003 C 
HETATM   27  C   UNK N   1      34.813  16.840   9.717  0.00  0.00     0.005 C 
ENDBRANCH  25  26
ENDBRANCH  24  25
ENDBRANCH  19  24
ENDBRANCH  18  19
ENDBRANCH  17  18
BRANCH  17  28
HETATM   28  O   UNK N   1      37.287  14.819  15.166  0.00  0.00    -0.389 OA
HETATM   29  H   UNK N   1      37.773  15.609  14.880  0.00  0.00     0.210 HD
ENDBRANCH  17  28
ENDBRANCH   1  17
BRANCH  11  30
HETATM   30  C   UNK N   1      34.912   8.760  19.262  0.00  0.00    -0.035 A 
HETATM   31  C   UNK N   1      35.437   9.016  20.539  0.00  0.00     0.013 A 
HETATM   32  C   UNK N   1      34.587   9.203  21.627  0.00  0.00     0.024 A 
HETATM   33  C   UNK N   1      33.206   9.130  21.449  0.00  0.00     0.034 A 
HETATM   34  C   UNK N   1      32.675   8.900  20.173  0.00  0.00     0.024 A 
HETATM   35 Cl   UNK N   1      32.147   9.308  22.830  0.00  0.00    -0.084 Cl
HETATM   36  C   UNK N   1      33.528   8.715  19.077  0.00  0.00     0.013 A 
ENDBRANCH  11  30
TORSDOF 11
ENDMDL
MODEL 4
REMARK VINA RESULT:      -6.7     13.267     14.741
REMARK  11 active torsions:
REMARK  status: ('A' for Active; 'I' for Inactive)
REMARK    1  A    between atoms: C_2  and  C_3 
REMARK    2  A    between atoms: C_3  and  C_4 
REMARK    3  A    between atoms: C_4  and  N_5 
REMARK    4  A    between atoms: N_5  and  C_6 
REMARK    5  A    between atoms: N_5  and  C_10 
REMARK    6  A    between atoms: C_6  and  C_7 
REMARK    7  A    between atoms: C_7  and  C_8 
REMARK    8  A    between atoms: C_10  and  C_11 
REMARK    9  A    between atoms: C_11  and  C_12 
REMARK   10  A    between atoms: C_11  and  O_35 
REMARK   11  A    between atoms: C_22  and  C_23 
ROOT
HETATM    1  C   UNK N   1      24.979  18.393   4.234  0.00  0.00    -0.014 A 
HETATM    2  C   UNK N   1      25.724  17.282   3.782  0.00  0.00    -0.005 A 
HETATM    3  C   UNK N   1      25.337  16.060   3.060  0.00  0.00    -0.013 A 
HETATM    4  C   UNK N   1      26.465  15.269   2.880  0.00  0.00    -0.012 A 
HETATM    5  C   UNK N   1      26.394  14.035   2.235  0.00  0.00     0.037 A 
HETATM    6  C   UNK N   1      25.146  13.609   1.751  0.00  0.00     0.035 A 
HETATM    7  C   UNK N   1      24.001  14.414   1.925  0.00  0.00     0.024 A 
HETATM    8  C   UNK N   1      24.092  15.651   2.585  0.00  0.00     0.015 A 
HETATM    9 Cl   UNK N   1      25.007  12.065   0.939  0.00  0.00    -0.084 Cl
HETATM   10  C   UNK N   1      27.607  15.933   3.509  0.00  0.00    -0.013 A 
HETATM   11  C   UNK N   1      28.855  15.442   3.642  0.00  0.00     0.024 C 
HETATM   12  C   UNK N   1      27.086  17.213   4.026  0.00  0.00    -0.012 A 
HETATM   13  C   UNK N   1      27.766  18.251   4.661  0.00  0.00     0.037 A 
HETATM   14  C   UNK N   1      27.051  19.370   5.084  0.00  0.00     0.035 A 
HETATM   15  C   UNK N   1      25.663  19.432   4.889  0.00  0.00     0.034 A 
HETATM   16 Cl   UNK N   1      27.890  20.686   5.873  0.00  0.00    -0.084 Cl
ENDROOT
BRANCH   1  17
HETATM   17  C   UNK N   1      23.500  18.521   4.097  0.00  0.00     0.180 C 
BRANCH  17  18
HETATM   18  C   UNK N   1      22.732  18.090   5.334  0.00  0.00     0.308 C 
BRANCH  18  19
HETATM   19  N   UNK N   1      22.293  16.709   5.171  0.00  0.00     0.091 N 
BRANCH  19  20
HETATM   20  C   UNK N   1      22.582  16.009   6.415  0.00  0.00     0.272 C 
BRANCH  20  21
HETATM   21  C   UNK N   1      23.569  14.882   6.155  0.00  0.00     0.030 C 
BRANCH  21  22
HETATM   22  C   UNK N   1      24.953  15.256   6.658  0.00  0.00    -0.003 C 
HETATM   23  C   UNK N   1      25.956  14.168   6.324  0.00  0.00     0.005 C 
ENDBRANCH  21  22
ENDBRANCH  20  21
ENDBRANCH  19  20
BRANCH  19  24
HETATM   24  C   UNK N   1      20.848  16.715   5.013  0.00  0.00     0.272 C 
BRANCH  24  25
HETATM   25  C   UNK N   1      20.443  15.929   3.776  0.00  0.00     0.030 C 
BRANCH  25  26
HETATM   26  C   UNK N   1      20.471  16.819   2.550  0.00  0.00    -0.003 C 
HETATM   27  C   UNK N   1      19.865  18.165   2.884  0.00  0.00     0.005 C 
ENDBRANCH  25  26
ENDBRANCH  24  25
ENDBRANCH  19  24
ENDBRANCH  18  19
ENDBRANCH  17  18
BRANCH  17  28
HETATM   28  O   UNK N   1      23.140  19.810   3.700  0.00  0.00    -0.389 OA
HETATM   29  H   UNK N   1      22.449  20.481   3.582  0.00  0.00     0.210 HD
ENDBRANCH  17  28
ENDBRANCH   1  17
BRANCH  11  30
HETATM   30  C   UNK N   1      29.834  16.120   4.506  0.00  0.00    -0.035 A 
HETATM   31  C   UNK N   1      30.868  16.859   3.910  0.00  0.00     0.013 A 
HETATM   32  C   UNK N   1      31.884  17.408   4.689  0.00  0.00     0.024 A 
HETATM   33  C   UNK N   1      31.878  17.218   6.071  0.00  0.00     0.034 A 
HETATM   34  C   UNK N   1      30.836  16.502   6.676  0.00  0.00     0.024 A 
HETATM   35 Cl   UNK N   1      33.188  17.860   7.036  0.00  0.00    -0.084 Cl
HETATM   36  C   UNK N   1      29.812  15.953   5.894  0.00  0.00     0.013 A 
ENDBRANCH  11  30
TORSDOF 11
ENDMDL
MODEL 5
REMARK VINA RESULT:      -6.4     12.721     14.587
REMARK  11 active torsions:
REMARK  status: ('A' for Active; 'I' for Inactive)
REMARK    1  A    between atoms: C_2  and  C_3 
REMARK    2  A    between atoms: C_3  and  C_4 
REMARK    3  A    between atoms: C_4  and  N_5 
REMARK    4  A    between atoms: N_5  and  C_6 
REMARK    5  A    between atoms: N_5  and  C_10 
REMARK    6  A    between atoms: C_6  and  C_7 
REMARK    7  A    between atoms: C_7  and  C_8 
REMARK    8  A    between atoms: C_10  and  C_11 
REMARK    9  A    between atoms: C_11  and  C_12 
REMARK   10  A    between atoms: C_11  and  O_35 
REMARK   11  A    between atoms: C_22  and  C_23 
ROOT
HETATM    1  C   UNK N   1      21.906  15.672   5.465  0.00  0.00    -0.014 A 
HETATM    2  C   UNK N   1      22.358  16.863   4.855  0.00  0.00    -0.005 A 
HETATM    3  C   UNK N   1      21.679  17.861   4.013  0.00  0.00    -0.013 A 
HETATM    4  C   UNK N   1      22.596  18.838   3.648  0.00  0.00    -0.012 A 
HETATM    5  C   UNK N   1      22.234  19.910   2.833  0.00  0.00     0.037 A 
HETATM    6  C   UNK N   1      20.901  19.990   2.396  0.00  0.00     0.035 A 
HETATM    7  C   UNK N   1      19.966  19.004   2.772  0.00  0.00     0.024 A 
HETATM    8  C   UNK N   1      20.353  17.927   3.587  0.00  0.00     0.015 A 
HETATM    9 Cl   UNK N   1      20.400  21.315   1.367  0.00  0.00    -0.084 Cl
HETATM   10  C   UNK N   1      23.901  18.486   4.208  0.00  0.00    -0.013 A 
HETATM   11  C   UNK N   1      25.070  19.124   3.995  0.00  0.00     0.024 C 
HETATM   12  C   UNK N   1      23.680  17.254   4.988  0.00  0.00    -0.012 A 
HETATM   13  C   UNK N   1      24.579  16.531   5.770  0.00  0.00     0.037 A 
HETATM   14  C   UNK N   1      24.141  15.371   6.407  0.00  0.00     0.035 A 
HETATM   15  C   UNK N   1      22.817  14.934   6.241  0.00  0.00     0.034 A 
HETATM   16 Cl   UNK N   1      25.252  14.457   7.402  0.00  0.00    -0.084 Cl
ENDROOT
BRANCH   1  17
HETATM   17  C   UNK N   1      20.529  15.122   5.311  0.00  0.00     0.180 C 
BRANCH  17  18
HETATM   18  C   UNK N   1      20.462  13.880   4.441  0.00  0.00     0.308 C 
BRANCH  18  19
HETATM   19  N   UNK N   1      20.747  14.246   3.058  0.00  0.00     0.091 N 
BRANCH  19  20
HETATM   20  C   UNK N   1      21.420  13.115   2.436  0.00  0.00     0.272 C 
BRANCH  20  21
HETATM   21  C   UNK N   1      22.927  13.300   2.520  0.00  0.00     0.030 C 
BRANCH  21  22
HETATM   22  C   UNK N   1      23.348  14.588   1.831  0.00  0.00    -0.003 C 
HETATM   23  C   UNK N   1      24.666  15.088   2.390  0.00  0.00     0.005 C 
ENDBRANCH  21  22
ENDBRANCH  20  21
ENDBRANCH  19  20
BRANCH  19  24
HETATM   24  C   UNK N   1      19.478  14.416   2.370  0.00  0.00     0.272 C 
BRANCH  24  25
HETATM   25  C   UNK N   1      19.665  14.288   0.866  0.00  0.00     0.030 C 
BRANCH  25  26
HETATM   26  C   UNK N   1      18.893  15.371   0.142  0.00  0.00    -0.003 C 
HETATM   27  C   UNK N   1      19.714  16.642   0.101  0.00  0.00     0.005 C 
ENDBRANCH  25  26
ENDBRANCH  24  25
ENDBRANCH  19  24
ENDBRANCH  18  19
ENDBRANCH  17  18
BRANCH  17  28
HETATM   28  O   UNK N   1      19.932  14.903   6.554  0.00  0.00    -0.389 OA
HETATM   29  H   UNK N   1      19.513  15.267   7.350  0.00  0.00     0.210 HD
ENDBRANCH  17  28
ENDBRANCH   1  17
BRANCH  11  30
HETATM   30  C   UNK N   1      26.339  18.517   4.429  0.00  0.00    -0.035 A 
HETATM   31  C   UNK N   1      26.945  18.982   5.607  0.00  0.00     0.013 A 
HETATM   32  C   UNK N   1      28.206  18.524   5.981  0.00  0.00     0.024 A 
HETATM   33  C   UNK N   1      28.874  17.599   5.178  0.00  0.00     0.034 A 
HETATM   34  C   UNK N   1      28.264  17.111   4.015  0.00  0.00     0.024 A 
HETATM   35 Cl   UNK N   1      30.481  17.071   5.624  0.00  0.00    -0.084 Cl
HETATM   36  C   UNK N   1      26.995  17.570   3.639  0.00  0.00     0.013 A 
ENDBRANCH  11  30
TORSDOF 11
ENDMDL
MODEL 6
REMARK VINA RESULT:      -6.3     22.227     27.330
REMARK  11 active torsions:
REMARK  status: ('A' for Active; 'I' for Inactive)
REMARK    1  A    between atoms: C_2  and  C_3 
REMARK    2  A    between atoms: C_3  and  C_4 
REMARK    3  A    between atoms: C_4  and  N_5 
REMARK    4  A    between atoms: N_5  and  C_6 
REMARK    5  A    between atoms: N_5  and  C_10 
REMARK    6  A    between atoms: C_6  and  C_7 
REMARK    7  A    between atoms: C_7  and  C_8 
REMARK    8  A    between atoms: C_10  and  C_11 
REMARK    9  A    between atoms: C_11  and  C_12 
REMARK   10  A    between atoms: C_11  and  O_35 
REMARK   11  A    between atoms: C_22  and  C_23 
ROOT
HETATM    1  C   UNK N   1      36.248  12.740  15.388  0.00  0.00    -0.014 A 
HETATM    2  C   UNK N   1      36.545  11.388  15.662  0.00  0.00    -0.005 A 
HETATM    3  C   UNK N   1      37.162  10.327  14.850  0.00  0.00    -0.013 A 
HETATM    4  C   UNK N   1      37.200   9.155  15.595  0.00  0.00    -0.012 A 
HETATM    5  C   UNK N   1      37.722   7.974  15.070  0.00  0.00     0.037 A 
HETATM    6  C   UNK N   1      38.230   7.997  13.760  0.00  0.00     0.035 A 
HETATM    7  C   UNK N   1      38.200   9.188  13.004  0.00  0.00     0.024 A 
HETATM    8  C   UNK N   1      37.662  10.366  13.549  0.00  0.00     0.015 A 
HETATM    9 Cl   UNK N   1      38.891   6.537  13.056  0.00  0.00    -0.084 Cl
HETATM   10  C   UNK N   1      36.578   9.408  16.895  0.00  0.00    -0.013 A 
HETATM   11  C   UNK N   1      36.329   8.502  17.861  0.00  0.00     0.024 C 
HETATM   12  C   UNK N   1      36.221  10.839  16.892  0.00  0.00    -0.012 A 
HETATM   13  C   UNK N   1      35.655  11.610  17.907  0.00  0.00     0.037 A 
HETATM   14  C   UNK N   1      35.385  12.956  17.664  0.00  0.00     0.035 A 
HETATM   15  C   UNK N   1      35.663  13.513  16.406  0.00  0.00     0.034 A 
HETATM   16 Cl   UNK N   1      34.687  13.941  18.930  0.00  0.00    -0.084 Cl
ENDROOT
BRANCH   1  17
HETATM   17  C   UNK N   1      36.478  13.399  14.070  0.00  0.00     0.180 C 
BRANCH  17  18
HETATM   18  C   UNK N   1      35.288  13.320  13.132  0.00  0.00     0.308 C 
BRANCH  18  19
HETATM   19  N   UNK N   1      35.691  13.769  11.804  0.00  0.00     0.091 N 
BRANCH  19  20
HETATM   20  C   UNK N   1      35.546  12.640  10.897  0.00  0.00     0.272 C 
BRANCH  20  21
HETATM   21  C   UNK N   1      36.910  12.216  10.376  0.00  0.00     0.030 C 
BRANCH  21  22
HETATM   22  C   UNK N   1      37.955  13.274  10.691  0.00  0.00    -0.003 C 
HETATM   23  C   UNK N   1      38.335  14.041   9.439  0.00  0.00     0.005 C 
ENDBRANCH  21  22
ENDBRANCH  20  21
ENDBRANCH  19  20
BRANCH  19  24
HETATM   24  C   UNK N   1      34.747  14.786  11.370  0.00  0.00     0.272 C 
BRANCH  24  25
HETATM   25  C   UNK N   1      35.448  16.124  11.192  0.00  0.00     0.030 C 
BRANCH  25  26
HETATM   26  C   UNK N   1      35.045  16.762   9.879  0.00  0.00    -0.003 C 
HETATM   27  C   UNK N   1      34.922  15.696   8.811  0.00  0.00     0.005 C 
ENDBRANCH  25  26
ENDBRANCH  24  25
ENDBRANCH  19  24
ENDBRANCH  18  19
ENDBRANCH  17  18
BRANCH  17  28
HETATM   28  O   UNK N   1      36.910  14.716  14.234  0.00  0.00    -0.389 OA
HETATM   29  H   UNK N   1      37.307  15.396  14.801  0.00  0.00     0.210 HD
ENDBRANCH  17  28
ENDBRANCH   1  17
BRANCH  11  30
HETATM   30  C   UNK N   1      35.483   8.856  19.013  0.00  0.00    -0.035 A 
HETATM   31  C   UNK N   1      34.091   8.708  18.902  0.00  0.00     0.013 A 
HETATM   32  C   UNK N   1      33.251   9.151  19.921  0.00  0.00     0.024 A 
HETATM   33  C   UNK N   1      33.794   9.750  21.058  0.00  0.00     0.034 A 
HETATM   34  C   UNK N   1      35.184   9.878  21.186  0.00  0.00     0.024 A 
HETATM   35 Cl   UNK N   1      32.730  10.356  22.307  0.00  0.00    -0.084 Cl
HETATM   36  C   UNK N   1      36.030   9.431  20.163  0.00  0.00     0.013 A 
ENDBRANCH  11  30
TORSDOF 11
ENDMDL
MODEL 7
REMARK VINA RESULT:      -6.2     13.355     15.369
REMARK  11 active torsions:
REMARK  status: ('A' for Active; 'I' for Inactive)
REMARK    1  A    between atoms: C_2  and  C_3 
REMARK    2  A    between atoms: C_3  and  C_4 
REMARK    3  A    between atoms: C_4  and  N_5 
REMARK    4  A    between atoms: N_5  and  C_6 
REMARK    5  A    between atoms: N_5  and  C_10 
REMARK    6  A    between atoms: C_6  and  C_7 
REMARK    7  A    between atoms: C_7  and  C_8 
REMARK    8  A    between atoms: C_10  and  C_11 
REMARK    9  A    between atoms: C_11  and  C_12 
REMARK   10  A    between atoms: C_11  and  O_35 
REMARK   11  A    between atoms: C_22  and  C_23 
ROOT
HETATM    1  C   UNK N   1      28.327  16.102   3.251  0.00  0.00    -0.014 A 
HETATM    2  C   UNK N   1      27.261  16.906   3.710  0.00  0.00    -0.005 A 
HETATM    3  C   UNK N   1      27.226  18.230   4.350  0.00  0.00    -0.013 A 
HETATM    4  C   UNK N   1      25.905  18.560   4.628  0.00  0.00    -0.012 A 
HETATM    5  C   UNK N   1      25.569  19.760   5.252  0.00  0.00     0.037 A 
HETATM    6  C   UNK N   1      26.605  20.648   5.585  0.00  0.00     0.035 A 
HETATM    7  C   UNK N   1      27.947  20.320   5.296  0.00  0.00     0.024 A 
HETATM    8  C   UNK N   1      28.265  19.102   4.674  0.00  0.00     0.015 A 
HETATM    9 Cl   UNK N   1      26.233  22.166   6.374  0.00  0.00    -0.084 Cl
HETATM   10  C   UNK N   1      25.049  17.448   4.212  0.00  0.00    -0.013 A 
HETATM   11  C   UNK N   1      23.720  17.337   4.405  0.00  0.00     0.024 C 
HETATM   12  C   UNK N   1      25.956  16.454   3.608  0.00  0.00    -0.012 A 
HETATM   13  C   UNK N   1      25.651  15.237   3.000  0.00  0.00     0.037 A 
HETATM   14  C   UNK N   1      26.690  14.446   2.511  0.00  0.00     0.035 A 
HETATM   15  C   UNK N   1      28.021  14.867   2.653  0.00  0.00     0.034 A 
HETATM   16 Cl   UNK N   1      26.326  12.921   1.736  0.00  0.00    -0.084 Cl
ENDROOT
BRANCH   1  17
HETATM   17  C   UNK N   1      29.768  16.460   3.393  0.00  0.00     0.180 C 
BRANCH  17  18
HETATM   18  C   UNK N   1      30.574  15.444   4.182  0.00  0.00     0.308 C 
BRANCH  18  19
HETATM   19  N   UNK N   1      31.082  16.072   5.397  0.00  0.00     0.091 N 
BRANCH  19  20
HETATM   20  C   UNK N   1      31.483  17.429   5.053  0.00  0.00     0.272 C 
BRANCH  20  21
HETATM   21  C   UNK N   1      32.990  17.487   4.857  0.00  0.00     0.030 C 
BRANCH  21  22
HETATM   22  C   UNK N   1      33.705  16.758   5.983  0.00  0.00    -0.003 C 
HETATM   23  C   UNK N   1      33.991  17.702   7.135  0.00  0.00     0.005 C 
ENDBRANCH  21  22
ENDBRANCH  20  21
ENDBRANCH  19  20
BRANCH  19  24
HETATM   24  C   UNK N   1      29.979  16.181   6.338  0.00  0.00     0.272 C 
BRANCH  24  25
HETATM   25  C   UNK N   1      30.225  17.316   7.319  0.00  0.00     0.030 C 
BRANCH  25  26
HETATM   26  C   UNK N   1      28.935  17.711   8.007  0.00  0.00    -0.003 C 
HETATM   27  C   UNK N   1      27.808  16.821   7.527  0.00  0.00     0.005 C 
ENDBRANCH  25  26
ENDBRANCH  24  25
ENDBRANCH  19  24
ENDBRANCH  18  19
ENDBRANCH  17  18
BRANCH  17  28
HETATM   28  O   UNK N   1      30.349  16.715   2.150  0.00  0.00    -0.389 OA
HETATM   29  H   UNK N   1      31.021  17.180   1.626  0.00  0.00     0.210 HD
ENDBRANCH  17  28
ENDBRANCH   1  17
BRANCH  11  30
HETATM   30  C   UNK N   1      23.035  16.059   4.148  0.00  0.00    -0.035 A 
HETATM   31  C   UNK N   1      22.335  15.895   2.943  0.00  0.00     0.013 A 
HETATM   32  C   UNK N   1      21.571  14.752   2.719  0.00  0.00     0.024 A 
HETATM   33  C   UNK N   1      21.496  13.765   3.702  0.00  0.00     0.034 A 
HETATM   34  C   UNK N   1      22.212  13.910   4.897  0.00  0.00     0.024 A 
HETATM   35 Cl   UNK N   1      20.488  12.359   3.438  0.00  0.00    -0.084 Cl
HETATM   36  C   UNK N   1      22.984  15.057   5.122  0.00  0.00     0.013 A 
ENDBRANCH  11  30
TORSDOF 11
ENDMDL
MODEL 8
REMARK VINA RESULT:      -6.2      3.193      6.304
REMARK  11 active torsions:
REMARK  status: ('A' for Active; 'I' for Inactive)
REMARK    1  A    between atoms: C_2  and  C_3 
REMARK    2  A    between atoms: C_3  and  C_4 
REMARK    3  A    between atoms: C_4  and  N_5 
REMARK    4  A    between atoms: N_5  and  C_6 
REMARK    5  A    between atoms: N_5  and  C_10 
REMARK    6  A    between atoms: C_6  and  C_7 
REMARK    7  A    between atoms: C_7  and  C_8 
REMARK    8  A    between atoms: C_10  and  C_11 
REMARK    9  A    between atoms: C_11  and  C_12 
REMARK   10  A    between atoms: C_11  and  O_35 
REMARK   11  A    between atoms: C_22  and  C_23 
ROOT
HETATM    1  C   UNK N   1      27.302  23.946  -5.126  0.00  0.00    -0.014 A 
HETATM    2  C   UNK N   1      28.413  23.108  -5.362  0.00  0.00    -0.005 A 
HETATM    3  C   UNK N   1      29.546  22.706  -4.512  0.00  0.00    -0.013 A 
HETATM    4  C   UNK N   1      30.385  21.877  -5.246  0.00  0.00    -0.012 A 
HETATM    5  C   UNK N   1      31.555  21.354  -4.696  0.00  0.00     0.037 A 
HETATM    6  C   UNK N   1      31.862  21.673  -3.364  0.00  0.00     0.035 A 
HETATM    7  C   UNK N   1      31.008  22.507  -2.614  0.00  0.00     0.024 A 
HETATM    8  C   UNK N   1      29.838  23.032  -3.188  0.00  0.00     0.015 A 
HETATM    9 Cl   UNK N   1      33.323  21.042  -2.631  0.00  0.00    -0.084 Cl
HETATM   10  C   UNK N   1      29.846  21.747  -6.600  0.00  0.00    -0.013 A 
HETATM   11  C   UNK N   1      30.421  21.112  -7.640  0.00  0.00     0.024 C 
HETATM   12  C   UNK N   1      28.585  22.512  -6.600  0.00  0.00    -0.012 A 
HETATM   13  C   UNK N   1      27.647  22.666  -7.619  0.00  0.00     0.037 A 
HETATM   14  C   UNK N   1      26.525  23.464  -7.392  0.00  0.00     0.035 A 
HETATM   15  C   UNK N   1      26.364  24.115  -6.159  0.00  0.00     0.034 A 
HETATM   16 Cl   UNK N   1      25.332  23.659  -8.656  0.00  0.00    -0.084 Cl
ENDROOT
BRANCH   1  17
HETATM   17  C   UNK N   1      27.074  24.700  -3.860  0.00  0.00     0.180 C 
BRANCH  17  18
HETATM   18  C   UNK N   1      26.440  26.063  -4.066  0.00  0.00     0.308 C 
BRANCH  18  19
HETATM   19  N   UNK N   1      27.393  27.099  -3.685  0.00  0.00     0.091 N 
BRANCH  19  20
HETATM   20  C   UNK N   1      28.730  26.540  -3.834  0.00  0.00     0.272 C 
BRANCH  20  21
HETATM   21  C   UNK N   1      29.761  27.658  -3.827  0.00  0.00     0.030 C 
BRANCH  21  22
HETATM   22  C   UNK N   1      31.142  27.110  -3.510  0.00  0.00    -0.003 C 
HETATM   23  C   UNK N   1      31.510  25.996  -4.471  0.00  0.00     0.005 C 
ENDBRANCH  21  22
ENDBRANCH  20  21
ENDBRANCH  19  20
BRANCH  19  24
HETATM   24  C   UNK N   1      27.279  28.186  -4.644  0.00  0.00     0.272 C 
BRANCH  24  25
HETATM   25  C   UNK N   1      26.498  27.737  -5.869  0.00  0.00     0.030 C 
BRANCH  25  26
HETATM   26  C   UNK N   1      27.413  27.631  -7.072  0.00  0.00    -0.003 C 
HETATM   27  C   UNK N   1      28.286  28.865  -7.158  0.00  0.00     0.005 C 
ENDBRANCH  25  26
ENDBRANCH  24  25
ENDBRANCH  19  24
ENDBRANCH  18  19
ENDBRANCH  17  18
BRANCH  17  28
HETATM   28  O   UNK N   1      26.349  23.937  -2.942  0.00  0.00    -0.389 OA
HETATM   29  H   UNK N   1      25.632  23.306  -2.769  0.00  0.00     0.210 HD
ENDBRANCH  17  28
ENDBRANCH   1  17
BRANCH  11  30
HETATM   30  C   UNK N   1      29.877  21.267  -8.999  0.00  0.00    -0.035 A 
HETATM   31  C   UNK N   1      30.204  22.419  -9.733  0.00  0.00     0.013 A 
HETATM   32  C   UNK N   1      29.608  22.662 -10.968  0.00  0.00     0.024 A 
HETATM   33  C   UNK N   1      28.677  21.758 -11.479  0.00  0.00     0.034 A 
HETATM   34  C   UNK N   1      28.365  20.594 -10.765  0.00  0.00     0.024 A 
HETATM   35 Cl   UNK N   1      27.890  22.099 -13.004  0.00  0.00    -0.084 Cl
HETATM   36  C   UNK N   1      28.965  20.346  -9.523  0.00  0.00     0.013 A 
ENDBRANCH  11  30
TORSDOF 11
ENDMDL
MODEL 9
REMARK VINA RESULT:      -6.2      3.929      8.200
REMARK  11 active torsions:
REMARK  status: ('A' for Active; 'I' for Inactive)
REMARK    1  A    between atoms: C_2  and  C_3 
REMARK    2  A    between atoms: C_3  and  C_4 
REMARK    3  A    between atoms: C_4  and  N_5 
REMARK    4  A    between atoms: N_5  and  C_6 
REMARK    5  A    between atoms: N_5  and  C_10 
REMARK    6  A    between atoms: C_6  and  C_7 
REMARK    7  A    between atoms: C_7  and  C_8 
REMARK    8  A    between atoms: C_10  and  C_11 
REMARK    9  A    between atoms: C_11  and  C_12 
REMARK   10  A    between atoms: C_11  and  O_35 
REMARK   11  A    between atoms: C_22  and  C_23 
ROOT
HETATM    1  C   UNK N   1      31.567  20.730  -4.747  0.00  0.00    -0.014 A 
HETATM    2  C   UNK N   1      30.622  20.950  -5.773  0.00  0.00    -0.005 A 
HETATM    3  C   UNK N   1      30.497  20.406  -7.134  0.00  0.00    -0.013 A 
HETATM    4  C   UNK N   1      29.388  20.977  -7.745  0.00  0.00    -0.012 A 
HETATM    5  C   UNK N   1      29.032  20.657  -9.055  0.00  0.00     0.037 A 
HETATM    6  C   UNK N   1      29.819  19.722  -9.747  0.00  0.00     0.035 A 
HETATM    7  C   UNK N   1      30.941  19.134  -9.126  0.00  0.00     0.024 A 
HETATM    8  C   UNK N   1      31.288  19.476  -7.809  0.00  0.00     0.015 A 
HETATM    9 Cl   UNK N   1      29.414  19.291 -11.395  0.00  0.00    -0.084 Cl
HETATM   10  C   UNK N   1      28.783  21.932  -6.817  0.00  0.00    -0.013 A 
HETATM   11  C   UNK N   1      27.753  22.763  -7.070  0.00  0.00     0.024 C 
HETATM   12  C   UNK N   1      29.581  21.842  -5.579  0.00  0.00    -0.012 A 
HETATM   13  C   UNK N   1      29.398  22.496  -4.362  0.00  0.00     0.037 A 
HETATM   14  C   UNK N   1      30.304  22.265  -3.327  0.00  0.00     0.035 A 
HETATM   15  C   UNK N   1      31.392  21.402  -3.525  0.00  0.00     0.034 A 
HETATM   16 Cl   UNK N   1      30.083  23.068  -1.789  0.00  0.00    -0.084 Cl
ENDROOT
BRANCH   1  17
HETATM   17  C   UNK N   1      32.768  19.857  -4.887  0.00  0.00     0.180 C 
BRANCH  17  18
HETATM   18  C   UNK N   1      34.084  20.601  -4.749  0.00  0.00     0.308 C 
BRANCH  18  19
HETATM   19  N   UNK N   1      34.193  21.587  -5.818  0.00  0.00     0.091 N 
BRANCH  19  20
HETATM   20  C   UNK N   1      34.766  22.795  -5.242  0.00  0.00     0.272 C 
BRANCH  20  21
HETATM   21  C   UNK N   1      34.164  24.022  -5.909  0.00  0.00     0.030 C 
BRANCH  21  22
HETATM   22  C   UNK N   1      32.709  24.190  -5.506  0.00  0.00    -0.003 C 
HETATM   23  C   UNK N   1      31.832  24.370  -6.730  0.00  0.00     0.005 C 
ENDBRANCH  21  22
ENDBRANCH  20  21
ENDBRANCH  19  20
BRANCH  19  24
HETATM   24  C   UNK N   1      35.149  21.086  -6.792  0.00  0.00     0.272 C 
BRANCH  24  25
HETATM   25  C   UNK N   1      34.554  21.123  -8.191  0.00  0.00     0.030 C 
BRANCH  25  26
HETATM   26  C   UNK N   1      34.827  19.822  -8.917  0.00  0.00    -0.003 C 
HETATM   27  C   UNK N   1      34.894  18.686  -7.918  0.00  0.00     0.005 C 
ENDBRANCH  25  26
ENDBRANCH  24  25
ENDBRANCH  19  24
ENDBRANCH  18  19
ENDBRANCH  17  18
BRANCH  17  28
HETATM   28  O   UNK N   1      32.706  18.770  -4.013  0.00  0.00    -0.389 OA
HETATM   29  H   UNK N   1      32.888  17.833  -3.837  0.00  0.00     0.210 HD
ENDBRANCH  17  28
ENDBRANCH   1  17
BRANCH  11  30
HETATM   30  C   UNK N   1      27.409  23.834  -6.120  0.00  0.00    -0.035 A 
HETATM   31  C   UNK N   1      26.272  23.684  -5.311  0.00  0.00     0.013 A 
HETATM   32  C   UNK N   1      25.843  24.727  -4.494  0.00  0.00     0.024 A 
HETATM   33  C   UNK N   1      26.546  25.932  -4.482  0.00  0.00     0.034 A 
HETATM   34  C   UNK N   1      27.696  26.081  -5.268  0.00  0.00     0.024 A 
HETATM   35 Cl   UNK N   1      25.969  27.258  -3.498  0.00  0.00    -0.084 Cl
HETATM   36  C   UNK N   1      28.130  25.031  -6.088  0.00  0.00     0.013 A 
ENDBRANCH  11  30
TORSDOF 11
ENDMDL
