REMARK  5 active torsions:
REMARK  status: ('A' for Active; 'I' for Inactive)
REMARK    1  A    between atoms: C_3  and  N_20 
REMARK    2  A    between atoms: C_11  and  C_12 
REMARK    3  A    between atoms: C_12  and  O_14 
REMARK    4  A    between atoms: N_16  and  C_17 
REMARK    5  A    between atoms: C_25  and  N_26 
ROOT
HETATM    1  F   UNK N   1      -2.363   1.086   0.178  0.00  0.00    -0.204 F 
HETATM    2  C   UNK N   1      -1.315   0.226   0.129  0.00  0.00     0.145 A 
HETATM    3  C   UNK N   1      -1.480  -1.176   0.264  0.00  0.00     0.093 A 
HETATM    4  C   UNK N   1      -0.292  -2.005   0.218  0.00  0.00     0.091 A 
HETATM    5 Cl   UNK N   1      -0.465  -3.770   0.285  0.00  0.00    -0.079 Cl
HETATM    6  C   UNK N   1       1.020  -1.396   0.065  0.00  0.00     0.073 A 
HETATM    7  C   UNK N   1       1.086   0.020  -0.057  0.00  0.00     0.047 A 
HETATM    8  C   UNK N   1      -0.068   0.787  -0.027  0.00  0.00     0.062 A 
HETATM    9  C   UNK N   1       2.320   0.672  -0.207  0.00  0.00     0.202 A 
HETATM   10  O   UNK N   1       2.361   1.889  -0.311  0.00  0.00    -0.286 OA
HETATM   11  C   UNK N   1       3.500  -0.075  -0.232  0.00  0.00     0.104 A 
HETATM   12  C   UNK N   1       3.411  -1.454  -0.109  0.00  0.00     0.114 A 
HETATM   13  N   UNK N   1       2.220  -2.114   0.032  0.00  0.00    -0.349 N 
ENDROOT
BRANCH   3  14
HETATM   14  N   UNK N   1      -2.824  -1.717   0.440  0.00  0.00    -0.375 N 
HETATM   15  C   UNK N   1      -3.049  -3.013   1.051  0.00  0.00     0.123 C 
HETATM   16  C   UNK N   1      -3.586  -4.014   0.033  0.00  0.00     0.020 C 
HETATM   17  C   UNK N   1      -5.099  -3.967  -0.052  0.00  0.00     0.004 C 
HETATM   18  C   UNK N   1      -5.590  -2.654  -0.634  0.00  0.00     0.026 C 
HETATM   19  C   UNK N   1      -5.358  -1.518   0.347  0.00  0.00     0.091 C 
HETATM   20  C   UNK N   1      -3.984  -0.884   0.123  0.00  0.00     0.147 C 
BRANCH  19  21
HETATM   21  N   UNK N   1      -6.376  -0.506   0.137  0.00  0.00    -0.424 N 
HETATM   22  H   UNK N   1      -6.118   0.469  -0.012  0.00  0.00     0.150 HD
HETATM   23  H   UNK N   1      -7.361  -0.773   0.137  0.00  0.00     0.150 HD
ENDBRANCH  19  21
ENDBRANCH   3  14
BRANCH  13  24
HETATM   24  C   UNK N   1       2.280  -3.583   0.190  0.00  0.00     0.090 A 
HETATM   25  C   UNK N   1       3.683  -4.186   0.161  0.00  0.00     0.028 A 
HETATM   26  C   UNK N   1       2.813  -4.235  -1.076  0.00  0.00     0.028 A 
ENDBRANCH  13  24
BRANCH  11  27
HETATM   27  C   UNK N   1       4.843   0.549  -0.372  0.00  0.00     0.181 C 
HETATM   28  O   UNK N   1       5.844  -0.152  -0.385  0.00  0.00    -0.646 OA
BRANCH  27  29
HETATM   29  O   UNK N   1       4.978   1.885  -0.478  0.00  0.00    -0.772 OA
HETATM   30  H   UNK N   1       5.830   2.269  -0.551  0.00  0.00     0.167 HD
ENDBRANCH  27  29
ENDBRANCH  11  27
TORSDOF 5
