MODEL 1
REMARK VINA RESULT:      -5.5      0.000      0.000
REMARK  6 active torsions:
REMARK  status: ('A' for Active; 'I' for Inactive)
REMARK    1  A    between atoms: O_1  and  C_14 
REMARK    2  A    between atoms: N_2  and  C_5 
REMARK    3  A    between atoms: C_3  and  C_4 
REMARK    4  A    between atoms: C_3  and  C_6 
REMARK    5  A    between atoms: C_3  and  C_7 
REMARK    6  A    between atoms: C_4  and  C_5 
ROOT
HETATM    1  C   UNK N   1      35.456  11.994  15.740  0.00  0.00     0.024 C 
ENDROOT
BRANCH   1   2
HETATM    2  C   UNK N   1      36.728  12.544  15.046  0.00  0.00     0.018 C 
HETATM    3  C   UNK N   1      36.813  14.061  15.157  0.00  0.00     0.012 C 
BRANCH   2   4
HETATM    4  C   UNK N   1      36.744  12.174  13.562  0.00  0.00     0.276 C 
BRANCH   4   5
HETATM    5  N   UNK N   1      36.431  13.320  12.719  0.00  0.00     0.080 N 
HETATM    6  C   UNK N   1      37.300  13.231  11.560  0.00  0.00     0.309 C 
HETATM    7  C   UNK N   1      35.072  13.169  12.226  0.00  0.00     0.309 C 
ENDBRANCH   4   5
ENDBRANCH   2   4
ENDBRANCH   1   2
BRANCH   1   8
HETATM    8  C   UNK N   1      34.985  10.711  15.052  0.00  0.00     0.005 C 
HETATM    9  C   UNK N   1      33.509  10.793  14.714  0.00  0.00     0.006 C 
ENDBRANCH   1   8
BRANCH   1  10
HETATM   10  C   UNK N   1      35.582  11.721  17.228  0.00  0.00    -0.051 A 
HETATM   11  C   UNK N   1      35.142  12.700  18.136  0.00  0.00     0.044 A 
HETATM   12  C   UNK N   1      35.237  12.486  19.514  0.00  0.00     0.066 A 
HETATM   13  C   UNK N   1      35.787  11.299  20.001  0.00  0.00     0.036 A 
HETATM   14  C   UNK N   1      36.234  10.320  19.110  0.00  0.00     0.003 A 
HETATM   15  C   UNK N   1      36.126  10.526  17.731  0.00  0.00     0.007 A 
BRANCH  12  16
HETATM   16  O   UNK N   1      34.792  13.422  20.368  0.00  0.00    -0.361 OA
HETATM   17  H   UNK N   1      34.445  13.185  21.206  0.00  0.00     0.217 HD
ENDBRANCH  12  16
ENDBRANCH   1  10
TORSDOF 6
ENDMDL
MODEL 2
REMARK VINA RESULT:      -5.5      1.351      2.203
REMARK  6 active torsions:
REMARK  status: ('A' for Active; 'I' for Inactive)
REMARK    1  A    between atoms: O_1  and  C_14 
REMARK    2  A    between atoms: N_2  and  C_5 
REMARK    3  A    between atoms: C_3  and  C_4 
REMARK    4  A    between atoms: C_3  and  C_6 
REMARK    5  A    between atoms: C_3  and  C_7 
REMARK    6  A    between atoms: C_4  and  C_5 
ROOT
HETATM    1  C   UNK N   1      35.581  11.065  15.645  0.00  0.00     0.024 C 
ENDROOT
BRANCH   1   2
HETATM    2  C   UNK N   1      34.646  11.688  14.579  0.00  0.00     0.018 C 
HETATM    3  C   UNK N   1      33.623  10.679  14.074  0.00  0.00     0.012 C 
BRANCH   2   4
HETATM    4  C   UNK N   1      35.447  12.193  13.376  0.00  0.00     0.276 C 
BRANCH   4   5
HETATM    5  N   UNK N   1      35.127  13.577  13.059  0.00  0.00     0.080 N 
HETATM    6  C   UNK N   1      36.233  14.380  13.548  0.00  0.00     0.309 C 
HETATM    7  C   UNK N   1      35.119  13.727  11.613  0.00  0.00     0.309 C 
ENDBRANCH   4   5
ENDBRANCH   2   4
ENDBRANCH   1   2
BRANCH   1   8
HETATM    8  C   UNK N   1      37.041  11.168  15.201  0.00  0.00     0.005 C 
HETATM    9  C   UNK N   1      37.714   9.809  15.246  0.00  0.00     0.006 C 
ENDBRANCH   1   8
BRANCH   1  10
HETATM   10  C   UNK N   1      35.464  11.643  17.044  0.00  0.00    -0.051 A 
HETATM   11  C   UNK N   1      35.366  13.037  17.195  0.00  0.00     0.044 A 
HETATM   12  C   UNK N   1      35.252  13.609  18.465  0.00  0.00     0.066 A 
HETATM   13  C   UNK N   1      35.251  12.796  19.600  0.00  0.00     0.036 A 
HETATM   14  C   UNK N   1      35.353  11.409  19.465  0.00  0.00     0.003 A 
HETATM   15  C   UNK N   1      35.451  10.835  18.194  0.00  0.00     0.007 A 
BRANCH  12  16
HETATM   16  O   UNK N   1      35.139  14.941  18.591  0.00  0.00    -0.361 OA
HETATM   17  H   UNK N   1      35.696  15.521  18.110  0.00  0.00     0.217 HD
ENDBRANCH  12  16
ENDBRANCH   1  10
TORSDOF 6
ENDMDL
MODEL 3
REMARK VINA RESULT:      -5.2      1.486      2.051
REMARK  6 active torsions:
REMARK  status: ('A' for Active; 'I' for Inactive)
REMARK    1  A    between atoms: O_1  and  C_14 
REMARK    2  A    between atoms: N_2  and  C_5 
REMARK    3  A    between atoms: C_3  and  C_4 
REMARK    4  A    between atoms: C_3  and  C_6 
REMARK    5  A    between atoms: C_3  and  C_7 
REMARK    6  A    between atoms: C_4  and  C_5 
ROOT
HETATM    1  C   UNK N   1      34.676  12.045  15.059  0.00  0.00     0.024 C 
ENDROOT
BRANCH   1   2
HETATM    2  C   UNK N   1      35.889  12.335  14.139  0.00  0.00     0.018 C 
HETATM    3  C   UNK N   1      37.204  11.984  14.822  0.00  0.00     0.012 C 
BRANCH   2   4
HETATM    4  C   UNK N   1      35.937  13.814  13.748  0.00  0.00     0.276 C 
BRANCH   4   5
HETATM    5  N   UNK N   1      35.321  14.048  12.450  0.00  0.00     0.080 N 
HETATM    6  C   UNK N   1      35.822  15.326  11.978  0.00  0.00     0.309 C 
HETATM    7  C   UNK N   1      35.812  13.045  11.520  0.00  0.00     0.309 C 
ENDBRANCH   4   5
ENDBRANCH   2   4
ENDBRANCH   1   2
BRANCH   1   8
HETATM    8  C   UNK N   1      34.128  10.642  14.793  0.00  0.00     0.005 C 
HETATM    9  C   UNK N   1      33.886  10.432  13.310  0.00  0.00     0.006 C 
ENDBRANCH   1   8
BRANCH   1  10
HETATM   10  C   UNK N   1      34.931  12.186  16.549  0.00  0.00    -0.051 A 
HETATM   11  C   UNK N   1      35.143  11.026  17.313  0.00  0.00     0.044 A 
HETATM   12  C   UNK N   1      35.386  11.112  18.686  0.00  0.00     0.066 A 
HETATM   13  C   UNK N   1      35.403  12.358  19.316  0.00  0.00     0.036 A 
HETATM   14  C   UNK N   1      35.187  13.520  18.570  0.00  0.00     0.003 A 
HETATM   15  C   UNK N   1      34.960  13.436  17.193  0.00  0.00     0.007 A 
BRANCH  12  16
HETATM   16  O   UNK N   1      35.608   9.996  19.399  0.00  0.00    -0.361 OA
HETATM   17  H   UNK N   1      36.398   9.502  19.291  0.00  0.00     0.217 HD
ENDBRANCH  12  16
ENDBRANCH   1  10
TORSDOF 6
ENDMDL
MODEL 4
REMARK VINA RESULT:      -5.0      8.949     11.580
REMARK  6 active torsions:
REMARK  status: ('A' for Active; 'I' for Inactive)
REMARK    1  A    between atoms: O_1  and  C_14 
REMARK    2  A    between atoms: N_2  and  C_5 
REMARK    3  A    between atoms: C_3  and  C_4 
REMARK    4  A    between atoms: C_3  and  C_6 
REMARK    5  A    between atoms: C_3  and  C_7 
REMARK    6  A    between atoms: C_4  and  C_5 
ROOT
HETATM    1  C   UNK N   1      31.362  16.648   6.177  0.00  0.00     0.024 C 
ENDROOT
BRANCH   1   2
HETATM    2  C   UNK N   1      32.769  17.296   6.224  0.00  0.00     0.018 C 
HETATM    3  C   UNK N   1      33.253  17.682   4.832  0.00  0.00     0.012 C 
BRANCH   2   4
HETATM    4  C   UNK N   1      33.793  16.336   6.833  0.00  0.00     0.276 C 
BRANCH   4   5
HETATM    5  N   UNK N   1      34.491  16.937   7.960  0.00  0.00     0.080 N 
HETATM    6  C   UNK N   1      34.086  18.331   8.001  0.00  0.00     0.309 C 
HETATM    7  C   UNK N   1      33.997  16.330   9.185  0.00  0.00     0.309 C 
ENDBRANCH   4   5
ENDBRANCH   2   4
ENDBRANCH   1   2
BRANCH   1   8
HETATM    8  C   UNK N   1      31.427  15.195   6.650  0.00  0.00     0.005 C 
HETATM    9  C   UNK N   1      30.942  14.253   5.564  0.00  0.00     0.006 C 
ENDBRANCH   1   8
BRANCH   1  10
HETATM   10  C   UNK N   1      30.280  17.363   6.967  0.00  0.00    -0.051 A 
HETATM   11  C   UNK N   1      30.506  17.640   8.327  0.00  0.00     0.044 A 
HETATM   12  C   UNK N   1      29.538  18.299   9.088  0.00  0.00     0.066 A 
HETATM   13  C   UNK N   1      28.326  18.676   8.506  0.00  0.00     0.036 A 
HETATM   14  C   UNK N   1      28.086  18.402   7.156  0.00  0.00     0.003 A 
HETATM   15  C   UNK N   1      29.061  17.756   6.389  0.00  0.00     0.007 A 
BRANCH  12  16
HETATM   16  O   UNK N   1      29.777  18.575  10.381  0.00  0.00    -0.361 OA
HETATM   17  H   UNK N   1      29.324  18.120  11.064  0.00  0.00     0.217 HD
ENDBRANCH  12  16
ENDBRANCH   1  10
TORSDOF 6
ENDMDL
MODEL 5
REMARK VINA RESULT:      -4.9      8.098     11.575
REMARK  6 active torsions:
REMARK  status: ('A' for Active; 'I' for Inactive)
REMARK    1  A    between atoms: O_1  and  C_14 
REMARK    2  A    between atoms: N_2  and  C_5 
REMARK    3  A    between atoms: C_3  and  C_4 
REMARK    4  A    between atoms: C_3  and  C_6 
REMARK    5  A    between atoms: C_3  and  C_7 
REMARK    6  A    between atoms: C_4  and  C_5 
ROOT
HETATM    1  C   UNK N   1      31.758  17.479   6.814  0.00  0.00     0.024 C 
ENDROOT
BRANCH   1   2
HETATM    2  C   UNK N   1      32.620  17.261   8.084  0.00  0.00     0.018 C 
HETATM    3  C   UNK N   1      33.727  18.302   8.192  0.00  0.00     0.012 C 
BRANCH   2   4
HETATM    4  C   UNK N   1      33.271  15.876   8.072  0.00  0.00     0.276 C 
BRANCH   4   5
HETATM    5  N   UNK N   1      32.851  15.075   9.213  0.00  0.00     0.080 N 
HETATM    6  C   UNK N   1      32.763  13.704   8.746  0.00  0.00     0.309 C 
HETATM    7  C   UNK N   1      33.910  15.102  10.209  0.00  0.00     0.309 C 
ENDBRANCH   4   5
ENDBRANCH   2   4
ENDBRANCH   1   2
BRANCH   1   8
HETATM    8  C   UNK N   1      32.275  16.614   5.663  0.00  0.00     0.005 C 
HETATM    9  C   UNK N   1      32.872  17.478   4.568  0.00  0.00     0.006 C 
ENDBRANCH   1   8
BRANCH   1  10
HETATM   10  C   UNK N   1      30.270  17.221   6.976  0.00  0.00    -0.051 A 
HETATM   11  C   UNK N   1      29.606  17.763   8.090  0.00  0.00     0.044 A 
HETATM   12  C   UNK N   1      28.237  17.553   8.272  0.00  0.00     0.066 A 
HETATM   13  C   UNK N   1      27.517  16.787   7.353  0.00  0.00     0.036 A 
HETATM   14  C   UNK N   1      28.166  16.238   6.244  0.00  0.00     0.003 A 
HETATM   15  C   UNK N   1      29.534  16.460   6.052  0.00  0.00     0.007 A 
BRANCH  12  16
HETATM   16  O   UNK N   1      27.612  18.094   9.331  0.00  0.00    -0.361 OA
HETATM   17  H   UNK N   1      26.698  17.947   9.480  0.00  0.00     0.217 HD
ENDBRANCH  12  16
ENDBRANCH   1  10
TORSDOF 6
ENDMDL
MODEL 6
REMARK VINA RESULT:      -4.9     11.122     13.624
REMARK  6 active torsions:
REMARK  status: ('A' for Active; 'I' for Inactive)
REMARK    1  A    between atoms: O_1  and  C_14 
REMARK    2  A    between atoms: N_2  and  C_5 
REMARK    3  A    between atoms: C_3  and  C_4 
REMARK    4  A    between atoms: C_3  and  C_6 
REMARK    5  A    between atoms: C_3  and  C_7 
REMARK    6  A    between atoms: C_4  and  C_5 
ROOT
HETATM    1  C   UNK N   1      29.311  17.629   7.214  0.00  0.00     0.024 C 
ENDROOT
BRANCH   1   2
HETATM    2  C   UNK N   1      30.534  17.048   6.459  0.00  0.00     0.018 C 
HETATM    3  C   UNK N   1      30.240  15.659   5.907  0.00  0.00     0.012 C 
BRANCH   2   4
HETATM    4  C   UNK N   1      31.748  16.943   7.384  0.00  0.00     0.276 C 
BRANCH   4   5
HETATM    5  N   UNK N   1      32.887  17.685   6.863  0.00  0.00     0.080 N 
HETATM    6  C   UNK N   1      33.591  18.223   8.013  0.00  0.00     0.309 C 
HETATM    7  C   UNK N   1      33.796  16.746   6.228  0.00  0.00     0.309 C 
ENDBRANCH   4   5
ENDBRANCH   2   4
ENDBRANCH   1   2
BRANCH   1   8
HETATM    8  C   UNK N   1      29.744  18.220   8.557  0.00  0.00     0.005 C 
HETATM    9  C   UNK N   1      29.085  17.481   9.707  0.00  0.00     0.006 C 
ENDBRANCH   1   8
BRANCH   1  10
HETATM   10  C   UNK N   1      28.512  18.679   6.463  0.00  0.00    -0.051 A 
HETATM   11  C   UNK N   1      27.764  19.615   7.198  0.00  0.00     0.044 A 
HETATM   12  C   UNK N   1      27.019  20.600   6.546  0.00  0.00     0.066 A 
HETATM   13  C   UNK N   1      26.997  20.652   5.151  0.00  0.00     0.036 A 
HETATM   14  C   UNK N   1      27.731  19.724   4.407  0.00  0.00     0.003 A 
HETATM   15  C   UNK N   1      28.490  18.747   5.059  0.00  0.00     0.007 A 
BRANCH  12  16
HETATM   16  O   UNK N   1      26.327  21.501   7.263  0.00  0.00    -0.361 OA
HETATM   17  H   UNK N   1      26.105  22.337   6.903  0.00  0.00     0.217 HD
ENDBRANCH  12  16
ENDBRANCH   1  10
TORSDOF 6
ENDMDL
MODEL 7
REMARK VINA RESULT:      -4.8      9.168     11.526
REMARK  6 active torsions:
REMARK  status: ('A' for Active; 'I' for Inactive)
REMARK    1  A    between atoms: O_1  and  C_14 
REMARK    2  A    between atoms: N_2  and  C_5 
REMARK    3  A    between atoms: C_3  and  C_4 
REMARK    4  A    between atoms: C_3  and  C_6 
REMARK    5  A    between atoms: C_3  and  C_7 
REMARK    6  A    between atoms: C_4  and  C_5 
ROOT
HETATM    1  C   UNK N   1      31.111  17.432   6.945  0.00  0.00     0.024 C 
ENDROOT
BRANCH   1   2
HETATM    2  C   UNK N   1      31.056  16.673   5.595  0.00  0.00     0.018 C 
HETATM    3  C   UNK N   1      31.862  17.390   4.519  0.00  0.00     0.012 C 
BRANCH   2   4
HETATM    4  C   UNK N   1      29.614  16.543   5.100  0.00  0.00     0.276 C 
BRANCH   4   5
HETATM    5  N   UNK N   1      29.408  15.303   4.365  0.00  0.00     0.080 N 
HETATM    6  C   UNK N   1      29.952  14.238   5.189  0.00  0.00     0.309 C 
HETATM    7  C   UNK N   1      27.978  15.058   4.269  0.00  0.00     0.309 C 
ENDBRANCH   4   5
ENDBRANCH   2   4
ENDBRANCH   1   2
BRANCH   1   8
HETATM    8  C   UNK N   1      29.917  17.050   7.821  0.00  0.00     0.005 C 
HETATM    9  C   UNK N   1      29.555  18.185   8.761  0.00  0.00     0.006 C 
ENDBRANCH   1   8
BRANCH   1  10
HETATM   10  C   UNK N   1      32.381  17.243   7.756  0.00  0.00    -0.051 A 
HETATM   11  C   UNK N   1      33.325  18.284   7.789  0.00  0.00     0.044 A 
HETATM   12  C   UNK N   1      34.504  18.151   8.527  0.00  0.00     0.066 A 
HETATM   13  C   UNK N   1      34.762  16.971   9.228  0.00  0.00     0.036 A 
HETATM   14  C   UNK N   1      33.834  15.926   9.199  0.00  0.00     0.003 A 
HETATM   15  C   UNK N   1      32.647  16.064   8.473  0.00  0.00     0.007 A 
BRANCH  12  16
HETATM   16  O   UNK N   1      35.387  19.162   8.566  0.00  0.00    -0.361 OA
HETATM   17  H   UNK N   1      36.047  19.202   9.231  0.00  0.00     0.217 HD
ENDBRANCH  12  16
ENDBRANCH   1  10
TORSDOF 6
ENDMDL
MODEL 8
REMARK VINA RESULT:      -4.8     22.385     25.301
REMARK  6 active torsions:
REMARK  status: ('A' for Active; 'I' for Inactive)
REMARK    1  A    between atoms: O_1  and  C_14 
REMARK    2  A    between atoms: N_2  and  C_5 
REMARK    3  A    between atoms: C_3  and  C_4 
REMARK    4  A    between atoms: C_3  and  C_6 
REMARK    5  A    between atoms: C_3  and  C_7 
REMARK    6  A    between atoms: C_4  and  C_5 
ROOT
HETATM    1  C   UNK N   1      28.420  23.563  -5.895  0.00  0.00     0.024 C 
ENDROOT
BRANCH   1   2
HETATM    2  C   UNK N   1      27.073  24.041  -5.295  0.00  0.00     0.018 C 
HETATM    3  C   UNK N   1      25.888  23.375  -5.983  0.00  0.00     0.012 C 
BRANCH   2   4
HETATM    4  C   UNK N   1      26.916  25.556  -5.442  0.00  0.00     0.276 C 
BRANCH   4   5
HETATM    5  N   UNK N   1      25.762  26.051  -4.705  0.00  0.00     0.080 N 
HETATM    6  C   UNK N   1      26.282  26.796  -3.573  0.00  0.00     0.309 C 
HETATM    7  C   UNK N   1      25.061  27.012  -5.541  0.00  0.00     0.309 C 
ENDBRANCH   4   5
ENDBRANCH   2   4
ENDBRANCH   1   2
BRANCH   1   8
HETATM    8  C   UNK N   1      29.203  24.749  -6.462  0.00  0.00     0.005 C 
HETATM    9  C   UNK N   1      29.603  24.490  -7.903  0.00  0.00     0.006 C 
ENDBRANCH   1   8
BRANCH   1  10
HETATM   10  C   UNK N   1      29.328  22.798  -4.950  0.00  0.00    -0.051 A 
HETATM   11  C   UNK N   1      29.496  23.273  -3.637  0.00  0.00     0.044 A 
HETATM   12  C   UNK N   1      30.319  22.595  -2.735  0.00  0.00     0.066 A 
HETATM   13  C   UNK N   1      30.998  21.443  -3.137  0.00  0.00     0.036 A 
HETATM   14  C   UNK N   1      30.845  20.962  -4.440  0.00  0.00     0.003 A 
HETATM   15  C   UNK N   1      30.009  21.631  -5.340  0.00  0.00     0.007 A 
BRANCH  12  16
HETATM   16  O   UNK N   1      30.452  23.050  -1.478  0.00  0.00    -0.361 OA
HETATM   17  H   UNK N   1      30.915  22.554  -0.831  0.00  0.00     0.217 HD
ENDBRANCH  12  16
ENDBRANCH   1  10
TORSDOF 6
ENDMDL
MODEL 9
REMARK VINA RESULT:      -4.8     13.366     15.513
REMARK  6 active torsions:
REMARK  status: ('A' for Active; 'I' for Inactive)
REMARK    1  A    between atoms: O_1  and  C_14 
REMARK    2  A    between atoms: N_2  and  C_5 
REMARK    3  A    between atoms: C_3  and  C_4 
REMARK    4  A    between atoms: C_3  and  C_6 
REMARK    5  A    between atoms: C_3  and  C_7 
REMARK    6  A    between atoms: C_4  and  C_5 
ROOT
HETATM    1  C   UNK N   1      22.196  14.217   8.325  0.00  0.00     0.024 C 
ENDROOT
BRANCH   1   2
HETATM    2  C   UNK N   1      22.627  13.582   6.979  0.00  0.00     0.018 C 
HETATM    3  C   UNK N   1      22.736  14.629   5.877  0.00  0.00     0.012 C 
BRANCH   2   4
HETATM    4  C   UNK N   1      21.620  12.521   6.527  0.00  0.00     0.276 C 
BRANCH   4   5
HETATM    5  N   UNK N   1      22.134  11.174   6.726  0.00  0.00     0.080 N 
HETATM    6  C   UNK N   1      21.603  10.365   5.643  0.00  0.00     0.309 C 
HETATM    7  C   UNK N   1      23.576  11.200   6.549  0.00  0.00     0.309 C 
ENDBRANCH   4   5
ENDBRANCH   2   4
ENDBRANCH   1   2
BRANCH   1   8
HETATM    8  C   UNK N   1      20.717  14.609   8.281  0.00  0.00     0.005 C 
HETATM    9  C   UNK N   1      20.533  16.060   8.684  0.00  0.00     0.006 C 
ENDBRANCH   1   8
BRANCH   1  10
HETATM   10  C   UNK N   1      22.430  13.367   9.560  0.00  0.00    -0.051 A 
HETATM   11  C   UNK N   1      23.750  13.040   9.918  0.00  0.00     0.044 A 
HETATM   12  C   UNK N   1      24.009  12.264  11.050  0.00  0.00     0.066 A 
HETATM   13  C   UNK N   1      22.952  11.790  11.830  0.00  0.00     0.036 A 
HETATM   14  C   UNK N   1      21.634  12.102  11.482  0.00  0.00     0.003 A 
HETATM   15  C   UNK N   1      21.375  12.892  10.358  0.00  0.00     0.007 A 
BRANCH  12  16
HETATM   16  O   UNK N   1      25.276  11.978  11.390  0.00  0.00    -0.361 OA
HETATM   17  H   UNK N   1      25.764  12.545  11.954  0.00  0.00     0.217 HD
ENDBRANCH  12  16
ENDBRANCH   1  10
TORSDOF 6
ENDMDL
