MODEL 1
REMARK VINA RESULT:      -5.0      0.000      0.000
REMARK  4 active torsions:
REMARK  status: ('A' for Active; 'I' for Inactive)
REMARK    1  A    between atoms: C_3  and  C_7 
REMARK    2  A    between atoms: C_6  and  S_9 
REMARK    3  A    between atoms: C_7  and  N_8 
REMARK    4  A    between atoms: S_9  and  N_12 
ROOT
HETATM    1  C   UNK N   1      31.551  16.858   6.875  0.00  0.00     0.026 A 
HETATM    2  C   UNK N   1      30.156  16.829   6.956  0.00  0.00     0.010 A 
HETATM    3  C   UNK N   1      29.496  17.565   7.949  0.00  0.00    -0.041 A 
HETATM    4  C   UNK N   1      30.236  18.331   8.855  0.00  0.00     0.010 A 
HETATM    5  C   UNK N   1      31.632  18.358   8.775  0.00  0.00     0.026 A 
HETATM    6  C   UNK N   1      32.289  17.619   7.787  0.00  0.00     0.079 A 
ENDROOT
BRANCH   6   7
HETATM    7  S   UNK N   1      34.075  17.598   7.728  0.00  0.00     0.256 S 
HETATM    8  O   UNK N   1      34.726  18.874   8.283  0.00  0.00    -0.201 OA
HETATM    9  O   UNK N   1      34.607  17.559   6.288  0.00  0.00    -0.201 OA
BRANCH   7  10
HETATM   10  N   UNK N   1      34.900  16.268   8.542  0.00  0.00    -0.324 N 
HETATM   11  H   UNK N   1      34.362  15.527   8.989  0.00  0.00     0.169 HD
HETATM   12  H   UNK N   1      35.920  16.240   8.564  0.00  0.00     0.169 HD
ENDBRANCH   7  10
ENDBRANCH   6   7
BRANCH   3  13
HETATM   13  C   UNK N   1      28.011  17.507   8.070  0.00  0.00     0.150 C 
BRANCH  13  14
HETATM   14  N   UNK N   1      27.546  18.458   9.065  0.00  0.00    -0.426 N 
HETATM   15  H   UNK N   1      27.255  19.399   9.330  0.00  0.00     0.150 HD
HETATM   16  H   UNK N   1      27.477  17.916   9.926  0.00  0.00     0.150 HD
ENDBRANCH  13  14
ENDBRANCH   3  13
TORSDOF 4
ENDMDL
MODEL 2
REMARK VINA RESULT:      -4.9     10.377     11.189
REMARK  4 active torsions:
REMARK  status: ('A' for Active; 'I' for Inactive)
REMARK    1  A    between atoms: C_3  and  C_7 
REMARK    2  A    between atoms: C_6  and  S_9 
REMARK    3  A    between atoms: C_7  and  N_8 
REMARK    4  A    between atoms: S_9  and  N_12 
ROOT
HETATM    1  C   UNK N   1      35.501  13.884  16.686  0.00  0.00     0.026 A 
HETATM    2  C   UNK N   1      35.297  13.651  18.050  0.00  0.00     0.010 A 
HETATM    3  C   UNK N   1      35.332  12.344  18.551  0.00  0.00    -0.041 A 
HETATM    4  C   UNK N   1      35.574  11.273  17.685  0.00  0.00     0.010 A 
HETATM    5  C   UNK N   1      35.776  11.506  16.321  0.00  0.00     0.026 A 
HETATM    6  C   UNK N   1      35.736  12.811  15.821  0.00  0.00     0.079 A 
ENDROOT
BRANCH   6   7
HETATM    7  S   UNK N   1      35.924  13.102  14.068  0.00  0.00     0.256 S 
HETATM    8  O   UNK N   1      34.600  13.060  13.290  0.00  0.00    -0.201 OA
HETATM    9  O   UNK N   1      36.742  11.998  13.383  0.00  0.00    -0.201 OA
BRANCH   7  10
HETATM   10  N   UNK N   1      36.702  14.605  13.572  0.00  0.00    -0.324 N 
HETATM   11  H   UNK N   1      37.575  14.581  13.044  0.00  0.00     0.169 HD
HETATM   12  H   UNK N   1      36.278  15.501  13.813  0.00  0.00     0.169 HD
ENDBRANCH   7  10
ENDBRANCH   6   7
BRANCH   3  13
HETATM   13  C   UNK N   1      35.074  12.082  19.996  0.00  0.00     0.150 C 
BRANCH  13  14
HETATM   14  N   UNK N   1      34.552  13.274  20.642  0.00  0.00    -0.426 N 
HETATM   15  H   UNK N   1      33.889  13.729  21.269  0.00  0.00     0.150 HD
HETATM   16  H   UNK N   1      35.140  14.032  20.296  0.00  0.00     0.150 HD
ENDBRANCH  13  14
ENDBRANCH   3  13
TORSDOF 4
ENDMDL
MODEL 3
REMARK VINA RESULT:      -4.8     10.547     11.340
REMARK  4 active torsions:
REMARK  status: ('A' for Active; 'I' for Inactive)
REMARK    1  A    between atoms: C_3  and  C_7 
REMARK    2  A    between atoms: C_6  and  S_9 
REMARK    3  A    between atoms: C_7  and  N_8 
REMARK    4  A    between atoms: S_9  and  N_12 
ROOT
HETATM    1  C   UNK N   1      34.987  13.122  16.300  0.00  0.00     0.026 A 
HETATM    2  C   UNK N   1      35.076  13.172  17.694  0.00  0.00     0.010 A 
HETATM    3  C   UNK N   1      35.307  12.000  18.425  0.00  0.00    -0.041 A 
HETATM    4  C   UNK N   1      35.453  10.781  17.756  0.00  0.00     0.010 A 
HETATM    5  C   UNK N   1      35.362  10.731  16.361  0.00  0.00     0.026 A 
HETATM    6  C   UNK N   1      35.127  11.901  15.634  0.00  0.00     0.079 A 
ENDROOT
BRANCH   6   7
HETATM    7  S   UNK N   1      34.942  11.826  13.858  0.00  0.00     0.256 S 
HETATM    8  O   UNK N   1      36.239  11.470  13.116  0.00  0.00    -0.201 OA
HETATM    9  O   UNK N   1      34.584  13.192  13.255  0.00  0.00    -0.201 OA
BRANCH   7  10
HETATM   10  N   UNK N   1      33.725  10.724  13.213  0.00  0.00    -0.324 N 
HETATM   11  H   UNK N   1      33.858   9.715  13.282  0.00  0.00     0.169 HD
HETATM   12  H   UNK N   1      32.885  11.097  12.770  0.00  0.00     0.169 HD
ENDBRANCH   7  10
ENDBRANCH   6   7
BRANCH   3  13
HETATM   13  C   UNK N   1      35.360  12.037  19.915  0.00  0.00     0.150 C 
BRANCH  13  14
HETATM   14  N   UNK N   1      34.769  13.267  20.413  0.00  0.00    -0.426 N 
HETATM   15  H   UNK N   1      33.971  13.895  20.514  0.00  0.00     0.150 HD
HETATM   16  H   UNK N   1      35.529  13.736  20.906  0.00  0.00     0.150 HD
ENDBRANCH  13  14
ENDBRANCH   3  13
TORSDOF 4
ENDMDL
MODEL 4
REMARK VINA RESULT:      -4.8      4.139      5.643
REMARK  4 active torsions:
REMARK  status: ('A' for Active; 'I' for Inactive)
REMARK    1  A    between atoms: C_3  and  C_7 
REMARK    2  A    between atoms: C_6  and  S_9 
REMARK    3  A    between atoms: C_7  and  N_8 
REMARK    4  A    between atoms: S_9  and  N_12 
ROOT
HETATM    1  C   UNK N   1      34.125  15.303   9.229  0.00  0.00     0.026 A 
HETATM    2  C   UNK N   1      34.415  14.273  10.129  0.00  0.00     0.010 A 
HETATM    3  C   UNK N   1      35.209  14.527  11.254  0.00  0.00    -0.041 A 
HETATM    4  C   UNK N   1      35.707  15.814  11.477  0.00  0.00     0.010 A 
HETATM    5  C   UNK N   1      35.419  16.844  10.576  0.00  0.00     0.026 A 
HETATM    6  C   UNK N   1      34.630  16.588   9.451  0.00  0.00     0.079 A 
ENDROOT
BRANCH   6   7
HETATM    7  S   UNK N   1      34.319  17.886   8.263  0.00  0.00     0.256 S 
HETATM    8  O   UNK N   1      34.685  17.504   6.821  0.00  0.00    -0.201 OA
HETATM    9  O   UNK N   1      35.202  19.119   8.509  0.00  0.00    -0.201 OA
BRANCH   7  10
HETATM   10  N   UNK N   1      32.679  18.527   8.168  0.00  0.00    -0.324 N 
HETATM   11  H   UNK N   1      32.352  19.205   8.856  0.00  0.00     0.169 HD
HETATM   12  H   UNK N   1      32.055  18.219   7.422  0.00  0.00     0.169 HD
ENDBRANCH   7  10
ENDBRANCH   6   7
BRANCH   3  13
HETATM   13  C   UNK N   1      35.559  13.425  12.196  0.00  0.00     0.150 C 
BRANCH  13  14
HETATM   14  N   UNK N   1      34.497  12.434  12.232  0.00  0.00    -0.426 N 
HETATM   15  H   UNK N   1      33.599  12.103  12.584  0.00  0.00     0.150 HD
HETATM   16  H   UNK N   1      34.802  11.708  11.583  0.00  0.00     0.150 HD
ENDBRANCH  13  14
ENDBRANCH   3  13
TORSDOF 4
ENDMDL
MODEL 5
REMARK VINA RESULT:      -4.7      9.238     10.803
REMARK  4 active torsions:
REMARK  status: ('A' for Active; 'I' for Inactive)
REMARK    1  A    between atoms: C_3  and  C_7 
REMARK    2  A    between atoms: C_6  and  S_9 
REMARK    3  A    between atoms: C_7  and  N_8 
REMARK    4  A    between atoms: S_9  and  N_12 
ROOT
HETATM    1  C   UNK N   1      22.899  18.672   4.029  0.00  0.00     0.026 A 
HETATM    2  C   UNK N   1      24.176  18.298   4.457  0.00  0.00     0.010 A 
HETATM    3  C   UNK N   1      25.290  19.068   4.097  0.00  0.00    -0.041 A 
HETATM    4  C   UNK N   1      25.120  20.213   3.313  0.00  0.00     0.010 A 
HETATM    5  C   UNK N   1      23.842  20.586   2.884  0.00  0.00     0.026 A 
HETATM    6  C   UNK N   1      22.732  19.814   3.240  0.00  0.00     0.079 A 
ENDROOT
BRANCH   6   7
HETATM    7  S   UNK N   1      21.109  20.252   2.634  0.00  0.00     0.256 S 
HETATM    8  O   UNK N   1      21.119  21.407   1.622  0.00  0.00    -0.201 OA
HETATM    9  O   UNK N   1      20.203  20.798   3.747  0.00  0.00    -0.201 OA
BRANCH   7  10
HETATM   10  N   UNK N   1      20.156  18.979   1.871  0.00  0.00    -0.324 N 
HETATM   11  H   UNK N   1      20.256  18.010   2.174  0.00  0.00     0.169 HD
HETATM   12  H   UNK N   1      19.501  19.212   1.123  0.00  0.00     0.169 HD
ENDBRANCH   7  10
ENDBRANCH   6   7
BRANCH   3  13
HETATM   13  C   UNK N   1      26.661  18.653   4.512  0.00  0.00     0.150 C 
BRANCH  13  14
HETATM   14  N   UNK N   1      26.643  18.135   5.870  0.00  0.00    -0.426 N 
HETATM   15  H   UNK N   1      26.329  17.451   6.558  0.00  0.00     0.150 HD
HETATM   16  H   UNK N   1      27.245  18.770   6.394  0.00  0.00     0.150 HD
ENDBRANCH  13  14
ENDBRANCH   3  13
TORSDOF 4
ENDMDL
MODEL 6
REMARK VINA RESULT:      -4.5      3.627      5.193
REMARK  4 active torsions:
REMARK  status: ('A' for Active; 'I' for Inactive)
REMARK    1  A    between atoms: C_3  and  C_7 
REMARK    2  A    between atoms: C_6  and  S_9 
REMARK    3  A    between atoms: C_7  and  N_8 
REMARK    4  A    between atoms: S_9  and  N_12 
ROOT
HETATM    1  C   UNK N   1      30.492  17.117   6.762  0.00  0.00     0.026 A 
HETATM    2  C   UNK N   1      31.881  17.076   6.604  0.00  0.00     0.010 A 
HETATM    3  C   UNK N   1      32.714  17.639   7.578  0.00  0.00    -0.041 A 
HETATM    4  C   UNK N   1      32.154  18.238   8.711  0.00  0.00     0.010 A 
HETATM    5  C   UNK N   1      30.765  18.281   8.868  0.00  0.00     0.026 A 
HETATM    6  C   UNK N   1      29.934  17.722   7.892  0.00  0.00     0.079 A 
ENDROOT
BRANCH   6   7
HETATM    7  S   UNK N   1      28.159  17.838   8.058  0.00  0.00     0.256 S 
HETATM    8  O   UNK N   1      27.615  19.265   7.889  0.00  0.00    -0.201 OA
HETATM    9  O   UNK N   1      27.685  17.472   9.471  0.00  0.00    -0.201 OA
BRANCH   7  10
HETATM   10  N   UNK N   1      27.175  16.841   6.987  0.00  0.00    -0.324 N 
HETATM   11  H   UNK N   1      26.506  17.275   6.351  0.00  0.00     0.169 HD
HETATM   12  H   UNK N   1      27.276  15.825   7.003  0.00  0.00     0.169 HD
ENDBRANCH   7  10
ENDBRANCH   6   7
BRANCH   3  13
HETATM   13  C   UNK N   1      34.195  17.638   7.399  0.00  0.00     0.150 C 
BRANCH  13  14
HETATM   14  N   UNK N   1      34.822  18.525   8.363  0.00  0.00    -0.426 N 
HETATM   15  H   UNK N   1      35.033  18.788   9.326  0.00  0.00     0.150 HD
HETATM   16  H   UNK N   1      35.280  19.239   7.795  0.00  0.00     0.150 HD
ENDBRANCH  13  14
ENDBRANCH   3  13
TORSDOF 4
ENDMDL
MODEL 7
REMARK VINA RESULT:      -4.5      1.868      2.116
REMARK  4 active torsions:
REMARK  status: ('A' for Active; 'I' for Inactive)
REMARK    1  A    between atoms: C_3  and  C_7 
REMARK    2  A    between atoms: C_6  and  S_9 
REMARK    3  A    between atoms: C_7  and  N_8 
REMARK    4  A    between atoms: S_9  and  N_12 
ROOT
HETATM    1  C   UNK N   1      30.487  17.092   6.270  0.00  0.00     0.026 A 
HETATM    2  C   UNK N   1      29.513  17.424   7.216  0.00  0.00     0.010 A 
HETATM    3  C   UNK N   1      29.894  17.884   8.483  0.00  0.00    -0.041 A 
HETATM    4  C   UNK N   1      31.250  18.013   8.798  0.00  0.00     0.010 A 
HETATM    5  C   UNK N   1      32.224  17.679   7.851  0.00  0.00     0.026 A 
HETATM    6  C   UNK N   1      31.843  17.216   6.589  0.00  0.00     0.079 A 
ENDROOT
BRANCH   6   7
HETATM    7  S   UNK N   1      33.087  16.723   5.405  0.00  0.00     0.256 S 
HETATM    8  O   UNK N   1      34.526  16.878   5.921  0.00  0.00    -0.201 OA
HETATM    9  O   UNK N   1      33.087  17.619   4.158  0.00  0.00    -0.201 OA
BRANCH   7  10
HETATM   10  N   UNK N   1      33.000  15.079   4.771  0.00  0.00    -0.324 N 
HETATM   11  H   UNK N   1      33.243  14.891   3.798  0.00  0.00     0.169 HD
HETATM   12  H   UNK N   1      32.706  14.314   5.379  0.00  0.00     0.169 HD
ENDBRANCH   7  10
ENDBRANCH   6   7
BRANCH   3  13
HETATM   13  C   UNK N   1      28.863  18.200   9.513  0.00  0.00     0.150 C 
BRANCH  13  14
HETATM   14  N   UNK N   1      27.627  18.624   8.879  0.00  0.00    -0.426 N 
HETATM   15  H   UNK N   1      26.985  19.359   8.581  0.00  0.00     0.150 HD
HETATM   16  H   UNK N   1      27.178  17.756   8.584  0.00  0.00     0.150 HD
ENDBRANCH  13  14
ENDBRANCH   3  13
TORSDOF 4
ENDMDL
MODEL 8
REMARK VINA RESULT:      -4.2     11.771     12.615
REMARK  4 active torsions:
REMARK  status: ('A' for Active; 'I' for Inactive)
REMARK    1  A    between atoms: C_3  and  C_7 
REMARK    2  A    between atoms: C_6  and  S_9 
REMARK    3  A    between atoms: C_7  and  N_8 
REMARK    4  A    between atoms: S_9  and  N_12 
ROOT
HETATM    1  C   UNK N   1      36.204  10.665  16.731  0.00  0.00     0.026 A 
HETATM    2  C   UNK N   1      36.474  11.493  15.637  0.00  0.00     0.010 A 
HETATM    3  C   UNK N   1      36.083  12.838  15.662  0.00  0.00    -0.041 A 
HETATM    4  C   UNK N   1      35.426  13.351  16.785  0.00  0.00     0.010 A 
HETATM    5  C   UNK N   1      35.155  12.522  17.878  0.00  0.00     0.026 A 
HETATM    6  C   UNK N   1      35.541  11.179  17.850  0.00  0.00     0.079 A 
ENDROOT
BRANCH   6   7
HETATM    7  S   UNK N   1      35.132  10.103  19.217  0.00  0.00     0.256 S 
HETATM    8  O   UNK N   1      36.158   8.983  19.450  0.00  0.00    -0.201 OA
HETATM    9  O   UNK N   1      33.838   9.315  18.966  0.00  0.00    -0.201 OA
BRANCH   7  10
HETATM   10  N   UNK N   1      34.898  10.850  20.797  0.00  0.00    -0.324 N 
HETATM   11  H   UNK N   1      34.607  11.825  20.867  0.00  0.00     0.169 HD
HETATM   12  H   UNK N   1      35.055  10.304  21.646  0.00  0.00     0.169 HD
ENDBRANCH   7  10
ENDBRANCH   6   7
BRANCH   3  13
HETATM   13  C   UNK N   1      36.328  13.718  14.483  0.00  0.00     0.150 C 
BRANCH  13  14
HETATM   14  N   UNK N   1      37.158  14.849  14.860  0.00  0.00    -0.426 N 
HETATM   15  H   UNK N   1      37.980  15.437  14.719  0.00  0.00     0.150 HD
HETATM   16  H   UNK N   1      36.684  15.260  15.664  0.00  0.00     0.150 HD
ENDBRANCH  13  14
ENDBRANCH   3  13
TORSDOF 4
ENDMDL
MODEL 9
REMARK VINA RESULT:      -4.2      8.708      9.557
REMARK  4 active torsions:
REMARK  status: ('A' for Active; 'I' for Inactive)
REMARK    1  A    between atoms: C_3  and  C_7 
REMARK    2  A    between atoms: C_6  and  S_9 
REMARK    3  A    between atoms: C_7  and  N_8 
REMARK    4  A    between atoms: S_9  and  N_12 
ROOT
HETATM    1  C   UNK N   1      34.573  12.182  14.428  0.00  0.00     0.026 A 
HETATM    2  C   UNK N   1      34.447  12.240  15.819  0.00  0.00     0.010 A 
HETATM    3  C   UNK N   1      35.280  13.083  16.564  0.00  0.00    -0.041 A 
HETATM    4  C   UNK N   1      36.235  13.871  15.913  0.00  0.00     0.010 A 
HETATM    5  C   UNK N   1      36.362  13.812  14.521  0.00  0.00     0.026 A 
HETATM    6  C   UNK N   1      35.532  12.966  13.779  0.00  0.00     0.079 A 
ENDROOT
BRANCH   6   7
HETATM    7  S   UNK N   1      35.742  12.838  12.009  0.00  0.00     0.256 S 
HETATM    8  O   UNK N   1      36.042  11.412  11.524  0.00  0.00    -0.201 OA
HETATM    9  O   UNK N   1      36.968  13.618  11.514  0.00  0.00    -0.201 OA
BRANCH   7  10
HETATM   10  N   UNK N   1      34.417  13.402  10.990  0.00  0.00    -0.324 N 
HETATM   11  H   UNK N   1      33.663  12.766  10.730  0.00  0.00     0.169 HD
HETATM   12  H   UNK N   1      34.404  14.367  10.661  0.00  0.00     0.169 HD
ENDBRANCH   7  10
ENDBRANCH   6   7
BRANCH   3  13
HETATM   13  C   UNK N   1      35.182  13.120  18.052  0.00  0.00     0.150 C 
BRANCH  13  14
HETATM   14  N   UNK N   1      35.403  14.470  18.541  0.00  0.00    -0.426 N 
HETATM   15  H   UNK N   1      35.427  15.479  18.391  0.00  0.00     0.150 HD
HETATM   16  H   UNK N   1      35.661  14.350  19.520  0.00  0.00     0.150 HD
ENDBRANCH  13  14
ENDBRANCH   3  13
TORSDOF 4
ENDMDL
