MODEL 1
REMARK VINA RESULT:      -6.6      0.000      0.000
REMARK  4 active torsions:
REMARK  status: ('A' for Active; 'I' for Inactive)
REMARK    1  A    between atoms: C_5  and  C_9 
REMARK    2  A    between atoms: N_8  and  C_9 
REMARK    3  A    between atoms: C_13  and  N_19 
REMARK    4  A    between atoms: C_23  and  N_25 
ROOT
HETATM    1  C   UNK N   1      24.038  11.632   9.199  0.00  0.00     0.023 C 
HETATM    2  C   UNK N   1      23.937  12.121  10.500  0.00  0.00     0.002 C 
HETATM    3  C   UNK N   1      22.744  12.687  10.938  0.00  0.00     0.001 C 
HETATM    4  C   UNK N   1      21.738  12.935  10.027  0.00  0.00     0.010 C 
HETATM    5  C   UNK N   1      21.905  12.629   8.687  0.00  0.00    -0.019 C 
HETATM    6  C   UNK N   1      23.011  11.843   8.287  0.00  0.00     0.052 C 
HETATM    7  C   UNK N   1      23.133  11.210   6.991  0.00  0.00     0.100 C 
HETATM    8  N   UNK N   1      23.298  10.676   5.977  0.00  0.00    -0.191 NA
ENDROOT
BRANCH   5   9
HETATM    9  C   UNK N   1      21.051  13.272   7.661  0.00  0.00     0.175 C 
BRANCH   9  10
HETATM   10  N   UNK N   1      20.791  14.735   7.604  0.00  0.00    -0.281 N 
HETATM   11  C   UNK N   1      19.893  15.450   8.425  0.00  0.00     0.333 A 
HETATM   12  N   UNK N   1      19.824  16.823   8.358  0.00  0.00    -0.271 N 
HETATM   13  O   UNK N   1      19.187  14.886   9.239  0.00  0.00    -0.246 OA
HETATM   14  C   UNK N   1      20.693  17.517   7.563  0.00  0.00     0.254 A 
HETATM   15  C   UNK N   1      18.850  17.549   9.176  0.00  0.00     0.164 C 
HETATM   16  C   UNK N   1      21.599  16.837   6.774  0.00  0.00     0.123 A 
HETATM   17  O   UNK N   1      20.687  18.735   7.555  0.00  0.00    -0.268 OA
HETATM   18  C   UNK N   1      21.631  15.440   6.768  0.00  0.00     0.115 A 
BRANCH  18  19
HETATM   19  N   UNK N   1      22.590  14.783   5.911  0.00  0.00    -0.365 N 
HETATM   20  C   UNK N   1      22.127  14.129   4.700  0.00  0.00     0.124 C 
HETATM   21  C   UNK N   1      23.270  13.566   3.840  0.00  0.00     0.022 C 
HETATM   22  C   UNK N   1      24.571  14.396   3.827  0.00  0.00     0.028 C 
HETATM   23  C   UNK N   1      24.794  15.266   5.061  0.00  0.00     0.092 C 
HETATM   24  C   UNK N   1      24.006  14.716   6.229  0.00  0.00     0.149 C 
BRANCH  23  25
HETATM   25  N   UNK N   1      26.207  15.275   5.388  0.00  0.00    -0.424 N 
HETATM   26  H   UNK N   1      26.613  14.968   6.271  0.00  0.00     0.150 HD
HETATM   27  H   UNK N   1      26.848  15.619   4.673  0.00  0.00     0.150 HD
ENDBRANCH  23  25
ENDBRANCH  18  19
ENDBRANCH   9  10
ENDBRANCH   5   9
TORSDOF 4
ENDMDL
MODEL 2
REMARK VINA RESULT:      -6.6     15.903     18.018
REMARK  4 active torsions:
REMARK  status: ('A' for Active; 'I' for Inactive)
REMARK    1  A    between atoms: C_5  and  C_9 
REMARK    2  A    between atoms: N_8  and  C_9 
REMARK    3  A    between atoms: C_13  and  N_19 
REMARK    4  A    between atoms: C_23  and  N_25 
ROOT
HETATM    1  C   UNK N   1      31.167  22.479  -3.238  0.00  0.00     0.023 C 
HETATM    2  C   UNK N   1      30.392  22.751  -2.112  0.00  0.00     0.002 C 
HETATM    3  C   UNK N   1      29.079  23.184  -2.262  0.00  0.00     0.001 C 
HETATM    4  C   UNK N   1      28.617  23.525  -3.517  0.00  0.00     0.010 C 
HETATM    5  C   UNK N   1      29.446  23.443  -4.623  0.00  0.00    -0.019 C 
HETATM    6  C   UNK N   1      30.692  22.782  -4.509  0.00  0.00     0.052 C 
HETATM    7  C   UNK N   1      31.499  22.369  -5.636  0.00  0.00     0.100 C 
HETATM    8  N   UNK N   1      32.196  22.010  -6.489  0.00  0.00    -0.191 NA
ENDROOT
BRANCH   5   9
HETATM    9  C   UNK N   1      29.125  24.198  -5.855  0.00  0.00     0.175 C 
BRANCH   9  10
HETATM   10  N   UNK N   1      27.949  23.907  -6.719  0.00  0.00    -0.281 N 
HETATM   11  C   UNK N   1      27.665  22.675  -7.344  0.00  0.00     0.333 A 
HETATM   12  N   UNK N   1      26.482  22.491  -8.024  0.00  0.00    -0.271 N 
HETATM   13  O   UNK N   1      28.428  21.731  -7.267  0.00  0.00    -0.246 OA
HETATM   14  C   UNK N   1      25.528  23.469  -8.020  0.00  0.00     0.254 A 
HETATM   15  C   UNK N   1      26.223  21.225  -8.713  0.00  0.00     0.164 C 
HETATM   16  C   UNK N   1      25.775  24.672  -7.390  0.00  0.00     0.123 A 
HETATM   17  O   UNK N   1      24.450  23.284  -8.557  0.00  0.00    -0.268 OA
HETATM   18  C   UNK N   1      27.001  24.908  -6.761  0.00  0.00     0.115 A 
BRANCH  18  19
HETATM   19  N   UNK N   1      27.210  26.190  -6.131  0.00  0.00    -0.365 N 
HETATM   20  C   UNK N   1      27.725  27.293  -6.922  0.00  0.00     0.124 C 
HETATM   21  C   UNK N   1      27.795  28.617  -6.143  0.00  0.00     0.022 C 
HETATM   22  C   UNK N   1      26.663  28.855  -5.121  0.00  0.00     0.028 C 
HETATM   23  C   UNK N   1      26.011  27.588  -4.575  0.00  0.00     0.092 C 
HETATM   24  C   UNK N   1      26.957  26.417  -4.718  0.00  0.00     0.149 C 
BRANCH  23  25
HETATM   25  N   UNK N   1      25.689  27.785  -3.174  0.00  0.00    -0.424 N 
HETATM   26  H   UNK N   1      26.077  28.510  -2.573  0.00  0.00     0.150 HD
HETATM   27  H   UNK N   1      25.016  27.142  -2.757  0.00  0.00     0.150 HD
ENDBRANCH  23  25
ENDBRANCH  18  19
ENDBRANCH   9  10
ENDBRANCH   5   9
TORSDOF 4
ENDMDL
MODEL 3
REMARK VINA RESULT:      -6.6     15.959     18.145
REMARK  4 active torsions:
REMARK  status: ('A' for Active; 'I' for Inactive)
REMARK    1  A    between atoms: C_5  and  C_9 
REMARK    2  A    between atoms: N_8  and  C_9 
REMARK    3  A    between atoms: C_13  and  N_19 
REMARK    4  A    between atoms: C_23  and  N_25 
ROOT
HETATM    1  C   UNK N   1      29.835  22.789  -3.471  0.00  0.00     0.023 C 
HETATM    2  C   UNK N   1      31.174  22.636  -3.827  0.00  0.00     0.002 C 
HETATM    3  C   UNK N   1      31.877  23.711  -4.359  0.00  0.00     0.001 C 
HETATM    4  C   UNK N   1      31.197  24.860  -4.707  0.00  0.00     0.010 C 
HETATM    5  C   UNK N   1      29.826  24.950  -4.536  0.00  0.00    -0.019 C 
HETATM    6  C   UNK N   1      29.154  23.960  -3.783  0.00  0.00     0.052 C 
HETATM    7  C   UNK N   1      27.803  24.096  -3.282  0.00  0.00     0.100 C 
HETATM    8  N   UNK N   1      26.728  24.135  -2.852  0.00  0.00    -0.191 NA
ENDROOT
BRANCH   5   9
HETATM    9  C   UNK N   1      29.044  25.959  -5.287  0.00  0.00     0.175 C 
BRANCH   9  10
HETATM   10  N   UNK N   1      28.310  27.081  -4.643  0.00  0.00    -0.281 N 
HETATM   11  C   UNK N   1      28.820  27.943  -3.649  0.00  0.00     0.333 A 
HETATM   12  N   UNK N   1      28.085  29.022  -3.212  0.00  0.00    -0.271 N 
HETATM   13  O   UNK N   1      29.931  27.786  -3.179  0.00  0.00    -0.246 OA
HETATM   14  C   UNK N   1      26.893  29.326  -3.806  0.00  0.00     0.254 A 
HETATM   15  C   UNK N   1      28.603  29.876  -2.142  0.00  0.00     0.164 C 
HETATM   16  C   UNK N   1      26.390  28.513  -4.802  0.00  0.00     0.123 A 
HETATM   17  O   UNK N   1      26.272  30.322  -3.476  0.00  0.00    -0.268 OA
HETATM   18  C   UNK N   1      27.083  27.368  -5.204  0.00  0.00     0.115 A 
BRANCH  18  19
HETATM   19  N   UNK N   1      26.502  26.545  -6.239  0.00  0.00    -0.365 N 
HETATM   20  C   UNK N   1      26.809  26.832  -7.629  0.00  0.00     0.124 C 
HETATM   21  C   UNK N   1      26.203  25.811  -8.606  0.00  0.00     0.022 C 
HETATM   22  C   UNK N   1      26.152  24.352  -8.106  0.00  0.00     0.028 C 
HETATM   23  C   UNK N   1      26.116  24.191  -6.589  0.00  0.00     0.092 C 
HETATM   24  C   UNK N   1      25.586  25.455  -5.948  0.00  0.00     0.149 C 
BRANCH  23  25
HETATM   25  N   UNK N   1      25.254  23.075  -6.249  0.00  0.00    -0.424 N 
HETATM   26  H   UNK N   1      25.211  22.186  -6.746  0.00  0.00     0.150 HD
HETATM   27  H   UNK N   1      24.639  23.191  -5.444  0.00  0.00     0.150 HD
ENDBRANCH  23  25
ENDBRANCH  18  19
ENDBRANCH   9  10
ENDBRANCH   5   9
TORSDOF 4
ENDMDL
MODEL 4
REMARK VINA RESULT:      -6.6     15.815     17.783
REMARK  4 active torsions:
REMARK  status: ('A' for Active; 'I' for Inactive)
REMARK    1  A    between atoms: C_5  and  C_9 
REMARK    2  A    between atoms: N_8  and  C_9 
REMARK    3  A    between atoms: C_13  and  N_19 
REMARK    4  A    between atoms: C_23  and  N_25 
ROOT
HETATM    1  C   UNK N   1      26.498  21.044  -8.525  0.00  0.00     0.023 C 
HETATM    2  C   UNK N   1      25.318  20.896  -7.797  0.00  0.00     0.002 C 
HETATM    3  C   UNK N   1      24.938  21.876  -6.886  0.00  0.00     0.001 C 
HETATM    4  C   UNK N   1      25.822  22.888  -6.571  0.00  0.00     0.010 C 
HETATM    5  C   UNK N   1      27.080  22.934  -7.149  0.00  0.00    -0.019 C 
HETATM    6  C   UNK N   1      27.374  22.085  -8.241  0.00  0.00     0.052 C 
HETATM    7  C   UNK N   1      28.519  22.245  -9.110  0.00  0.00     0.100 C 
HETATM    8  N   UNK N   1      29.413  22.312  -9.845  0.00  0.00    -0.191 NA
ENDROOT
BRANCH   5   9
HETATM    9  C   UNK N   1      28.164  23.720  -6.516  0.00  0.00     0.175 C 
BRANCH   9  10
HETATM   10  N   UNK N   1      28.822  23.337  -5.238  0.00  0.00    -0.281 N 
HETATM   11  C   UNK N   1      29.650  22.213  -5.036  0.00  0.00     0.333 A 
HETATM   12  N   UNK N   1      30.300  22.027  -3.837  0.00  0.00    -0.271 N 
HETATM   13  O   UNK N   1      29.849  21.401  -5.920  0.00  0.00    -0.246 OA
HETATM   14  C   UNK N   1      30.226  22.980  -2.861  0.00  0.00     0.254 A 
HETATM   15  C   UNK N   1      31.114  20.829  -3.622  0.00  0.00     0.164 C 
HETATM   16  C   UNK N   1      29.445  24.102  -3.050  0.00  0.00     0.123 A 
HETATM   17  O   UNK N   1      30.858  22.858  -1.826  0.00  0.00    -0.268 OA
HETATM   18  C   UNK N   1      28.714  24.271  -4.229  0.00  0.00     0.115 A 
BRANCH  18  19
HETATM   19  N   UNK N   1      27.901  25.457  -4.365  0.00  0.00    -0.365 N 
HETATM   20  C   UNK N   1      26.511  25.415  -3.948  0.00  0.00     0.124 C 
HETATM   21  C   UNK N   1      25.805  26.777  -4.055  0.00  0.00     0.022 C 
HETATM   22  C   UNK N   1      26.675  28.011  -3.738  0.00  0.00     0.028 C 
HETATM   23  C   UNK N   1      28.173  27.818  -3.959  0.00  0.00     0.092 C 
HETATM   24  C   UNK N   1      28.409  26.691  -4.940  0.00  0.00     0.149 C 
BRANCH  23  25
HETATM   25  N   UNK N   1      28.739  29.046  -4.484  0.00  0.00    -0.424 N 
HETATM   26  H   UNK N   1      28.247  29.725  -5.063  0.00  0.00     0.150 HD
HETATM   27  H   UNK N   1      29.712  29.246  -4.253  0.00  0.00     0.150 HD
ENDBRANCH  23  25
ENDBRANCH  18  19
ENDBRANCH   9  10
ENDBRANCH   5   9
TORSDOF 4
ENDMDL
MODEL 5
REMARK VINA RESULT:      -6.5      4.047      6.739
REMARK  4 active torsions:
REMARK  status: ('A' for Active; 'I' for Inactive)
REMARK    1  A    between atoms: C_5  and  C_9 
REMARK    2  A    between atoms: N_8  and  C_9 
REMARK    3  A    between atoms: C_13  and  N_19 
REMARK    4  A    between atoms: C_23  and  N_25 
ROOT
HETATM    1  C   UNK N   1      21.248  12.855   0.526  0.00  0.00     0.023 C 
HETATM    2  C   UNK N   1      22.583  13.187   0.302  0.00  0.00     0.002 C 
HETATM    3  C   UNK N   1      23.203  14.145   1.097  0.00  0.00     0.001 C 
HETATM    4  C   UNK N   1      22.443  14.893   1.973  0.00  0.00     0.010 C 
HETATM    5  C   UNK N   1      21.075  14.703   2.063  0.00  0.00    -0.019 C 
HETATM    6  C   UNK N   1      20.487  13.579   1.436  0.00  0.00     0.052 C 
HETATM    7  C   UNK N   1      19.145  13.108   1.703  0.00  0.00     0.100 C 
HETATM    8  N   UNK N   1      18.083  12.676   1.867  0.00  0.00    -0.191 NA
ENDROOT
BRANCH   5   9
HETATM    9  C   UNK N   1      20.210  15.757   2.642  0.00  0.00     0.175 C 
BRANCH   9  10
HETATM   10  N   UNK N   1      20.593  17.193   2.710  0.00  0.00    -0.281 N 
HETATM   11  C   UNK N   1      20.529  18.119   1.647  0.00  0.00     0.333 A 
HETATM   12  N   UNK N   1      20.799  19.452   1.862  0.00  0.00    -0.271 N 
HETATM   13  O   UNK N   1      20.196  17.781   0.527  0.00  0.00    -0.246 OA
HETATM   14  C   UNK N   1      21.038  19.909   3.128  0.00  0.00     0.254 A 
HETATM   15  C   UNK N   1      20.781  20.393   0.741  0.00  0.00     0.164 C 
HETATM   16  C   UNK N   1      21.077  19.023   4.186  0.00  0.00     0.123 A 
HETATM   17  O   UNK N   1      21.204  21.098   3.336  0.00  0.00    -0.268 OA
HETATM   18  C   UNK N   1      20.884  17.655   3.976  0.00  0.00     0.115 A 
BRANCH  18  19
HETATM   19  N   UNK N   1      20.951  16.773   5.118  0.00  0.00    -0.365 N 
HETATM   20  C   UNK N   1      22.212  16.133   5.447  0.00  0.00     0.124 C 
HETATM   21  C   UNK N   1      22.154  15.309   6.744  0.00  0.00     0.022 C 
HETATM   22  C   UNK N   1      21.258  15.882   7.862  0.00  0.00     0.028 C 
HETATM   23  C   UNK N   1      20.122  16.780   7.382  0.00  0.00     0.092 C 
HETATM   24  C   UNK N   1      19.791  16.469   5.939  0.00  0.00     0.149 C 
BRANCH  23  25
HETATM   25  N   UNK N   1      18.952  16.552   8.209  0.00  0.00    -0.424 N 
HETATM   26  H   UNK N   1      18.189  17.212   8.352  0.00  0.00     0.150 HD
HETATM   27  H   UNK N   1      18.889  15.654   8.687  0.00  0.00     0.150 HD
ENDBRANCH  23  25
ENDBRANCH  18  19
ENDBRANCH   9  10
ENDBRANCH   5   9
TORSDOF 4
ENDMDL
MODEL 6
REMARK VINA RESULT:      -6.5      3.657      5.360
REMARK  4 active torsions:
REMARK  status: ('A' for Active; 'I' for Inactive)
REMARK    1  A    between atoms: C_5  and  C_9 
REMARK    2  A    between atoms: N_8  and  C_9 
REMARK    3  A    between atoms: C_13  and  N_19 
REMARK    4  A    between atoms: C_23  and  N_25 
ROOT
HETATM    1  C   UNK N   1      20.854  14.555   9.240  0.00  0.00     0.023 C 
HETATM    2  C   UNK N   1      21.975  13.767   8.984  0.00  0.00     0.002 C 
HETATM    3  C   UNK N   1      22.827  14.093   7.934  0.00  0.00     0.001 C 
HETATM    4  C   UNK N   1      22.455  15.075   7.040  0.00  0.00     0.010 C 
HETATM    5  C   UNK N   1      21.245  15.734   7.176  0.00  0.00    -0.019 C 
HETATM    6  C   UNK N   1      20.496  15.573   8.364  0.00  0.00     0.052 C 
HETATM    7  C   UNK N   1      19.391  16.424   8.752  0.00  0.00     0.100 C 
HETATM    8  N   UNK N   1      18.499  17.062   9.124  0.00  0.00    -0.191 NA
ENDROOT
BRANCH   5   9
HETATM    9  C   UNK N   1      20.648  16.445   6.021  0.00  0.00     0.175 C 
BRANCH   9  10
HETATM   10  N   UNK N   1      20.417  15.815   4.694  0.00  0.00    -0.281 N 
HETATM   11  C   UNK N   1      19.664  14.646   4.451  0.00  0.00     0.333 A 
HETATM   12  N   UNK N   1      19.422  14.224   3.163  0.00  0.00    -0.271 N 
HETATM   13  O   UNK N   1      19.174  14.003   5.360  0.00  0.00    -0.246 OA
HETATM   14  C   UNK N   1      19.828  14.985   2.103  0.00  0.00     0.254 A 
HETATM   15  C   UNK N   1      18.686  12.981   2.926  0.00  0.00     0.164 C 
HETATM   16  C   UNK N   1      20.540  16.147   2.320  0.00  0.00     0.123 A 
HETATM   17  O   UNK N   1      19.552  14.656   0.962  0.00  0.00    -0.268 OA
HETATM   18  C   UNK N   1      20.865  16.552   3.618  0.00  0.00     0.115 A 
BRANCH  18  19
HETATM   19  N   UNK N   1      21.626  17.768   3.784  0.00  0.00    -0.365 N 
HETATM   20  C   UNK N   1      23.058  17.684   4.002  0.00  0.00     0.124 C 
HETATM   21  C   UNK N   1      23.745  19.059   4.056  0.00  0.00     0.022 C 
HETATM   22  C   UNK N   1      23.163  20.136   3.117  0.00  0.00     0.028 C 
HETATM   23  C   UNK N   1      21.698  19.940   2.739  0.00  0.00     0.092 C 
HETATM   24  C   UNK N   1      21.007  19.083   3.777  0.00  0.00     0.149 C 
BRANCH  23  25
HETATM   25  N   UNK N   1      21.047  21.234   2.666  0.00  0.00    -0.424 N 
HETATM   26  H   UNK N   1      20.045  21.389   2.564  0.00  0.00     0.150 HD
HETATM   27  H   UNK N   1      21.645  22.059   2.723  0.00  0.00     0.150 HD
ENDBRANCH  23  25
ENDBRANCH  18  19
ENDBRANCH   9  10
ENDBRANCH   5   9
TORSDOF 4
ENDMDL
MODEL 7
REMARK VINA RESULT:      -6.4      6.853      9.568
REMARK  4 active torsions:
REMARK  status: ('A' for Active; 'I' for Inactive)
REMARK    1  A    between atoms: C_5  and  C_9 
REMARK    2  A    between atoms: N_8  and  C_9 
REMARK    3  A    between atoms: C_13  and  N_19 
REMARK    4  A    between atoms: C_23  and  N_25 
ROOT
HETATM    1  C   UNK N   1      27.438  20.140   6.856  0.00  0.00     0.023 C 
HETATM    2  C   UNK N   1      27.039  20.988   5.823  0.00  0.00     0.002 C 
HETATM    3  C   UNK N   1      27.134  20.563   4.502  0.00  0.00     0.001 C 
HETATM    4  C   UNK N   1      27.796  19.387   4.215  0.00  0.00     0.010 C 
HETATM    5  C   UNK N   1      28.368  18.632   5.224  0.00  0.00    -0.019 C 
HETATM    6  C   UNK N   1      28.069  18.935   6.573  0.00  0.00     0.052 C 
HETATM    7  C   UNK N   1      28.351  18.055   7.686  0.00  0.00     0.100 C 
HETATM    8  N   UNK N   1      28.546  17.403   8.624  0.00  0.00    -0.191 NA
ENDROOT
BRANCH   5   9
HETATM    9  C   UNK N   1      29.426  17.644   4.910  0.00  0.00     0.175 C 
BRANCH   9  10
HETATM   10  N   UNK N   1      29.179  16.182   4.783  0.00  0.00    -0.281 N 
HETATM   11  C   UNK N   1      28.063  15.581   4.163  0.00  0.00     0.333 A 
HETATM   12  N   UNK N   1      28.003  14.215   4.002  0.00  0.00    -0.271 N 
HETATM   13  O   UNK N   1      27.147  16.246   3.717  0.00  0.00    -0.246 OA
HETATM   14  C   UNK N   1      29.067  13.434   4.356  0.00  0.00     0.254 A 
HETATM   15  C   UNK N   1      26.816  13.600   3.405  0.00  0.00     0.164 C 
HETATM   16  C   UNK N   1      30.180  14.006   4.938  0.00  0.00     0.123 A 
HETATM   17  O   UNK N   1      29.050  12.233   4.148  0.00  0.00    -0.268 OA
HETATM   18  C   UNK N   1      30.228  15.381   5.182  0.00  0.00     0.115 A 
BRANCH  18  19
HETATM   19  N   UNK N   1      31.412  15.923   5.808  0.00  0.00    -0.365 N 
HETATM   20  C   UNK N   1      32.515  16.367   4.974  0.00  0.00     0.124 C 
HETATM   21  C   UNK N   1      33.657  17.013   5.775  0.00  0.00     0.022 C 
HETATM   22  C   UNK N   1      33.230  17.841   7.005  0.00  0.00     0.028 C 
HETATM   23  C   UNK N   1      31.892  17.439   7.620  0.00  0.00     0.092 C 
HETATM   24  C   UNK N   1      31.563  16.010   7.251  0.00  0.00     0.149 C 
BRANCH  23  25
HETATM   25  N   UNK N   1      31.975  17.563   9.062  0.00  0.00    -0.424 N 
HETATM   26  H   UNK N   1      32.222  18.410   9.572  0.00  0.00     0.150 HD
HETATM   27  H   UNK N   1      31.768  16.730   9.613  0.00  0.00     0.150 HD
ENDBRANCH  23  25
ENDBRANCH  18  19
ENDBRANCH   9  10
ENDBRANCH   5   9
TORSDOF 4
ENDMDL
MODEL 8
REMARK VINA RESULT:      -6.4     16.238     17.553
REMARK  4 active torsions:
REMARK  status: ('A' for Active; 'I' for Inactive)
REMARK    1  A    between atoms: C_5  and  C_9 
REMARK    2  A    between atoms: N_8  and  C_9 
REMARK    3  A    between atoms: C_13  and  N_19 
REMARK    4  A    between atoms: C_23  and  N_25 
ROOT
HETATM    1  C   UNK N   1      30.491  21.230  -4.656  0.00  0.00     0.023 C 
HETATM    2  C   UNK N   1      30.881  21.431  -3.333  0.00  0.00     0.002 C 
HETATM    3  C   UNK N   1      30.390  22.522  -2.624  0.00  0.00     0.001 C 
HETATM    4  C   UNK N   1      29.676  23.497  -3.290  0.00  0.00     0.010 C 
HETATM    5  C   UNK N   1      29.449  23.402  -4.652  0.00  0.00    -0.019 C 
HETATM    6  C   UNK N   1      29.737  22.190  -5.321  0.00  0.00     0.052 C 
HETATM    7  C   UNK N   1      29.272  21.864  -6.652  0.00  0.00     0.100 C 
HETATM    8  N   UNK N   1      28.935  21.537  -7.710  0.00  0.00    -0.191 NA
ENDROOT
BRANCH   5   9
HETATM    9  C   UNK N   1      29.090  24.606  -5.436  0.00  0.00     0.175 C 
BRANCH   9  10
HETATM   10  N   UNK N   1      28.094  25.616  -4.987  0.00  0.00    -0.281 N 
HETATM   11  C   UNK N   1      28.355  26.724  -4.154  0.00  0.00     0.333 A 
HETATM   12  N   UNK N   1      27.376  27.659  -3.903  0.00  0.00    -0.271 N 
HETATM   13  O   UNK N   1      29.455  26.911  -3.668  0.00  0.00    -0.246 OA
HETATM   14  C   UNK N   1      26.168  27.574  -4.536  0.00  0.00     0.254 A 
HETATM   15  C   UNK N   1      27.643  28.775  -2.993  0.00  0.00     0.164 C 
HETATM   16  C   UNK N   1      25.903  26.514  -5.379  0.00  0.00     0.123 A 
HETATM   17  O   UNK N   1      25.323  28.438  -4.376  0.00  0.00    -0.268 OA
HETATM   18  C   UNK N   1      26.855  25.512  -5.584  0.00  0.00     0.115 A 
BRANCH  18  19
HETATM   19  N   UNK N   1      26.517  24.418  -6.464  0.00  0.00    -0.365 N 
HETATM   20  C   UNK N   1      25.887  23.232  -5.911  0.00  0.00     0.124 C 
HETATM   21  C   UNK N   1      25.493  22.201  -6.981  0.00  0.00     0.022 C 
HETATM   22  C   UNK N   1      25.011  22.781  -8.327  0.00  0.00     0.028 C 
HETATM   23  C   UNK N   1      25.538  24.176  -8.654  0.00  0.00     0.092 C 
HETATM   24  C   UNK N   1      26.815  24.438  -7.886  0.00  0.00     0.149 C 
BRANCH  23  25
HETATM   25  N   UNK N   1      25.800  24.264 -10.078  0.00  0.00    -0.424 N 
HETATM   26  H   UNK N   1      25.103  24.173 -10.816  0.00  0.00     0.150 HD
HETATM   27  H   UNK N   1      26.764  24.431 -10.364  0.00  0.00     0.150 HD
ENDBRANCH  23  25
ENDBRANCH  18  19
ENDBRANCH   9  10
ENDBRANCH   5   9
TORSDOF 4
ENDMDL
MODEL 9
REMARK VINA RESULT:      -6.2     16.417     18.598
REMARK  4 active torsions:
REMARK  status: ('A' for Active; 'I' for Inactive)
REMARK    1  A    between atoms: C_5  and  C_9 
REMARK    2  A    between atoms: N_8  and  C_9 
REMARK    3  A    between atoms: C_13  and  N_19 
REMARK    4  A    between atoms: C_23  and  N_25 
ROOT
HETATM    1  C   UNK N   1      32.220  24.364  -4.542  0.00  0.00     0.023 C 
HETATM    2  C   UNK N   1      32.623  25.122  -5.641  0.00  0.00     0.002 C 
HETATM    3  C   UNK N   1      31.758  26.064  -6.188  0.00  0.00     0.001 C 
HETATM    4  C   UNK N   1      30.446  26.107  -5.763  0.00  0.00     0.010 C 
HETATM    5  C   UNK N   1      29.984  25.222  -4.804  0.00  0.00    -0.019 C 
HETATM    6  C   UNK N   1      30.910  24.433  -4.083  0.00  0.00     0.052 C 
HETATM    7  C   UNK N   1      30.592  23.709  -2.871  0.00  0.00     0.100 C 
HETATM    8  N   UNK N   1      30.410  23.106  -1.899  0.00  0.00    -0.191 NA
ENDROOT
BRANCH   5   9
HETATM    9  C   UNK N   1      28.532  24.963  -4.665  0.00  0.00     0.175 C 
BRANCH   9  10
HETATM   10  N   UNK N   1      27.669  24.485  -5.779  0.00  0.00    -0.281 N 
HETATM   11  C   UNK N   1      27.731  23.215  -6.389  0.00  0.00     0.333 A 
HETATM   12  N   UNK N   1      26.799  22.845  -7.333  0.00  0.00    -0.271 N 
HETATM   13  O   UNK N   1      28.576  22.398  -6.076  0.00  0.00    -0.246 OA
HETATM   14  C   UNK N   1      25.747  23.668  -7.619  0.00  0.00     0.254 A 
HETATM   15  C   UNK N   1      26.907  21.545  -7.998  0.00  0.00     0.164 C 
HETATM   16  C   UNK N   1      25.652  24.904  -7.010  0.00  0.00     0.123 A 
HETATM   17  O   UNK N   1      24.879  23.316  -8.398  0.00  0.00    -0.268 OA
HETATM   18  C   UNK N   1      26.630  25.331  -6.109  0.00  0.00     0.115 A 
BRANCH  18  19
HETATM   19  N   UNK N   1      26.488  26.639  -5.515  0.00  0.00    -0.365 N 
HETATM   20  C   UNK N   1      25.893  26.758  -4.196  0.00  0.00     0.124 C 
HETATM   21  C   UNK N   1      25.904  28.197  -3.653  0.00  0.00     0.022 C 
HETATM   22  C   UNK N   1      27.135  29.046  -4.030  0.00  0.00     0.028 C 
HETATM   23  C   UNK N   1      27.841  28.625  -5.316  0.00  0.00     0.092 C 
HETATM   24  C   UNK N   1      26.885  27.857  -6.201  0.00  0.00     0.149 C 
BRANCH  23  25
HETATM   25  N   UNK N   1      28.306  29.808  -6.014  0.00  0.00    -0.424 N 
HETATM   26  H   UNK N   1      29.259  30.169  -5.998  0.00  0.00     0.150 HD
HETATM   27  H   UNK N   1      27.621  30.322  -6.567  0.00  0.00     0.150 HD
ENDBRANCH  23  25
ENDBRANCH  18  19
ENDBRANCH   9  10
ENDBRANCH   5   9
TORSDOF 4
ENDMDL
