MODEL 1
REMARK VINA RESULT:      -5.9      0.000      0.000
REMARK  6 active torsions:
REMARK  status: ('A' for Active; 'I' for Inactive)
REMARK    1  A    between atoms: C_1  and  C_2 
REMARK    2  A    between atoms: C_1  and  N_17 
REMARK    3  A    between atoms: C_2  and  C_3 
REMARK    4  A    between atoms: C_2  and  C_10 
REMARK    5  A    between atoms: C_6  and  O_9 
REMARK    6  A    between atoms: C_10  and  O_16 
ROOT
HETATM    1  C   UNK N   1      26.786  24.790  -5.538  0.00  0.00     0.081 C 
ENDROOT
BRANCH   1   2
HETATM    2  C   UNK N   1      25.804  23.676  -5.888  0.00  0.00     0.283 C 
BRANCH   2   3
HETATM    3  N   UNK N   1      26.327  22.900  -6.999  0.00  0.00     0.080 N 
HETATM    4  C   UNK N   1      26.458  23.807  -8.124  0.00  0.00     0.309 C 
HETATM    5  C   UNK N   1      25.325  21.912  -7.358  0.00  0.00     0.309 C 
ENDBRANCH   2   3
ENDBRANCH   1   2
BRANCH   1   6
HETATM    6  C   UNK N   1      27.748  24.354  -4.464  0.00  0.00    -0.049 A 
HETATM    7  C   UNK N   1      27.300  23.759  -3.273  0.00  0.00     0.010 A 
HETATM    8  C   UNK N   1      28.218  23.365  -2.296  0.00  0.00     0.037 A 
HETATM    9  C   UNK N   1      29.589  23.553  -2.504  0.00  0.00     0.065 A 
HETATM   10  C   UNK N   1      30.038  24.139  -3.692  0.00  0.00     0.037 A 
HETATM   11  C   UNK N   1      29.121  24.540  -4.666  0.00  0.00     0.010 A 
BRANCH   9  12
HETATM   12  O   UNK N   1      30.470  23.173  -1.568  0.00  0.00    -0.361 OA
HETATM   13  H   UNK N   1      30.995  22.406  -1.685  0.00  0.00     0.217 HD
ENDBRANCH   9  12
ENDBRANCH   1   6
BRANCH   1  14
HETATM   14  C   UNK N   1      26.068  26.135  -5.287  0.00  0.00     0.067 C 
HETATM   15  C   UNK N   1      26.304  26.633  -3.846  0.00  0.00     0.038 C 
HETATM   16  C   UNK N   1      25.923  28.104  -3.713  0.00  0.00     0.003 C 
HETATM   17  C   UNK N   1      26.801  28.987  -4.613  0.00  0.00     0.000 C 
HETATM   18  C   UNK N   1      27.464  28.222  -5.768  0.00  0.00     0.003 C 
HETATM   19  C   UNK N   1      26.505  27.177  -6.338  0.00  0.00     0.038 C 
BRANCH  14  20
HETATM   20  O   UNK N   1      24.697  25.933  -5.458  0.00  0.00    -0.389 OA
HETATM   21  H   UNK N   1      24.321  25.108  -5.804  0.00  0.00     0.210 HD
ENDBRANCH  14  20
ENDBRANCH   1  14
TORSDOF 6
ENDMDL
MODEL 2
REMARK VINA RESULT:      -5.8     12.833     15.412
REMARK  6 active torsions:
REMARK  status: ('A' for Active; 'I' for Inactive)
REMARK    1  A    between atoms: C_1  and  C_2 
REMARK    2  A    between atoms: C_1  and  N_17 
REMARK    3  A    between atoms: C_2  and  C_3 
REMARK    4  A    between atoms: C_2  and  C_10 
REMARK    5  A    between atoms: C_6  and  O_9 
REMARK    6  A    between atoms: C_10  and  O_16 
ROOT
HETATM    1  C   UNK N   1      31.925  16.754   6.180  0.00  0.00     0.081 C 
ENDROOT
BRANCH   1   2
HETATM    2  C   UNK N   1      31.721  17.225   4.742  0.00  0.00     0.283 C 
BRANCH   2   3
HETATM    3  N   UNK N   1      31.567  16.072   3.872  0.00  0.00     0.080 N 
HETATM    4  C   UNK N   1      32.708  16.063   2.975  0.00  0.00     0.309 C 
HETATM    5  C   UNK N   1      30.384  16.287   3.058  0.00  0.00     0.309 C 
ENDBRANCH   2   3
ENDBRANCH   1   2
BRANCH   1   6
HETATM    6  C   UNK N   1      30.761  17.142   7.053  0.00  0.00    -0.049 A 
HETATM    7  C   UNK N   1      30.753  16.872   8.431  0.00  0.00     0.010 A 
HETATM    8  C   UNK N   1      29.657  17.245   9.214  0.00  0.00     0.037 A 
HETATM    9  C   UNK N   1      28.566  17.899   8.629  0.00  0.00     0.065 A 
HETATM   10  C   UNK N   1      28.576  18.176   7.258  0.00  0.00     0.037 A 
HETATM   11  C   UNK N   1      29.666  17.796   6.474  0.00  0.00     0.010 A 
BRANCH   9  12
HETATM   12  O   UNK N   1      27.517  18.259   9.381  0.00  0.00    -0.361 OA
HETATM   13  H   UNK N   1      27.634  18.772  10.156  0.00  0.00     0.217 HD
ENDBRANCH   9  12
ENDBRANCH   1   6
BRANCH   1  14
HETATM   14  C   UNK N   1      33.322  17.135   6.718  0.00  0.00     0.067 C 
HETATM   15  C   UNK N   1      33.219  18.195   7.834  0.00  0.00     0.038 C 
HETATM   16  C   UNK N   1      34.529  18.293   8.610  0.00  0.00     0.003 C 
HETATM   17  C   UNK N   1      34.856  16.968   9.316  0.00  0.00     0.000 C 
HETATM   18  C   UNK N   1      34.136  15.754   8.709  0.00  0.00     0.003 C 
HETATM   19  C   UNK N   1      34.075  15.872   7.187  0.00  0.00     0.038 C 
BRANCH  14  20
HETATM   20  O   UNK N   1      34.058  17.683   5.666  0.00  0.00    -0.389 OA
HETATM   21  H   UNK N   1      34.785  18.311   5.798  0.00  0.00     0.210 HD
ENDBRANCH  14  20
ENDBRANCH   1  14
TORSDOF 6
ENDMDL
MODEL 3
REMARK VINA RESULT:      -5.6     13.123     15.719
REMARK  6 active torsions:
REMARK  status: ('A' for Active; 'I' for Inactive)
REMARK    1  A    between atoms: C_1  and  C_2 
REMARK    2  A    between atoms: C_1  and  N_17 
REMARK    3  A    between atoms: C_2  and  C_3 
REMARK    4  A    between atoms: C_2  and  C_10 
REMARK    5  A    between atoms: C_6  and  O_9 
REMARK    6  A    between atoms: C_10  and  O_16 
ROOT
HETATM    1  C   UNK N   1      30.925  16.443   7.076  0.00  0.00     0.081 C 
ENDROOT
BRANCH   1   2
HETATM    2  C   UNK N   1      29.889  17.529   7.351  0.00  0.00     0.283 C 
BRANCH   2   3
HETATM    3  N   UNK N   1      29.408  17.405   8.716  0.00  0.00     0.080 N 
HETATM    4  C   UNK N   1      27.963  17.282   8.647  0.00  0.00     0.309 C 
HETATM    5  C   UNK N   1      29.700  18.651   9.403  0.00  0.00     0.309 C 
ENDBRANCH   2   3
ENDBRANCH   1   2
BRANCH   1   6
HETATM    6  C   UNK N   1      32.197  16.695   7.843  0.00  0.00    -0.049 A 
HETATM    7  C   UNK N   1      32.949  17.867   7.657  0.00  0.00     0.010 A 
HETATM    8  C   UNK N   1      34.125  18.070   8.384  0.00  0.00     0.037 A 
HETATM    9  C   UNK N   1      34.554  17.111   9.309  0.00  0.00     0.065 A 
HETATM   10  C   UNK N   1      33.803  15.947   9.501  0.00  0.00     0.037 A 
HETATM   11  C   UNK N   1      32.632  15.739   8.769  0.00  0.00     0.010 A 
BRANCH   9  12
HETATM   12  O   UNK N   1      35.679  17.308  10.008  0.00  0.00    -0.361 OA
HETATM   13  H   UNK N   1      36.511  17.048   9.663  0.00  0.00     0.217 HD
ENDBRANCH   9  12
ENDBRANCH   1   6
BRANCH   1  14
HETATM   14  C   UNK N   1      31.097  16.179   5.564  0.00  0.00     0.067 C 
HETATM   15  C   UNK N   1      31.539  17.457   4.821  0.00  0.00     0.038 C 
HETATM   16  C   UNK N   1      32.062  17.120   3.428  0.00  0.00     0.003 C 
HETATM   17  C   UNK N   1      33.309  16.224   3.506  0.00  0.00     0.000 C 
HETATM   18  C   UNK N   1      33.444  15.474   4.839  0.00  0.00     0.003 C 
HETATM   19  C   UNK N   1      32.075  15.008   5.334  0.00  0.00     0.038 C 
BRANCH  14  20
HETATM   20  O   UNK N   1      29.860  15.785   5.050  0.00  0.00    -0.389 OA
HETATM   21  H   UNK N   1      29.088  15.601   5.607  0.00  0.00     0.210 HD
ENDBRANCH  14  20
ENDBRANCH   1  14
TORSDOF 6
ENDMDL
MODEL 4
REMARK VINA RESULT:      -5.6      1.777      3.817
REMARK  6 active torsions:
REMARK  status: ('A' for Active; 'I' for Inactive)
REMARK    1  A    between atoms: C_1  and  C_2 
REMARK    2  A    between atoms: C_1  and  N_17 
REMARK    3  A    between atoms: C_2  and  C_3 
REMARK    4  A    between atoms: C_2  and  C_10 
REMARK    5  A    between atoms: C_6  and  O_9 
REMARK    6  A    between atoms: C_10  and  O_16 
ROOT
HETATM    1  C   UNK N   1      26.907  25.560  -4.550  0.00  0.00     0.081 C 
ENDROOT
BRANCH   1   2
HETATM    2  C   UNK N   1      27.405  26.950  -4.938  0.00  0.00     0.283 C 
BRANCH   2   3
HETATM    3  N   UNK N   1      27.078  27.894  -3.883  0.00  0.00     0.080 N 
HETATM    4  C   UNK N   1      25.637  27.859  -3.716  0.00  0.00     0.309 C 
HETATM    5  C   UNK N   1      27.423  29.222  -4.357  0.00  0.00     0.309 C 
ENDBRANCH   2   3
ENDBRANCH   1   2
BRANCH   1   6
HETATM    6  C   UNK N   1      27.956  24.797  -3.786  0.00  0.00    -0.049 A 
HETATM    7  C   UNK N   1      27.611  23.824  -2.834  0.00  0.00     0.010 A 
HETATM    8  C   UNK N   1      28.608  23.133  -2.141  0.00  0.00     0.037 A 
HETATM    9  C   UNK N   1      29.958  23.399  -2.401  0.00  0.00     0.065 A 
HETATM   10  C   UNK N   1      30.304  24.363  -3.355  0.00  0.00     0.037 A 
HETATM   11  C   UNK N   1      29.308  25.060  -4.041  0.00  0.00     0.010 A 
BRANCH   9  12
HETATM   12  O   UNK N   1      30.914  22.735  -1.739  0.00  0.00    -0.361 OA
HETATM   13  H   UNK N   1      31.308  23.097  -0.970  0.00  0.00     0.217 HD
ENDBRANCH   9  12
ENDBRANCH   1   6
BRANCH   1  14
HETATM   14  C   UNK N   1      26.279  24.817  -5.750  0.00  0.00     0.067 C 
HETATM   15  C   UNK N   1      26.034  25.775  -6.933  0.00  0.00     0.038 C 
HETATM   16  C   UNK N   1      25.773  24.994  -8.218  0.00  0.00     0.003 C 
HETATM   17  C   UNK N   1      26.993  24.145  -8.608  0.00  0.00     0.000 C 
HETATM   18  C   UNK N   1      27.946  23.864  -7.437  0.00  0.00     0.003 C 
HETATM   19  C   UNK N   1      27.157  23.614  -6.152  0.00  0.00     0.038 C 
BRANCH  14  20
HETATM   20  O   UNK N   1      25.045  24.304  -5.344  0.00  0.00    -0.389 OA
HETATM   21  H   UNK N   1      24.321  24.860  -5.017  0.00  0.00     0.210 HD
ENDBRANCH  14  20
ENDBRANCH   1  14
TORSDOF 6
ENDMDL
MODEL 5
REMARK VINA RESULT:      -5.5     13.678     16.737
REMARK  6 active torsions:
REMARK  status: ('A' for Active; 'I' for Inactive)
REMARK    1  A    between atoms: C_1  and  C_2 
REMARK    2  A    between atoms: C_1  and  N_17 
REMARK    3  A    between atoms: C_2  and  C_3 
REMARK    4  A    between atoms: C_2  and  C_10 
REMARK    5  A    between atoms: C_6  and  O_9 
REMARK    6  A    between atoms: C_10  and  O_16 
ROOT
HETATM    1  C   UNK N   1      33.089  16.302   7.428  0.00  0.00     0.081 C 
ENDROOT
BRANCH   1   2
HETATM    2  C   UNK N   1      32.302  17.571   7.743  0.00  0.00     0.283 C 
BRANCH   2   3
HETATM    3  N   UNK N   1      31.019  17.213   8.324  0.00  0.00     0.080 N 
HETATM    4  C   UNK N   1      30.132  16.885   7.222  0.00  0.00     0.309 C 
HETATM    5  C   UNK N   1      30.481  18.397   8.970  0.00  0.00     0.309 C 
ENDBRANCH   2   3
ENDBRANCH   1   2
BRANCH   1   6
HETATM    6  C   UNK N   1      34.030  15.950   8.551  0.00  0.00    -0.049 A 
HETATM    7  C   UNK N   1      34.440  14.626   8.779  0.00  0.00     0.010 A 
HETATM    8  C   UNK N   1      35.313  14.332   9.829  0.00  0.00     0.037 A 
HETATM    9  C   UNK N   1      35.792  15.358  10.652  0.00  0.00     0.065 A 
HETATM   10  C   UNK N   1      35.391  16.678  10.422  0.00  0.00     0.037 A 
HETATM   11  C   UNK N   1      34.512  16.972   9.378  0.00  0.00     0.010 A 
BRANCH   9  12
HETATM   12  O   UNK N   1      36.632  15.076  11.658  0.00  0.00    -0.361 OA
HETATM   13  H   UNK N   1      37.517  15.382  11.645  0.00  0.00     0.217 HD
ENDBRANCH   9  12
ENDBRANCH   1   6
BRANCH   1  14
HETATM   14  C   UNK N   1      33.718  16.348   6.018  0.00  0.00     0.067 C 
HETATM   15  C   UNK N   1      33.329  15.104   5.193  0.00  0.00     0.038 C 
HETATM   16  C   UNK N   1      33.627  15.321   3.712  0.00  0.00     0.003 C 
HETATM   17  C   UNK N   1      32.795  16.481   3.144  0.00  0.00     0.000 C 
HETATM   18  C   UNK N   1      32.277  17.450   4.217  0.00  0.00     0.003 C 
HETATM   19  C   UNK N   1      33.331  17.660   5.304  0.00  0.00     0.038 C 
BRANCH  14  20
HETATM   20  O   UNK N   1      35.107  16.356   6.162  0.00  0.00    -0.389 OA
HETATM   21  H   UNK N   1      35.551  16.356   7.025  0.00  0.00     0.210 HD
ENDBRANCH  14  20
ENDBRANCH   1  14
TORSDOF 6
ENDMDL
MODEL 6
REMARK VINA RESULT:      -5.5     11.384     13.128
REMARK  6 active torsions:
REMARK  status: ('A' for Active; 'I' for Inactive)
REMARK    1  A    between atoms: C_1  and  C_2 
REMARK    2  A    between atoms: C_1  and  N_17 
REMARK    3  A    between atoms: C_2  and  C_3 
REMARK    4  A    between atoms: C_2  and  C_10 
REMARK    5  A    between atoms: C_6  and  O_9 
REMARK    6  A    between atoms: C_10  and  O_16 
ROOT
HETATM    1  C   UNK N   1      28.709  16.724   5.128  0.00  0.00     0.081 C 
ENDROOT
BRANCH   1   2
HETATM    2  C   UNK N   1      28.285  15.326   5.572  0.00  0.00     0.283 C 
BRANCH   2   3
HETATM    3  N   UNK N   1      28.470  14.393   4.474  0.00  0.00     0.080 N 
HETATM    4  C   UNK N   1      27.856  14.990   3.302  0.00  0.00     0.309 C 
HETATM    5  C   UNK N   1      27.718  13.190   4.786  0.00  0.00     0.309 C 
ENDBRANCH   2   3
ENDBRANCH   1   2
BRANCH   1   6
HETATM    6  C   UNK N   1      30.169  16.966   5.406  0.00  0.00    -0.049 A 
HETATM    7  C   UNK N   1      30.731  16.704   6.666  0.00  0.00     0.010 A 
HETATM    8  C   UNK N   1      32.090  16.939   6.892  0.00  0.00     0.037 A 
HETATM    9  C   UNK N   1      32.899  17.429   5.860  0.00  0.00     0.065 A 
HETATM   10  C   UNK N   1      32.342  17.684   4.603  0.00  0.00     0.037 A 
HETATM   11  C   UNK N   1      30.983  17.457   4.378  0.00  0.00     0.010 A 
BRANCH   9  12
HETATM   12  O   UNK N   1      34.202  17.652   6.076  0.00  0.00    -0.361 OA
HETATM   13  H   UNK N   1      34.789  16.944   6.256  0.00  0.00     0.217 HD
ENDBRANCH   9  12
ENDBRANCH   1   6
BRANCH   1  14
HETATM   14  C   UNK N   1      27.740  17.811   5.643  0.00  0.00     0.067 C 
HETATM   15  C   UNK N   1      28.402  18.675   6.736  0.00  0.00     0.038 C 
HETATM   16  C   UNK N   1      27.604  19.954   6.973  0.00  0.00     0.003 C 
HETATM   17  C   UNK N   1      27.568  20.827   5.709  0.00  0.00     0.000 C 
HETATM   18  C   UNK N   1      27.862  20.050   4.417  0.00  0.00     0.003 C 
HETATM   19  C   UNK N   1      27.221  18.664   4.467  0.00  0.00     0.038 C 
BRANCH  14  20
HETATM   20  O   UNK N   1      26.632  17.174   6.206  0.00  0.00    -0.389 OA
HETATM   21  H   UNK N   1      25.957  17.640   6.723  0.00  0.00     0.210 HD
ENDBRANCH  14  20
ENDBRANCH   1  14
TORSDOF 6
ENDMDL
MODEL 7
REMARK VINA RESULT:      -5.5     22.130     25.538
REMARK  6 active torsions:
REMARK  status: ('A' for Active; 'I' for Inactive)
REMARK    1  A    between atoms: C_1  and  C_2 
REMARK    2  A    between atoms: C_1  and  N_17 
REMARK    3  A    between atoms: C_2  and  C_3 
REMARK    4  A    between atoms: C_2  and  C_10 
REMARK    5  A    between atoms: C_6  and  O_9 
REMARK    6  A    between atoms: C_10  and  O_16 
ROOT
HETATM    1  C   UNK N   1      35.463  12.261  14.362  0.00  0.00     0.081 C 
ENDROOT
BRANCH   1   2
HETATM    2  C   UNK N   1      36.031  12.734  13.027  0.00  0.00     0.283 C 
BRANCH   2   3
HETATM    3  N   UNK N   1      34.951  13.228  12.190  0.00  0.00     0.080 N 
HETATM    4  C   UNK N   1      35.017  12.495  10.938  0.00  0.00     0.309 C 
HETATM    5  C   UNK N   1      35.229  14.620  11.886  0.00  0.00     0.309 C 
ENDBRANCH   2   3
ENDBRANCH   1   2
BRANCH   1   6
HETATM    6  C   UNK N   1      35.764  13.243  15.464  0.00  0.00    -0.049 A 
HETATM    7  C   UNK N   1      35.046  13.237  16.671  0.00  0.00     0.010 A 
HETATM    8  C   UNK N   1      35.350  14.162  17.673  0.00  0.00     0.037 A 
HETATM    9  C   UNK N   1      36.379  15.092  17.483  0.00  0.00     0.065 A 
HETATM   10  C   UNK N   1      37.100  15.094  16.285  0.00  0.00     0.037 A 
HETATM   11  C   UNK N   1      36.792  14.176  15.279  0.00  0.00     0.010 A 
BRANCH   9  12
HETATM   12  O   UNK N   1      36.671  15.976  18.446  0.00  0.00    -0.361 OA
HETATM   13  H   UNK N   1      36.767  15.704  19.337  0.00  0.00     0.217 HD
ENDBRANCH   9  12
ENDBRANCH   1   6
BRANCH   1  14
HETATM   14  C   UNK N   1      35.833  10.790  14.658  0.00  0.00     0.067 C 
HETATM   15  C   UNK N   1      37.065  10.700  15.581  0.00  0.00     0.038 C 
HETATM   16  C   UNK N   1      37.202   9.297  16.166  0.00  0.00     0.003 C 
HETATM   17  C   UNK N   1      35.991   8.943  17.043  0.00  0.00     0.000 C 
HETATM   18  C   UNK N   1      34.745   9.789  16.742  0.00  0.00     0.003 C 
HETATM   19  C   UNK N   1      34.617  10.041  15.240  0.00  0.00     0.038 C 
BRANCH  14  20
HETATM   20  O   UNK N   1      36.152  10.172  13.447  0.00  0.00    -0.389 OA
HETATM   21  H   UNK N   1      36.111   9.212  13.314  0.00  0.00     0.210 HD
ENDBRANCH  14  20
ENDBRANCH   1  14
TORSDOF 6
ENDMDL
MODEL 8
REMARK VINA RESULT:      -5.3      2.664      5.150
REMARK  6 active torsions:
REMARK  status: ('A' for Active; 'I' for Inactive)
REMARK    1  A    between atoms: C_1  and  C_2 
REMARK    2  A    between atoms: C_1  and  N_17 
REMARK    3  A    between atoms: C_2  and  C_3 
REMARK    4  A    between atoms: C_2  and  C_10 
REMARK    5  A    between atoms: C_6  and  O_9 
REMARK    6  A    between atoms: C_10  and  O_16 
ROOT
HETATM    1  C   UNK N   1      26.032  25.377  -7.511  0.00  0.00     0.081 C 
ENDROOT
BRANCH   1   2
HETATM    2  C   UNK N   1      26.818  25.707  -8.777  0.00  0.00     0.283 C 
BRANCH   2   3
HETATM    3  N   UNK N   1      25.908  26.198  -9.798  0.00  0.00     0.080 N 
HETATM    4  C   UNK N   1      25.079  25.077 -10.201  0.00  0.00     0.309 C 
HETATM    5  C   UNK N   1      26.703  26.579 -10.951  0.00  0.00     0.309 C 
ENDBRANCH   2   3
ENDBRANCH   1   2
BRANCH   1   6
HETATM    6  C   UNK N   1      26.062  26.522  -6.534  0.00  0.00    -0.049 A 
HETATM    7  C   UNK N   1      27.114  27.453  -6.524  0.00  0.00     0.010 A 
HETATM    8  C   UNK N   1      27.114  28.505  -5.605  0.00  0.00     0.037 A 
HETATM    9  C   UNK N   1      26.058  28.643  -4.696  0.00  0.00     0.065 A 
HETATM   10  C   UNK N   1      25.006  27.721  -4.709  0.00  0.00     0.037 A 
HETATM   11  C   UNK N   1      25.010  26.665  -5.622  0.00  0.00     0.010 A 
BRANCH   9  12
HETATM   12  O   UNK N   1      26.056  29.653  -3.816  0.00  0.00    -0.361 OA
HETATM   13  H   UNK N   1      26.435  29.551  -2.965  0.00  0.00     0.217 HD
ENDBRANCH   9  12
ENDBRANCH   1   6
BRANCH   1  14
HETATM   14  C   UNK N   1      26.418  23.996  -6.936  0.00  0.00     0.067 C 
HETATM   15  C   UNK N   1      27.338  23.226  -7.905  0.00  0.00     0.038 C 
HETATM   16  C   UNK N   1      28.010  22.053  -7.196  0.00  0.00     0.003 C 
HETATM   17  C   UNK N   1      28.915  22.542  -6.054  0.00  0.00     0.000 C 
HETATM   18  C   UNK N   1      28.568  23.952  -5.556  0.00  0.00     0.003 C 
HETATM   19  C   UNK N   1      27.054  24.158  -5.540  0.00  0.00     0.038 C 
BRANCH  14  20
HETATM   20  O   UNK N   1      25.247  23.254  -6.767  0.00  0.00    -0.389 OA
HETATM   21  H   UNK N   1      24.728  22.904  -7.509  0.00  0.00     0.210 HD
ENDBRANCH  14  20
ENDBRANCH   1  14
TORSDOF 6
ENDMDL
MODEL 9
REMARK VINA RESULT:      -5.3     22.515     25.735
REMARK  6 active torsions:
REMARK  status: ('A' for Active; 'I' for Inactive)
REMARK    1  A    between atoms: C_1  and  C_2 
REMARK    2  A    between atoms: C_1  and  N_17 
REMARK    3  A    between atoms: C_2  and  C_3 
REMARK    4  A    between atoms: C_2  and  C_10 
REMARK    5  A    between atoms: C_6  and  O_9 
REMARK    6  A    between atoms: C_10  and  O_16 
ROOT
HETATM    1  C   UNK N   1      36.286  11.859  15.096  0.00  0.00     0.081 C 
ENDROOT
BRANCH   1   2
HETATM    2  C   UNK N   1      36.427  10.345  14.966  0.00  0.00     0.283 C 
BRANCH   2   3
HETATM    3  N   UNK N   1      37.831   9.981  15.040  0.00  0.00     0.080 N 
HETATM    4  C   UNK N   1      38.228   9.546  13.713  0.00  0.00     0.309 C 
HETATM    5  C   UNK N   1      37.944   8.830  15.919  0.00  0.00     0.309 C 
ENDBRANCH   2   3
ENDBRANCH   1   2
BRANCH   1   6
HETATM    6  C   UNK N   1      35.885  12.252  16.494  0.00  0.00    -0.049 A 
HETATM    7  C   UNK N   1      35.725  13.598  16.862  0.00  0.00     0.010 A 
HETATM    8  C   UNK N   1      35.352  13.930  18.167  0.00  0.00     0.037 A 
HETATM    9  C   UNK N   1      35.125  12.921  19.111  0.00  0.00     0.065 A 
HETATM   10  C   UNK N   1      35.276  11.580  18.744  0.00  0.00     0.037 A 
HETATM   11  C   UNK N   1      35.657  11.247  17.443  0.00  0.00     0.010 A 
BRANCH   9  12
HETATM   12  O   UNK N   1      34.765  13.240  20.362  0.00  0.00    -0.361 OA
HETATM   13  H   UNK N   1      35.079  14.023  20.768  0.00  0.00     0.217 HD
ENDBRANCH   9  12
ENDBRANCH   1   6
BRANCH   1  14
HETATM   14  C   UNK N   1      35.428  12.458  13.960  0.00  0.00     0.067 C 
HETATM   15  C   UNK N   1      35.914  13.873  13.582  0.00  0.00     0.038 C 
HETATM   16  C   UNK N   1      35.328  14.306  12.241  0.00  0.00     0.003 C 
HETATM   17  C   UNK N   1      35.797  13.381  11.107  0.00  0.00     0.000 C 
HETATM   18  C   UNK N   1      36.284  12.009  11.594  0.00  0.00     0.003 C 
HETATM   19  C   UNK N   1      35.412  11.508  12.745  0.00  0.00     0.038 C 
BRANCH  14  20
HETATM   20  O   UNK N   1      34.112  12.560  14.417  0.00  0.00    -0.389 OA
HETATM   21  H   UNK N   1      33.745  13.371  14.800  0.00  0.00     0.210 HD
ENDBRANCH  14  20
ENDBRANCH   1  14
TORSDOF 6
ENDMDL
