MODEL 1
REMARK VINA RESULT:      -6.8      0.000      0.000
REMARK WARNING: 32 MAX_TORS EXCEEDED!!!
REMARK  34 active torsions:
REMARK  status: ('A' for Active; 'I' for Inactive)
REMARK    1  A    between atoms: O_5  and  C_58 
REMARK    2  A    between atoms: O_7  and  C_62 
REMARK    3  A    between atoms: C_71  and  O_9 
REMARK       I    between atoms: N_15  and  C_45 
REMARK       I    between atoms: N_16  and  C_53 
REMARK       I    between atoms: N_17  and  C_46 
REMARK    4  A    between atoms: C_51  and  N_17 
REMARK    5  A    between atoms: C_56  and  N_18 
REMARK       I    between atoms: N_18  and  C_64 
REMARK       I    between atoms: N_19  and  C_73 
REMARK       I    between atoms: N_20  and  C_76 
REMARK    6  A    between atoms: N_21  and  C_63 
REMARK    7  A    between atoms: C_67  and  N_23 
REMARK       I    between atoms: N_23  and  C_80 
REMARK       I    between atoms: N_24  and  C_77 
REMARK    8  A    between atoms: N_24  and  C_82 
REMARK    9  A    between atoms: N_25  and  C_78 
REMARK       I    between atoms: N_25  and  C_86 
REMARK       I    between atoms: N_26  and  C_79 
REMARK       I    between atoms: N_27  and  C_79 
REMARK   10  A    between atoms: N_28  and  C_87 
REMARK   11  A    between atoms: C_88  and  N_30 
REMARK   12  A    between atoms: N_31  and  C_93 
REMARK       I    between atoms: N_33  and  C_94 
REMARK       I    between atoms: N_34  and  C_94 
REMARK       I    between atoms: N_35  and  C_95 
REMARK       I    between atoms: N_36  and  C_95 
REMARK   13  A    between atoms: C_40  and  C_46 
REMARK   14  A    between atoms: C_45  and  C_47 
REMARK   15  A    between atoms: C_51  and  C_54 
REMARK   16  A    between atoms: C_51  and  C_58 
REMARK   17  A    between atoms: C_53  and  C_56 
REMARK   18  A    between atoms: C_54  and  C_59 
REMARK   19  A    between atoms: C_56  and  C_62 
REMARK   20  A    between atoms: C_59  and  C_63 
REMARK   21  A    between atoms: C_64  and  C_67 
REMARK   22  A    between atoms: C_65  and  C_73 
REMARK   23  A    between atoms: C_66  and  C_77 
REMARK   24  A    between atoms: C_67  and  C_75 
REMARK   25  A    between atoms: C_75  and  C_83 
REMARK   26  A    between atoms: C_76  and  C_78 
REMARK   27  A    between atoms: C_78  and  C_81 
REMARK   28  A    between atoms: C_80  and  C_82 
REMARK   29  A    between atoms: C_81  and  C_84 
REMARK   30  A    between atoms: C_84  and  C_87 
REMARK   31  A    between atoms: C_86  and  C_88 
REMARK   32  A    between atoms: C_88  and  C_91 
REMARK   33  A    between atoms: C_91  and  C_92 
REMARK   34  A    between atoms: C_92  and  C_93 
ROOT
HETATM    1  C   UNK N   1      20.989  14.951   3.874  0.00  0.00     0.181 C 
ENDROOT
BRANCH   1   2
HETATM    2  N   UNK N   1      19.836  14.289   3.319  0.00  0.00    -0.346 N 
HETATM    3  C   UNK N   1      19.374  13.140   3.856  0.00  0.00     0.236 C 
HETATM    4  O   UNK N   1      19.696  12.807   4.990  0.00  0.00    -0.272 OA
HETATM    5  H   UNK N   1      19.379  14.679   2.538  0.00  0.00     0.163 HD
BRANCH   3   6
HETATM    6  C   UNK N   1      18.660  12.178   2.986  0.00  0.00     0.225 C 
BRANCH   6   7
HETATM    7  N   UNK N   1      19.656  11.590   2.129  0.00  0.00    -0.351 N 
HETATM    8  C   UNK N   1      19.967  10.278   2.065  0.00  0.00     0.241 C 
HETATM    9  O   UNK N   1      19.370   9.465   2.753  0.00  0.00    -0.271 OA
HETATM   10  H   UNK N   1      20.157  12.198   1.539  0.00  0.00     0.163 HD
BRANCH   8  11
HETATM   11  C   UNK N   1      21.116   9.816   1.199  0.00  0.00     0.181 C 
HETATM   12  N   UNK N   1      22.169   9.083   1.827  0.00  0.00    -0.334 N 
HETATM   13  C   UNK N   1      23.026   8.564   0.811  0.00  0.00     0.158 C 
HETATM   14  C   UNK N   1      22.738   9.429   3.023  0.00  0.00     0.243 C 
HETATM   15  C   UNK N   1      23.012   9.720  -0.224  0.00  0.00     0.138 C 
HETATM   16  C   UNK N   1      21.803  10.619   0.134  0.00  0.00     0.068 C 
HETATM   17  O   UNK N   1      22.548  10.533   3.506  0.00  0.00    -0.271 OA
BRANCH  15  18
HETATM   18  O   UNK N   1      24.178  10.482  -0.099  0.00  0.00    -0.394 OA
HETATM   19  H   UNK N   1      24.834  10.878   0.497  0.00  0.00     0.210 HD
ENDBRANCH  15  18
BRANCH  14  20
HETATM   20  C   UNK N   1      23.491   8.451   3.863  0.00  0.00     0.179 A 
HETATM   21  N   UNK N   1      24.717   9.042   4.360  0.00  0.00    -0.337 N 
HETATM   22  C   UNK N   1      24.856   8.989   5.781  0.00  0.00     0.127 A 
HETATM   23  C   UNK N   1      25.686   9.557   3.523  0.00  0.00     0.243 C 
HETATM   24  C   UNK N   1      23.631   8.245   6.290  0.00  0.00     0.022 A 
HETATM   25  C   UNK N   1      22.752   7.927   5.079  0.00  0.00     0.037 A 
HETATM   26  O   UNK N   1      25.480   9.644   2.326  0.00  0.00    -0.271 OA
BRANCH  23  27
HETATM   27  C   UNK N   1      27.054   9.961   4.051  0.00  0.00     0.176 C 
BRANCH  27  28
HETATM   28  N   UNK N   1      27.600  11.065   3.280  0.00  0.00    -0.346 N 
HETATM   29  C   UNK N   1      28.398  12.018   3.831  0.00  0.00     0.240 C 
HETATM   30  O   UNK N   1      28.612  12.035   5.036  0.00  0.00    -0.271 OA
HETATM   31  H   UNK N   1      27.383  11.125   2.322  0.00  0.00     0.163 HD
BRANCH  29  32
HETATM   32  C   UNK N   1      29.056  13.026   2.942  0.00  0.00     0.167 C 
BRANCH  32  33
HETATM   33  N   UNK N   1      28.057  13.683   2.112  0.00  0.00    -0.418 N 
HETATM   34  H   UNK N   1      27.254  14.224   2.436  0.00  0.00     0.150 HD
HETATM   35  H   UNK N   1      28.170  13.595   1.103  0.00  0.00     0.150 HD
ENDBRANCH  32  33
BRANCH  32  36
HETATM   36  C   UNK N   1      30.122  12.386   2.068  0.00  0.00     0.036 C 
BRANCH  36  37
HETATM   37  C   UNK N   1      29.845  12.647   0.593  0.00  0.00     0.023 C 
BRANCH  37  38
HETATM   38  C   UNK N   1      30.164  11.414  -0.234  0.00  0.00     0.138 C 
BRANCH  38  39
HETATM   39  N   UNK N   1      30.162  11.759  -1.633  0.00  0.00    -0.227 N 
HETATM   40  C   UNK N   1      30.033  10.875  -2.561  0.00  0.00     0.665 C 
HETATM   41  N   UNK N   1      30.017  11.282  -3.913  0.00  0.00    -0.235 N 
HETATM   42  N   UNK N   1      29.891   9.502  -2.245  0.00  0.00    -0.235 N 
HETATM   43  H   UNK N   1      30.418  12.142  -4.174  0.00  0.00     0.174 HD
HETATM   44  H   UNK N   1      29.605  10.704  -4.595  0.00  0.00     0.174 HD
HETATM   45  H   UNK N   1      29.814   8.781  -2.911  0.00  0.00     0.174 HD
HETATM   46  H   UNK N   1      29.868   9.250  -1.293  0.00  0.00     0.174 HD
ATOM     47  HN  UNK N   1      30.266  12.739  -1.898  1.00  0.00     0.177 HD
ENDBRANCH  38  39
ENDBRANCH  37  38
ENDBRANCH  36  37
ENDBRANCH  32  36
ENDBRANCH  29  32
ENDBRANCH  27  28
BRANCH  27  48
HETATM   48  C   UNK N   1      27.976   8.782   3.797  0.00  0.00     0.036 C 
BRANCH  48  49
HETATM   49  C   UNK N   1      28.478   8.146   5.066  0.00  0.00     0.023 C 
BRANCH  49  50
HETATM   50  C   UNK N   1      29.985   8.246   5.086  0.00  0.00     0.138 C 
BRANCH  50  51
HETATM   51  N   UNK N   1      30.368   9.555   5.555  0.00  0.00    -0.227 N 
HETATM   52  C   UNK N   1      31.326  10.213   5.007  0.00  0.00     0.665 C 
HETATM   53  N   UNK N   1      31.675  11.484   5.511  0.00  0.00    -0.235 N 
HETATM   54  N   UNK N   1      32.051   9.668   3.920  0.00  0.00    -0.235 N 
HETATM   55  H   UNK N   1      31.933  12.206   4.892  0.00  0.00     0.174 HD
HETATM   56  H   UNK N   1      31.662  11.648   6.481  0.00  0.00     0.174 HD
HETATM   57  H   UNK N   1      32.392   8.756   3.772  0.00  0.00     0.174 HD
HETATM   58  H   UNK N   1      32.248  10.304   3.195  0.00  0.00     0.174 HD
ATOM     59  HN  UNK N   1      29.866   9.968   6.342  1.00  0.00     0.177 HD
ENDBRANCH  50  51
ENDBRANCH  49  50
ENDBRANCH  48  49
ENDBRANCH  27  48
ENDBRANCH  23  27
ENDBRANCH  14  20
ENDBRANCH   8  11
ENDBRANCH   6   7
ENDBRANCH   3   6
ENDBRANCH   1   2
BRANCH   1  60
HETATM   60  C   UNK N   1      22.094  14.706   2.887  0.00  0.00     0.241 C 
HETATM   61  O   UNK N   1      22.172  13.633   2.307  0.00  0.00    -0.271 OA
HETATM   62  N   UNK N   1      23.166  15.523   2.979  0.00  0.00    -0.344 N 
HETATM   63  H   UNK N   1      23.009  16.462   3.229  0.00  0.00     0.163 HD
BRANCH  62  64
HETATM   64  C   UNK N   1      24.528  15.111   2.735  0.00  0.00     0.200 C 
BRANCH  64  65
HETATM   65  C   UNK N   1      25.090  13.927   3.474  0.00  0.00     0.245 C 
HETATM   66  O   UNK N   1      25.104  12.851   2.891  0.00  0.00    -0.271 OA
HETATM   67  N   UNK N   1      25.338  13.975   4.815  0.00  0.00    -0.332 N 
HETATM   68  C   UNK N   1      25.421  15.248   5.534  0.00  0.00     0.184 C 
HETATM   69  C   UNK N   1      25.184  12.748   5.564  0.00  0.00     0.165 C 
HETATM   70  C   UNK N   1      24.719  15.266   6.906  0.00  0.00     0.074 C 
HETATM   71  C   UNK N   1      23.734  14.144   7.060  0.00  0.00    -0.048 A 
HETATM   72  C   UNK N   1      23.961  12.912   6.418  0.00  0.00    -0.034 A 
HETATM   73  C   UNK N   1      22.580  14.329   7.827  0.00  0.00     0.008 A 
HETATM   74  C   UNK N   1      23.024  11.882   6.534  0.00  0.00     0.009 A 
HETATM   75  C   UNK N   1      21.872  12.071   7.305  0.00  0.00     0.001 A 
HETATM   76  C   UNK N   1      21.652  13.293   7.952  0.00  0.00     0.001 A 
BRANCH  68  77
HETATM   77  C   UNK N   1      26.837  15.805   5.503  0.00  0.00     0.244 C 
HETATM   78  O   UNK N   1      27.721  15.103   5.970  0.00  0.00    -0.271 OA
HETATM   79  N   UNK N   1      27.152  17.058   5.020  0.00  0.00    -0.332 N 
HETATM   80  C   UNK N   1      26.272  17.873   4.192  0.00  0.00     0.092 C 
HETATM   81  C   UNK N   1      28.475  17.658   5.114  0.00  0.00     0.180 C 
HETATM   82  C   UNK N   1      27.159  19.050   3.770  0.00  0.00     0.011 C 
HETATM   83  C   UNK N   1      25.047  18.428   4.897  0.00  0.00     0.026 C 
HETATM   84  C   UNK N   1      28.140  19.124   4.899  0.00  0.00     0.041 C 
HETATM   85  C   UNK N   1      26.420  20.375   3.558  0.00  0.00     0.007 C 
HETATM   86  C   UNK N   1      25.049  20.105   2.949  0.00  0.00     0.001 C 
HETATM   87  C   UNK N   1      24.199  19.251   3.906  0.00  0.00     0.002 C 
BRANCH  81  88
HETATM   88  C   UNK N   1      29.298  17.535   6.385  0.00  0.00     0.241 C 
HETATM   89  O   UNK N   1      28.830  17.873   7.461  0.00  0.00    -0.271 OA
HETATM   90  N   UNK N   1      30.567  17.026   6.345  0.00  0.00    -0.345 N 
HETATM   91  H   UNK N   1      31.075  16.999   7.188  0.00  0.00     0.163 HD
BRANCH  90  92
HETATM   92  C   UNK N   1      31.226  16.519   5.141  0.00  0.00     0.182 C 
BRANCH  92  93
HETATM   93  C   UNK N   1      32.665  17.007   5.029  0.00  0.00     0.038 C 
BRANCH  93  94
HETATM   94  C   UNK N   1      33.160  17.538   6.369  0.00  0.00     0.023 C 
BRANCH  94  95
HETATM   95  C   UNK N   1      34.131  16.535   6.970  0.00  0.00     0.138 C 
BRANCH  95  96
HETATM   96  N   UNK N   1      33.461  15.706   7.943  0.00  0.00    -0.227 N 
HETATM   97  C   UNK N   1      33.492  15.968   9.205  0.00  0.00     0.665 C 
HETATM   98  N   UNK N   1      32.801  15.132  10.108  0.00  0.00    -0.235 N 
HETATM   99  N   UNK N   1      34.212  17.082   9.702  0.00  0.00    -0.235 N 
HETATM  100  H   UNK N   1      31.935  14.666  10.081  0.00  0.00     0.174 HD
HETATM  101  H   UNK N   1      33.294  14.982  10.948  0.00  0.00     0.174 HD
HETATM  102  H   UNK N   1      34.294  17.920  10.211  0.00  0.00     0.174 HD
HETATM  103  H   UNK N   1      35.119  16.944   9.344  0.00  0.00     0.174 HD
ATOM    104  HN  UNK N   1      32.947  14.885   7.622  1.00  0.00     0.177 HD
ENDBRANCH  95  96
ENDBRANCH  94  95
ENDBRANCH  93  94
ENDBRANCH  92  93
BRANCH  92 105
HETATM  105  C   UNK N   1      31.273  15.016   5.135  0.00  0.00     0.163 C 
HETATM  106  O   UNK N   1      32.015  14.415   4.375  0.00  0.00    -0.648 OA
BRANCH 105 107
HETATM  107  O   UNK N   1      30.462  14.322   5.959  0.00  0.00    -0.775 OA
HETATM  108  H   UNK N   1      30.165  14.611   6.800  0.00  0.00     0.167 HD
ENDBRANCH 105 107
ENDBRANCH  92 105
ENDBRANCH  90  92
ENDBRANCH  81  88
ENDBRANCH  68  77
ENDBRANCH  64  65
BRANCH  64 109
HETATM  109  C   UNK N   1      24.704  14.931   1.226  0.00  0.00     0.199 C 
BRANCH 109 110
HETATM  110  O   UNK N   1      25.979  15.320   0.805  0.00  0.00    -0.398 OA
HETATM  111  H   UNK N   1      26.666  15.735   1.349  0.00  0.00     0.209 HD
ENDBRANCH 109 110
ENDBRANCH  64 109
ENDBRANCH  62  64
ENDBRANCH   1  60
BRANCH   1 112
HETATM  112  C   UNK N   1      20.715  16.407   4.263  0.00  0.00     0.081 C 
BRANCH 112 113
HETATM  113  C   UNK N   1      20.352  16.664   5.698  0.00  0.00    -0.015 A 
HETATM  114  S   UNK N   1      21.043  17.830   6.639  0.00  0.00    -0.106 SA
HETATM  115  C   UNK N   1      20.264  17.543   8.076  0.00  0.00     0.050 A 
HETATM  116  C   UNK N   1      19.400  16.466   7.838  0.00  0.00     0.008 A 
HETATM  117  C   UNK N   1      19.450  15.969   6.505  0.00  0.00     0.015 A 
ENDBRANCH 112 113
ENDBRANCH   1 112
TORSDOF 34
ENDMDL
MODEL 2
REMARK VINA RESULT:      -6.5      5.752     12.114
REMARK WARNING: 32 MAX_TORS EXCEEDED!!!
REMARK  34 active torsions:
REMARK  status: ('A' for Active; 'I' for Inactive)
REMARK    1  A    between atoms: O_5  and  C_58 
REMARK    2  A    between atoms: O_7  and  C_62 
REMARK    3  A    between atoms: C_71  and  O_9 
REMARK       I    between atoms: N_15  and  C_45 
REMARK       I    between atoms: N_16  and  C_53 
REMARK       I    between atoms: N_17  and  C_46 
REMARK    4  A    between atoms: C_51  and  N_17 
REMARK    5  A    between atoms: C_56  and  N_18 
REMARK       I    between atoms: N_18  and  C_64 
REMARK       I    between atoms: N_19  and  C_73 
REMARK       I    between atoms: N_20  and  C_76 
REMARK    6  A    between atoms: N_21  and  C_63 
REMARK    7  A    between atoms: C_67  and  N_23 
REMARK       I    between atoms: N_23  and  C_80 
REMARK       I    between atoms: N_24  and  C_77 
REMARK    8  A    between atoms: N_24  and  C_82 
REMARK    9  A    between atoms: N_25  and  C_78 
REMARK       I    between atoms: N_25  and  C_86 
REMARK       I    between atoms: N_26  and  C_79 
REMARK       I    between atoms: N_27  and  C_79 
REMARK   10  A    between atoms: N_28  and  C_87 
REMARK   11  A    between atoms: C_88  and  N_30 
REMARK   12  A    between atoms: N_31  and  C_93 
REMARK       I    between atoms: N_33  and  C_94 
REMARK       I    between atoms: N_34  and  C_94 
REMARK       I    between atoms: N_35  and  C_95 
REMARK       I    between atoms: N_36  and  C_95 
REMARK   13  A    between atoms: C_40  and  C_46 
REMARK   14  A    between atoms: C_45  and  C_47 
REMARK   15  A    between atoms: C_51  and  C_54 
REMARK   16  A    between atoms: C_51  and  C_58 
REMARK   17  A    between atoms: C_53  and  C_56 
REMARK   18  A    between atoms: C_54  and  C_59 
REMARK   19  A    between atoms: C_56  and  C_62 
REMARK   20  A    between atoms: C_59  and  C_63 
REMARK   21  A    between atoms: C_64  and  C_67 
REMARK   22  A    between atoms: C_65  and  C_73 
REMARK   23  A    between atoms: C_66  and  C_77 
REMARK   24  A    between atoms: C_67  and  C_75 
REMARK   25  A    between atoms: C_75  and  C_83 
REMARK   26  A    between atoms: C_76  and  C_78 
REMARK   27  A    between atoms: C_78  and  C_81 
REMARK   28  A    between atoms: C_80  and  C_82 
REMARK   29  A    between atoms: C_81  and  C_84 
REMARK   30  A    between atoms: C_84  and  C_87 
REMARK   31  A    between atoms: C_86  and  C_88 
REMARK   32  A    between atoms: C_88  and  C_91 
REMARK   33  A    between atoms: C_91  and  C_92 
REMARK   34  A    between atoms: C_92  and  C_93 
ROOT
HETATM    1  C   UNK N   1      31.829  15.271   7.232  0.00  0.00     0.181 C 
ENDROOT
BRANCH   1   2
HETATM    2  N   UNK N   1      31.782  15.344   5.793  0.00  0.00    -0.346 N 
HETATM    3  C   UNK N   1      30.762  14.789   5.107  0.00  0.00     0.236 C 
HETATM    4  O   UNK N   1      29.711  14.507   5.669  0.00  0.00    -0.272 OA
HETATM    5  H   UNK N   1      32.504  15.804   5.305  0.00  0.00     0.163 HD
BRANCH   3   6
HETATM    6  C   UNK N   1      31.002  14.316   3.724  0.00  0.00     0.225 C 
BRANCH   6   7
HETATM    7  N   UNK N   1      29.705  14.060   3.153  0.00  0.00    -0.351 N 
HETATM    8  C   UNK N   1      28.953  14.950   2.470  0.00  0.00     0.241 C 
HETATM    9  O   UNK N   1      29.365  16.081   2.264  0.00  0.00    -0.271 OA
HETATM   10  H   UNK N   1      29.331  13.157   3.273  0.00  0.00     0.163 HD
BRANCH   8  11
HETATM   11  C   UNK N   1      27.559  14.575   2.024  0.00  0.00     0.181 C 
HETATM   12  N   UNK N   1      26.526  15.547   2.187  0.00  0.00    -0.334 N 
HETATM   13  C   UNK N   1      25.356  15.081   1.516  0.00  0.00     0.158 C 
HETATM   14  C   UNK N   1      26.351  16.298   3.319  0.00  0.00     0.243 C 
HETATM   15  C   UNK N   1      25.429  13.555   1.793  0.00  0.00     0.138 C 
HETATM   16  C   UNK N   1      26.876  13.260   2.258  0.00  0.00     0.068 C 
HETATM   17  O   UNK N   1      26.920  16.004   4.356  0.00  0.00    -0.271 OA
BRANCH  15  18
HETATM   18  O   UNK N   1      24.557  13.221   2.833  0.00  0.00    -0.394 OA
HETATM   19  H   UNK N   1      23.992  12.544   3.238  0.00  0.00     0.210 HD
ENDBRANCH  15  18
BRANCH  14  20
HETATM   20  C   UNK N   1      25.584  17.580   3.317  0.00  0.00     0.179 A 
HETATM   21  N   UNK N   1      24.693  17.644   4.456  0.00  0.00    -0.337 N 
HETATM   22  C   UNK N   1      24.869  18.805   5.271  0.00  0.00     0.127 A 
HETATM   23  C   UNK N   1      23.723  16.692   4.696  0.00  0.00     0.243 C 
HETATM   24  C   UNK N   1      25.949  19.630   4.587  0.00  0.00     0.022 A 
HETATM   25  C   UNK N   1      26.422  18.844   3.364  0.00  0.00     0.037 A 
HETATM   26  O   UNK N   1      23.668  15.686   4.011  0.00  0.00    -0.271 OA
BRANCH  23  27
HETATM   27  C   UNK N   1      22.657  16.899   5.762  0.00  0.00     0.176 C 
BRANCH  27  28
HETATM   28  N   UNK N   1      22.325  15.641   6.409  0.00  0.00    -0.346 N 
HETATM   29  C   UNK N   1      21.552  15.576   7.526  0.00  0.00     0.240 C 
HETATM   30  O   UNK N   1      21.182  16.596   8.092  0.00  0.00    -0.271 OA
HETATM   31  H   UNK N   1      22.671  14.804   6.024  0.00  0.00     0.163 HD
BRANCH  29  32
HETATM   32  C   UNK N   1      21.115  14.239   8.037  0.00  0.00     0.167 C 
BRANCH  32  33
HETATM   33  N   UNK N   1      21.184  14.215   9.491  0.00  0.00    -0.418 N 
HETATM   34  H   UNK N   1      20.766  14.889  10.132  0.00  0.00     0.150 HD
HETATM   35  H   UNK N   1      21.702  13.445   9.911  0.00  0.00     0.150 HD
ENDBRANCH  32  33
BRANCH  32  36
HETATM   36  C   UNK N   1      21.959  13.117   7.456  0.00  0.00     0.036 C 
BRANCH  36  37
HETATM   37  C   UNK N   1      22.903  12.547   8.506  0.00  0.00     0.023 C 
BRANCH  37  38
HETATM   38  C   UNK N   1      24.317  12.454   7.956  0.00  0.00     0.138 C 
BRANCH  38  39
HETATM   39  N   UNK N   1      24.961  13.739   8.069  0.00  0.00    -0.227 N 
HETATM   40  C   UNK N   1      25.495  14.332   7.058  0.00  0.00     0.665 C 
HETATM   41  N   UNK N   1      26.091  15.600   7.230  0.00  0.00    -0.235 N 
HETATM   42  N   UNK N   1      25.479  13.738   5.772  0.00  0.00    -0.235 N 
HETATM   43  H   UNK N   1      26.395  15.884   8.122  0.00  0.00     0.174 HD
HETATM   44  H   UNK N   1      26.204  16.199   6.457  0.00  0.00     0.174 HD
HETATM   45  H   UNK N   1      25.891  14.133   4.970  0.00  0.00     0.174 HD
HETATM   46  H   UNK N   1      25.024  12.871   5.673  0.00  0.00     0.174 HD
ATOM     47  HN  UNK N   1      24.994  14.194   8.981  1.00  0.00     0.177 HD
ENDBRANCH  38  39
ENDBRANCH  37  38
ENDBRANCH  36  37
ENDBRANCH  32  36
ENDBRANCH  29  32
ENDBRANCH  27  28
BRANCH  27  48
HETATM   48  C   UNK N   1      21.400  17.335   5.031  0.00  0.00     0.036 C 
BRANCH  48  49
HETATM   49  C   UNK N   1      21.137  18.812   5.146  0.00  0.00     0.023 C 
BRANCH  49  50
HETATM   50  C   UNK N   1      21.177  19.413   3.761  0.00  0.00     0.138 C 
BRANCH  50  51
HETATM   51  N   UNK N   1      20.782  18.414   2.799  0.00  0.00    -0.227 N 
HETATM   52  C   UNK N   1      20.452  18.729   1.597  0.00  0.00     0.665 C 
HETATM   53  N   UNK N   1      20.057  17.719   0.695  0.00  0.00    -0.235 N 
HETATM   54  N   UNK N   1      20.455  20.081   1.176  0.00  0.00    -0.235 N 
HETATM   55  H   UNK N   1      20.328  17.768  -0.250  0.00  0.00     0.174 HD
HETATM   56  H   UNK N   1      19.507  16.965   1.012  0.00  0.00     0.174 HD
HETATM   57  H   UNK N   1      20.145  20.895   1.635  0.00  0.00     0.174 HD
HETATM   58  H   UNK N   1      20.827  20.231   0.277  0.00  0.00     0.174 HD
ATOM     59  HN  UNK N   1      20.764  17.433   3.079  1.00  0.00     0.177 HD
ENDBRANCH  50  51
ENDBRANCH  49  50
ENDBRANCH  48  49
ENDBRANCH  27  48
ENDBRANCH  23  27
ENDBRANCH  14  20
ENDBRANCH   8  11
ENDBRANCH   6   7
ENDBRANCH   3   6
ENDBRANCH   1   2
BRANCH   1  60
HETATM   60  C   UNK N   1      32.981  14.359   7.540  0.00  0.00     0.241 C 
HETATM   61  O   UNK N   1      32.855  13.149   7.417  0.00  0.00    -0.271 OA
HETATM   62  N   UNK N   1      33.961  14.878   8.311  0.00  0.00    -0.344 N 
HETATM   63  H   UNK N   1      34.183  15.829   8.195  0.00  0.00     0.163 HD
BRANCH  62  64
HETATM   64  C   UNK N   1      34.708  14.129   9.295  0.00  0.00     0.200 C 
BRANCH  64  65
HETATM   65  C   UNK N   1      36.037  14.649   9.772  0.00  0.00     0.245 C 
HETATM   66  O   UNK N   1      36.208  15.861   9.759  0.00  0.00    -0.271 OA
HETATM   67  N   UNK N   1      37.099  13.816   9.969  0.00  0.00    -0.332 N 
HETATM   68  C   UNK N   1      36.926  12.366  10.084  0.00  0.00     0.184 C 
HETATM   69  C   UNK N   1      38.420  14.353   9.730  0.00  0.00     0.165 C 
HETATM   70  C   UNK N   1      37.975  11.525   9.331  0.00  0.00     0.074 C 
HETATM   71  C   UNK N   1      38.707  12.321   8.290  0.00  0.00    -0.048 A 
HETATM   72  C   UNK N   1      38.937  13.696   8.484  0.00  0.00    -0.034 A 
HETATM   73  C   UNK N   1      39.145  11.699   7.117  0.00  0.00     0.008 A 
HETATM   74  C   UNK N   1      39.586  14.442   7.496  0.00  0.00     0.009 A 
HETATM   75  C   UNK N   1      40.025  13.814   6.325  0.00  0.00     0.001 A 
HETATM   76  C   UNK N   1      39.806  12.444   6.138  0.00  0.00     0.001 A 
BRANCH  68  77
HETATM   77  C   UNK N   1      36.654  11.958  11.525  0.00  0.00     0.244 C 
HETATM   78  O   UNK N   1      37.194  12.616  12.400  0.00  0.00    -0.271 OA
HETATM   79  N   UNK N   1      35.877  10.874  11.875  0.00  0.00    -0.332 N 
HETATM   80  C   UNK N   1      34.960  10.185  10.975  0.00  0.00     0.092 C 
HETATM   81  C   UNK N   1      35.724  10.387  13.239  0.00  0.00     0.180 C 
HETATM   82  C   UNK N   1      34.212   9.213  11.893  0.00  0.00     0.011 C 
HETATM   83  C   UNK N   1      35.619   9.382   9.867  0.00  0.00     0.026 C 
HETATM   84  C   UNK N   1      35.210   8.980  12.985  0.00  0.00     0.041 C 
HETATM   85  C   UNK N   1      33.766   7.905  11.228  0.00  0.00     0.007 C 
HETATM   86  C   UNK N   1      33.349   8.180   9.788  0.00  0.00     0.001 C 
HETATM   87  C   UNK N   1      34.540   8.725   8.982  0.00  0.00     0.002 C 
BRANCH  81  88
HETATM   88  C   UNK N   1      36.918  10.302  14.173  0.00  0.00     0.241 C 
HETATM   89  O   UNK N   1      37.853   9.560  13.917  0.00  0.00    -0.271 OA
HETATM   90  N   UNK N   1      36.971  11.069  15.305  0.00  0.00    -0.345 N 
HETATM   91  H   UNK N   1      37.747  10.953  15.899  0.00  0.00     0.163 HD
BRANCH  90  92
HETATM   92  C   UNK N   1      35.957  12.048  15.699  0.00  0.00     0.182 C 
BRANCH  92  93
HETATM   93  C   UNK N   1      35.331  11.711  17.046  0.00  0.00     0.038 C 
BRANCH  93  94
HETATM   94  C   UNK N   1      35.896  10.406  17.593  0.00  0.00     0.023 C 
BRANCH  94  95
HETATM   95  C   UNK N   1      35.269  10.126  18.949  0.00  0.00     0.138 C 
BRANCH  95  96
HETATM   96  N   UNK N   1      35.984  10.824  19.989  0.00  0.00    -0.227 N 
HETATM   97  C   UNK N   1      36.744  10.210  20.831  0.00  0.00     0.665 C 
HETATM   98  N   UNK N   1      37.434  10.949  21.815  0.00  0.00    -0.235 N 
HETATM   99  N   UNK N   1      36.896   8.803  20.785  0.00  0.00    -0.235 N 
HETATM  100  H   UNK N   1      37.893  11.820  21.819  0.00  0.00     0.174 HD
HETATM  101  H   UNK N   1      37.463  10.494  22.688  0.00  0.00     0.174 HD
HETATM  102  H   UNK N   1      37.429   7.977  20.729  0.00  0.00     0.174 HD
HETATM  103  H   UNK N   1      35.970   8.473  20.834  0.00  0.00     0.174 HD
ATOM    104  HN  UNK N   1      35.884  11.837  20.063  1.00  0.00     0.177 HD
ENDBRANCH  95  96
ENDBRANCH  94  95
ENDBRANCH  93  94
ENDBRANCH  92  93
BRANCH  92 105
HETATM  105  C   UNK N   1      36.549  13.425  15.825  0.00  0.00     0.163 C 
HETATM  106  O   UNK N   1      36.079  14.239  16.602  0.00  0.00    -0.648 OA
BRANCH 105 107
HETATM  107  O   UNK N   1      37.593  13.774  15.047  0.00  0.00    -0.775 OA
HETATM  108  H   UNK N   1      37.537  14.045  14.151  0.00  0.00     0.167 HD
ENDBRANCH 105 107
ENDBRANCH  92 105
ENDBRANCH  90  92
ENDBRANCH  81  88
ENDBRANCH  68  77
ENDBRANCH  64  65
BRANCH  64 109
HETATM  109  C   UNK N   1      33.784  13.857  10.483  0.00  0.00     0.199 C 
BRANCH 109 110
HETATM  110  O   UNK N   1      33.621  14.993  11.282  0.00  0.00    -0.398 OA
HETATM  111  H   UNK N   1      33.560  15.911  10.975  0.00  0.00     0.209 HD
ENDBRANCH 109 110
ENDBRANCH  64 109
ENDBRANCH  62  64
ENDBRANCH   1  60
BRANCH   1 112
HETATM  112  C   UNK N   1      31.836  16.649   7.902  0.00  0.00     0.081 C 
BRANCH 112 113
HETATM  113  C   UNK N   1      30.496  17.253   8.212  0.00  0.00    -0.015 A 
HETATM  114  S   UNK N   1      29.466  17.866   7.079  0.00  0.00    -0.106 SA
HETATM  115  C   UNK N   1      28.244  18.412   8.061  0.00  0.00     0.050 A 
HETATM  116  C   UNK N   1      28.640  18.112   9.372  0.00  0.00     0.008 A 
HETATM  117  C   UNK N   1      29.904  17.464   9.459  0.00  0.00     0.015 A 
ENDBRANCH 112 113
ENDBRANCH   1 112
TORSDOF 34
ENDMDL
MODEL 3
REMARK VINA RESULT:      -6.4      3.085     10.309
REMARK WARNING: 32 MAX_TORS EXCEEDED!!!
REMARK  34 active torsions:
REMARK  status: ('A' for Active; 'I' for Inactive)
REMARK    1  A    between atoms: O_5  and  C_58 
REMARK    2  A    between atoms: O_7  and  C_62 
REMARK    3  A    between atoms: C_71  and  O_9 
REMARK       I    between atoms: N_15  and  C_45 
REMARK       I    between atoms: N_16  and  C_53 
REMARK       I    between atoms: N_17  and  C_46 
REMARK    4  A    between atoms: C_51  and  N_17 
REMARK    5  A    between atoms: C_56  and  N_18 
REMARK       I    between atoms: N_18  and  C_64 
REMARK       I    between atoms: N_19  and  C_73 
REMARK       I    between atoms: N_20  and  C_76 
REMARK    6  A    between atoms: N_21  and  C_63 
REMARK    7  A    between atoms: C_67  and  N_23 
REMARK       I    between atoms: N_23  and  C_80 
REMARK       I    between atoms: N_24  and  C_77 
REMARK    8  A    between atoms: N_24  and  C_82 
REMARK    9  A    between atoms: N_25  and  C_78 
REMARK       I    between atoms: N_25  and  C_86 
REMARK       I    between atoms: N_26  and  C_79 
REMARK       I    between atoms: N_27  and  C_79 
REMARK   10  A    between atoms: N_28  and  C_87 
REMARK   11  A    between atoms: C_88  and  N_30 
REMARK   12  A    between atoms: N_31  and  C_93 
REMARK       I    between atoms: N_33  and  C_94 
REMARK       I    between atoms: N_34  and  C_94 
REMARK       I    between atoms: N_35  and  C_95 
REMARK       I    between atoms: N_36  and  C_95 
REMARK   13  A    between atoms: C_40  and  C_46 
REMARK   14  A    between atoms: C_45  and  C_47 
REMARK   15  A    between atoms: C_51  and  C_54 
REMARK   16  A    between atoms: C_51  and  C_58 
REMARK   17  A    between atoms: C_53  and  C_56 
REMARK   18  A    between atoms: C_54  and  C_59 
REMARK   19  A    between atoms: C_56  and  C_62 
REMARK   20  A    between atoms: C_59  and  C_63 
REMARK   21  A    between atoms: C_64  and  C_67 
REMARK   22  A    between atoms: C_65  and  C_73 
REMARK   23  A    between atoms: C_66  and  C_77 
REMARK   24  A    between atoms: C_67  and  C_75 
REMARK   25  A    between atoms: C_75  and  C_83 
REMARK   26  A    between atoms: C_76  and  C_78 
REMARK   27  A    between atoms: C_78  and  C_81 
REMARK   28  A    between atoms: C_80  and  C_82 
REMARK   29  A    between atoms: C_81  and  C_84 
REMARK   30  A    between atoms: C_84  and  C_87 
REMARK   31  A    between atoms: C_86  and  C_88 
REMARK   32  A    between atoms: C_88  and  C_91 
REMARK   33  A    between atoms: C_91  and  C_92 
REMARK   34  A    between atoms: C_92  and  C_93 
ROOT
HETATM    1  C   UNK N   1      27.729  11.707   3.954  0.00  0.00     0.181 C 
ENDROOT
BRANCH   1   2
HETATM    2  N   UNK N   1      28.010  13.050   3.513  0.00  0.00    -0.346 N 
HETATM    3  C   UNK N   1      28.686  13.909   4.303  0.00  0.00     0.236 C 
HETATM    4  O   UNK N   1      29.353  13.499   5.245  0.00  0.00    -0.272 OA
HETATM    5  H   UNK N   1      27.704  13.344   2.624  0.00  0.00     0.163 HD
BRANCH   3   6
HETATM    6  C   UNK N   1      28.438  15.361   4.160  0.00  0.00     0.225 C 
BRANCH   6   7
HETATM    7  N   UNK N   1      28.629  15.935   5.467  0.00  0.00    -0.351 N 
HETATM    8  C   UNK N   1      28.875  17.236   5.729  0.00  0.00     0.241 C 
HETATM    9  O   UNK N   1      28.929  18.053   4.823  0.00  0.00    -0.271 OA
HETATM   10  H   UNK N   1      28.577  15.325   6.238  0.00  0.00     0.163 HD
BRANCH   8  11
HETATM   11  C   UNK N   1      29.167  17.678   7.144  0.00  0.00     0.181 C 
HETATM   12  N   UNK N   1      30.531  17.699   7.566  0.00  0.00    -0.334 N 
HETATM   13  C   UNK N   1      30.602  18.342   8.837  0.00  0.00     0.158 C 
HETATM   14  C   UNK N   1      31.428  16.696   7.311  0.00  0.00     0.243 C 
HETATM   15  C   UNK N   1      29.294  17.845   9.508  0.00  0.00     0.138 C 
HETATM   16  C   UNK N   1      28.402  17.285   8.373  0.00  0.00     0.068 C 
HETATM   17  O   UNK N   1      31.048  15.605   6.920  0.00  0.00    -0.271 OA
BRANCH  15  18
HETATM   18  O   UNK N   1      29.583  16.803  10.394  0.00  0.00    -0.394 OA
HETATM   19  H   UNK N   1      29.436  15.876  10.638  0.00  0.00     0.210 HD
ENDBRANCH  15  18
BRANCH  14  20
HETATM   20  C   UNK N   1      32.905  16.914   7.354  0.00  0.00     0.179 A 
HETATM   21  N   UNK N   1      33.581  15.735   7.854  0.00  0.00    -0.337 N 
HETATM   22  C   UNK N   1      34.596  15.230   6.984  0.00  0.00     0.127 A 
HETATM   23  C   UNK N   1      33.302  15.187   9.090  0.00  0.00     0.243 C 
HETATM   24  C   UNK N   1      34.645  16.191   5.806  0.00  0.00     0.022 A 
HETATM   25  C   UNK N   1      33.558  17.243   6.025  0.00  0.00     0.037 A 
HETATM   26  O   UNK N   1      32.376  15.613   9.756  0.00  0.00    -0.271 OA
BRANCH  23  27
HETATM   27  C   UNK N   1      34.177  14.094   9.686  0.00  0.00     0.176 C 
BRANCH  27  28
HETATM   28  N   UNK N   1      33.420  12.866   9.864  0.00  0.00    -0.346 N 
HETATM   29  C   UNK N   1      33.928  11.643   9.554  0.00  0.00     0.240 C 
HETATM   30  O   UNK N   1      35.022  11.538   9.017  0.00  0.00    -0.271 OA
HETATM   31  H   UNK N   1      32.505  12.923  10.222  0.00  0.00     0.163 HD
BRANCH  29  32
HETATM   32  C   UNK N   1      33.153  10.416   9.920  0.00  0.00     0.167 C 
BRANCH  32  33
HETATM   33  N   UNK N   1      33.319  10.129  11.338  0.00  0.00    -0.418 N 
HETATM   34  H   UNK N   1      32.823  10.571  12.112  0.00  0.00     0.150 HD
HETATM   35  H   UNK N   1      34.000   9.411  11.582  0.00  0.00     0.150 HD
ENDBRANCH  32  33
BRANCH  32  36
HETATM   36  C   UNK N   1      33.583   9.218   9.091  0.00  0.00     0.036 C 
BRANCH  36  37
HETATM   37  C   UNK N   1      32.523   8.865   8.056  0.00  0.00     0.023 C 
BRANCH  37  38
HETATM   38  C   UNK N   1      32.917   9.395   6.688  0.00  0.00     0.138 C 
BRANCH  38  39
HETATM   39  N   UNK N   1      32.244  10.646   6.445  0.00  0.00    -0.227 N 
HETATM   40  C   UNK N   1      32.880  11.718   6.118  0.00  0.00     0.665 C 
HETATM   41  N   UNK N   1      32.159  12.906   5.872  0.00  0.00    -0.235 N 
HETATM   42  N   UNK N   1      34.290  11.717   5.985  0.00  0.00    -0.235 N 
HETATM   43  H   UNK N   1      31.258  13.024   6.250  0.00  0.00     0.174 HD
HETATM   44  H   UNK N   1      32.559  13.618   5.321  0.00  0.00     0.174 HD
HETATM   45  H   UNK N   1      34.829  12.510   5.761  0.00  0.00     0.174 HD
HETATM   46  H   UNK N   1      34.764  10.866   6.126  0.00  0.00     0.174 HD
ATOM     47  HN  UNK N   1      31.229  10.684   6.535  1.00  0.00     0.177 HD
ENDBRANCH  38  39
ENDBRANCH  37  38
ENDBRANCH  36  37
ENDBRANCH  32  36
ENDBRANCH  29  32
ENDBRANCH  27  28
BRANCH  27  48
HETATM   48  C   UNK N   1      34.549  14.558  11.083  0.00  0.00     0.036 C 
BRANCH  48  49
HETATM   49  C   UNK N   1      35.824  15.357  11.116  0.00  0.00     0.023 C 
BRANCH  49  50
HETATM   50  C   UNK N   1      36.974  14.433  10.792  0.00  0.00     0.138 C 
BRANCH  50  51
HETATM   51  N   UNK N   1      37.298  13.650  11.959  0.00  0.00    -0.227 N 
HETATM   52  C   UNK N   1      37.545  12.392  11.878  0.00  0.00     0.665 C 
HETATM   53  N   UNK N   1      37.841  11.663  13.049  0.00  0.00    -0.235 N 
HETATM   54  N   UNK N   1      37.496  11.722  10.631  0.00  0.00    -0.235 N 
HETATM   55  H   UNK N   1      38.525  10.956  13.030  0.00  0.00     0.174 HD
HETATM   56  H   UNK N   1      37.362  11.863  13.887  0.00  0.00     0.174 HD
HETATM   57  H   UNK N   1      36.853  11.796   9.890  0.00  0.00     0.174 HD
HETATM   58  H   UNK N   1      38.224  11.076  10.482  0.00  0.00     0.174 HD
ATOM     59  HN  UNK N   1      37.332  14.107  12.870  1.00  0.00     0.177 HD
ENDBRANCH  50  51
ENDBRANCH  49  50
ENDBRANCH  48  49
ENDBRANCH  27  48
ENDBRANCH  23  27
ENDBRANCH  14  20
ENDBRANCH   8  11
ENDBRANCH   6   7
ENDBRANCH   3   6
ENDBRANCH   1   2
BRANCH   1  60
HETATM   60  C   UNK N   1      26.240  11.558   3.833  0.00  0.00     0.241 C 
HETATM   61  O   UNK N   1      25.681  11.816   2.776  0.00  0.00    -0.271 OA
HETATM   62  N   UNK N   1      25.548  11.532   4.993  0.00  0.00    -0.344 N 
HETATM   63  H   UNK N   1      25.965  11.091   5.767  0.00  0.00     0.163 HD
BRANCH  62  64
HETATM   64  C   UNK N   1      24.236  12.107   5.174  0.00  0.00     0.200 C 
BRANCH  64  65
HETATM   65  C   UNK N   1      23.021  11.342   4.725  0.00  0.00     0.245 C 
HETATM   66  O   UNK N   1      22.875  10.207   5.160  0.00  0.00    -0.271 OA
HETATM   67  N   UNK N   1      22.247  11.776   3.689  0.00  0.00    -0.332 N 
HETATM   68  C   UNK N   1      22.325  13.154   3.198  0.00  0.00     0.184 C 
HETATM   69  C   UNK N   1      21.600  10.771   2.875  0.00  0.00     0.165 C 
HETATM   70  C   UNK N   1      22.307  13.299   1.664  0.00  0.00     0.074 C 
HETATM   71  C   UNK N   1      22.643  12.015   0.963  0.00  0.00    -0.048 A 
HETATM   72  C   UNK N   1      22.290  10.782   1.542  0.00  0.00    -0.034 A 
HETATM   73  C   UNK N   1      23.323  12.044  -0.257  0.00  0.00     0.008 A 
HETATM   74  C   UNK N   1      22.638   9.587   0.905  0.00  0.00     0.009 A 
HETATM   75  C   UNK N   1      23.316   9.622  -0.319  0.00  0.00     0.001 A 
HETATM   76  C   UNK N   1      23.655  10.849  -0.899  0.00  0.00     0.001 A 
BRANCH  68  77
HETATM   77  C   UNK N   1      21.375  14.064   3.965  0.00  0.00     0.244 C 
HETATM   78  O   UNK N   1      20.230  13.668   4.120  0.00  0.00    -0.271 OA
HETATM   79  N   UNK N   1      21.731  15.307   4.442  0.00  0.00    -0.332 N 
HETATM   80  C   UNK N   1      23.103  15.781   4.579  0.00  0.00     0.092 C 
HETATM   81  C   UNK N   1      20.798  16.246   5.050  0.00  0.00     0.180 C 
HETATM   82  C   UNK N   1      22.955  17.110   5.329  0.00  0.00     0.011 C 
HETATM   83  C   UNK N   1      23.831  16.049   3.274  0.00  0.00     0.026 C 
HETATM   84  C   UNK N   1      21.578  17.544   4.930  0.00  0.00     0.041 C 
HETATM   85  C   UNK N   1      24.014  18.165   4.993  0.00  0.00     0.007 C 
HETATM   86  C   UNK N   1      25.359  17.486   4.760  0.00  0.00     0.001 C 
HETATM   87  C   UNK N   1      25.270  16.524   3.563  0.00  0.00     0.002 C 
BRANCH  81  88
HETATM   88  C   UNK N   1      19.415  16.459   4.460  0.00  0.00     0.241 C 
HETATM   89  O   UNK N   1      18.417  16.189   5.109  0.00  0.00    -0.271 OA
HETATM   90  N   UNK N   1      19.268  16.975   3.202  0.00  0.00    -0.345 N 
HETATM   91  H   UNK N   1      18.354  17.062   2.848  0.00  0.00     0.163 HD
BRANCH  90  92
HETATM   92  C   UNK N   1      20.371  17.406   2.341  0.00  0.00     0.182 C 
BRANCH  92  93
HETATM   93  C   UNK N   1      20.481  16.553   1.084  0.00  0.00     0.038 C 
BRANCH  93  94
HETATM   94  C   UNK N   1      19.104  16.099   0.617  0.00  0.00     0.023 C 
BRANCH  94  95
HETATM   95  C   UNK N   1      19.148  14.608   0.325  0.00  0.00     0.138 C 
BRANCH  95  96
HETATM   96  N   UNK N   1      18.688  13.856   1.467  0.00  0.00    -0.227 N 
HETATM   97  C   UNK N   1      18.605  12.570   1.453  0.00  0.00     0.665 C 
HETATM   98  N   UNK N   1      18.168  11.886   2.608  0.00  0.00    -0.235 N 
HETATM   99  N   UNK N   1      18.944  11.829   0.295  0.00  0.00    -0.235 N 
HETATM  100  H   UNK N   1      18.321  12.007   3.572  0.00  0.00     0.174 HD
HETATM  101  H   UNK N   1      17.582  11.121   2.404  0.00  0.00     0.174 HD
HETATM  102  H   UNK N   1      19.441  11.130  -0.189  0.00  0.00     0.174 HD
HETATM  103  H   UNK N   1      18.379  12.230  -0.405  0.00  0.00     0.174 HD
ATOM    104  HN  UNK N   1      18.419  14.358   2.314  1.00  0.00     0.177 HD
ENDBRANCH  95  96
ENDBRANCH  94  95
ENDBRANCH  93  94
ENDBRANCH  92  93
BRANCH  92 105
HETATM  105  C   UNK N   1      20.186  18.829   1.890  0.00  0.00     0.163 C 
HETATM  106  O   UNK N   1      19.637  19.648   2.610  0.00  0.00    -0.648 OA
BRANCH 105 107
HETATM  107  O   UNK N   1      20.604  19.197   0.663  0.00  0.00    -0.775 OA
HETATM  108  H   UNK N   1      20.581  18.659  -0.104  0.00  0.00     0.167 HD
ENDBRANCH 105 107
ENDBRANCH  92 105
ENDBRANCH  90  92
ENDBRANCH  81  88
ENDBRANCH  68  77
ENDBRANCH  64  65
BRANCH  64 109
HETATM  109  C   UNK N   1      24.097  12.517   6.641  0.00  0.00     0.199 C 
BRANCH 109 110
HETATM  110  O   UNK N   1      25.258  13.132   7.118  0.00  0.00    -0.398 OA
HETATM  111  H   UNK N   1      26.082  12.691   7.375  0.00  0.00     0.209 HD
ENDBRANCH 109 110
ENDBRANCH  64 109
ENDBRANCH  62  64
ENDBRANCH   1  60
BRANCH   1 112
HETATM  112  C   UNK N   1      28.591  10.652   3.253  0.00  0.00     0.081 C 
BRANCH 112 113
HETATM  113  C   UNK N   1      29.262  11.073   1.976  0.00  0.00    -0.015 A 
HETATM  114  S   UNK N   1      30.837  11.551   1.864  0.00  0.00    -0.106 SA
HETATM  115  C   UNK N   1      30.914  11.926   0.250  0.00  0.00     0.050 A 
HETATM  116  C   UNK N   1      29.636  11.672  -0.266  0.00  0.00     0.008 A 
HETATM  117  C   UNK N   1      28.706  11.197   0.700  0.00  0.00     0.015 A 
ENDBRANCH 112 113
ENDBRANCH   1 112
TORSDOF 34
ENDMDL
MODEL 4
REMARK VINA RESULT:      -6.4      5.556     12.592
REMARK WARNING: 32 MAX_TORS EXCEEDED!!!
REMARK  34 active torsions:
REMARK  status: ('A' for Active; 'I' for Inactive)
REMARK    1  A    between atoms: O_5  and  C_58 
REMARK    2  A    between atoms: O_7  and  C_62 
REMARK    3  A    between atoms: C_71  and  O_9 
REMARK       I    between atoms: N_15  and  C_45 
REMARK       I    between atoms: N_16  and  C_53 
REMARK       I    between atoms: N_17  and  C_46 
REMARK    4  A    between atoms: C_51  and  N_17 
REMARK    5  A    between atoms: C_56  and  N_18 
REMARK       I    between atoms: N_18  and  C_64 
REMARK       I    between atoms: N_19  and  C_73 
REMARK       I    between atoms: N_20  and  C_76 
REMARK    6  A    between atoms: N_21  and  C_63 
REMARK    7  A    between atoms: C_67  and  N_23 
REMARK       I    between atoms: N_23  and  C_80 
REMARK       I    between atoms: N_24  and  C_77 
REMARK    8  A    between atoms: N_24  and  C_82 
REMARK    9  A    between atoms: N_25  and  C_78 
REMARK       I    between atoms: N_25  and  C_86 
REMARK       I    between atoms: N_26  and  C_79 
REMARK       I    between atoms: N_27  and  C_79 
REMARK   10  A    between atoms: N_28  and  C_87 
REMARK   11  A    between atoms: C_88  and  N_30 
REMARK   12  A    between atoms: N_31  and  C_93 
REMARK       I    between atoms: N_33  and  C_94 
REMARK       I    between atoms: N_34  and  C_94 
REMARK       I    between atoms: N_35  and  C_95 
REMARK       I    between atoms: N_36  and  C_95 
REMARK   13  A    between atoms: C_40  and  C_46 
REMARK   14  A    between atoms: C_45  and  C_47 
REMARK   15  A    between atoms: C_51  and  C_54 
REMARK   16  A    between atoms: C_51  and  C_58 
REMARK   17  A    between atoms: C_53  and  C_56 
REMARK   18  A    between atoms: C_54  and  C_59 
REMARK   19  A    between atoms: C_56  and  C_62 
REMARK   20  A    between atoms: C_59  and  C_63 
REMARK   21  A    between atoms: C_64  and  C_67 
REMARK   22  A    between atoms: C_65  and  C_73 
REMARK   23  A    between atoms: C_66  and  C_77 
REMARK   24  A    between atoms: C_67  and  C_75 
REMARK   25  A    between atoms: C_75  and  C_83 
REMARK   26  A    between atoms: C_76  and  C_78 
REMARK   27  A    between atoms: C_78  and  C_81 
REMARK   28  A    between atoms: C_80  and  C_82 
REMARK   29  A    between atoms: C_81  and  C_84 
REMARK   30  A    between atoms: C_84  and  C_87 
REMARK   31  A    between atoms: C_86  and  C_88 
REMARK   32  A    between atoms: C_88  and  C_91 
REMARK   33  A    between atoms: C_91  and  C_92 
REMARK   34  A    between atoms: C_92  and  C_93 
ROOT
HETATM    1  C   UNK N   1      33.147  16.888   7.736  0.00  0.00     0.181 C 
ENDROOT
BRANCH   1   2
HETATM    2  N   UNK N   1      31.731  16.771   7.491  0.00  0.00    -0.346 N 
HETATM    3  C   UNK N   1      30.864  17.663   8.013  0.00  0.00     0.236 C 
HETATM    4  O   UNK N   1      31.255  18.751   8.418  0.00  0.00    -0.272 OA
HETATM    5  H   UNK N   1      31.393  16.031   6.936  0.00  0.00     0.163 HD
BRANCH   3   6
HETATM    6  C   UNK N   1      29.477  17.232   8.299  0.00  0.00     0.225 C 
BRANCH   6   7
HETATM    7  N   UNK N   1      29.063  16.432   7.176  0.00  0.00    -0.351 N 
HETATM    8  C   UNK N   1      29.048  16.830   5.886  0.00  0.00     0.241 C 
HETATM    9  O   UNK N   1      29.429  17.948   5.577  0.00  0.00    -0.271 OA
HETATM   10  H   UNK N   1      28.762  15.514   7.365  0.00  0.00     0.163 HD
BRANCH   8  11
HETATM   11  C   UNK N   1      28.479  15.919   4.822  0.00  0.00     0.181 C 
HETATM   12  N   UNK N   1      27.498  16.462   3.938  0.00  0.00    -0.334 N 
HETATM   13  C   UNK N   1      27.259  15.520   2.894  0.00  0.00     0.158 C 
HETATM   14  C   UNK N   1      26.446  17.240   4.344  0.00  0.00     0.243 C 
HETATM   15  C   UNK N   1      27.365  14.175   3.661  0.00  0.00     0.138 C 
HETATM   16  C   UNK N   1      28.067  14.489   5.006  0.00  0.00     0.068 C 
HETATM   17  O   UNK N   1      26.143  17.311   5.523  0.00  0.00    -0.271 OA
BRANCH  15  18
HETATM   18  O   UNK N   1      26.085  13.686   3.939  0.00  0.00    -0.394 OA
HETATM   19  H   UNK N   1      25.547  13.031   4.410  0.00  0.00     0.210 HD
ENDBRANCH  15  18
BRANCH  14  20
HETATM   20  C   UNK N   1      25.713  18.144   3.408  0.00  0.00     0.179 A 
HETATM   21  N   UNK N   1      24.328  18.280   3.810  0.00  0.00    -0.337 N 
HETATM   22  C   UNK N   1      23.906  19.631   4.002  0.00  0.00     0.127 A 
HETATM   23  C   UNK N   1      23.482  17.197   3.937  0.00  0.00     0.243 C 
HETATM   24  C   UNK N   1      25.106  20.494   3.648  0.00  0.00     0.022 A 
HETATM   25  C   UNK N   1      26.260  19.554   3.297  0.00  0.00     0.037 A 
HETATM   26  O   UNK N   1      23.916  16.063   3.834  0.00  0.00    -0.271 OA
BRANCH  23  27
HETATM   27  C   UNK N   1      21.985  17.382   4.135  0.00  0.00     0.176 C 
BRANCH  27  28
HETATM   28  N   UNK N   1      21.457  16.379   5.045  0.00  0.00    -0.346 N 
HETATM   29  C   UNK N   1      21.195  16.644   6.353  0.00  0.00     0.240 C 
HETATM   30  O   UNK N   1      21.489  17.726   6.843  0.00  0.00    -0.271 OA
HETATM   31  H   UNK N   1      21.282  15.473   4.701  0.00  0.00     0.163 HD
BRANCH  29  32
HETATM   32  C   UNK N   1      20.498  15.612   7.183  0.00  0.00     0.167 C 
BRANCH  32  33
HETATM   33  N   UNK N   1      19.264  16.162   7.725  0.00  0.00    -0.418 N 
HETATM   34  H   UNK N   1      18.685  16.891   7.308  0.00  0.00     0.150 HD
HETATM   35  H   UNK N   1      18.944  15.778   8.614  0.00  0.00     0.150 HD
ENDBRANCH  32  33
BRANCH  32  36
HETATM   36  C   UNK N   1      21.386  15.111   8.310  0.00  0.00     0.036 C 
BRANCH  36  37
HETATM   37  C   UNK N   1      20.678  14.033   9.121  0.00  0.00     0.023 C 
BRANCH  37  38
HETATM   38  C   UNK N   1      21.503  12.758   9.146  0.00  0.00     0.138 C 
BRANCH  38  39
HETATM   39  N   UNK N   1      21.813  12.412  10.510  0.00  0.00    -0.227 N 
HETATM   40  C   UNK N   1      23.004  12.509  10.991  0.00  0.00     0.665 C 
HETATM   41  N   UNK N   1      23.238  12.175  12.342  0.00  0.00    -0.235 N 
HETATM   42  N   UNK N   1      24.080  12.960  10.188  0.00  0.00    -0.235 N 
HETATM   43  H   UNK N   1      22.615  11.579  12.818  0.00  0.00     0.174 HD
HETATM   44  H   UNK N   1      24.025  12.538  12.809  0.00  0.00     0.174 HD
HETATM   45  H   UNK N   1      25.013  13.031  10.495  0.00  0.00     0.174 HD
HETATM   46  H   UNK N   1      23.882  13.222   9.260  0.00  0.00     0.174 HD
ATOM     47  HN  UNK N   1      21.063  12.080  11.116  1.00  0.00     0.177 HD
ENDBRANCH  38  39
ENDBRANCH  37  38
ENDBRANCH  36  37
ENDBRANCH  32  36
ENDBRANCH  29  32
ENDBRANCH  27  28
BRANCH  27  48
HETATM   48  C   UNK N   1      21.337  17.103   2.791  0.00  0.00     0.036 C 
BRANCH  48  49
HETATM   49  C   UNK N   1      20.553  15.819   2.772  0.00  0.00     0.023 C 
BRANCH  49  50
HETATM   50  C   UNK N   1      20.487  15.321   1.347  0.00  0.00     0.138 C 
BRANCH  50  51
HETATM   51  N   UNK N   1      19.669  14.134   1.296  0.00  0.00    -0.227 N 
HETATM   52  C   UNK N   1      18.577  14.098   0.620  0.00  0.00     0.665 C 
HETATM   53  N   UNK N   1      17.802  12.919   0.613  0.00  0.00    -0.235 N 
HETATM   54  N   UNK N   1      18.129  15.234  -0.096  0.00  0.00    -0.235 N 
HETATM   55  H   UNK N   1      17.352  12.630  -0.214  0.00  0.00     0.174 HD
HETATM   56  H   UNK N   1      17.710  12.386   1.436  0.00  0.00     0.174 HD
HETATM   57  H   UNK N   1      18.116  16.186   0.157  0.00  0.00     0.174 HD
HETATM   58  H   UNK N   1      17.770  15.042  -0.992  0.00  0.00     0.174 HD
ATOM     59  HN  UNK N   1      19.966  13.304   1.810  1.00  0.00     0.177 HD
ENDBRANCH  50  51
ENDBRANCH  49  50
ENDBRANCH  48  49
ENDBRANCH  27  48
ENDBRANCH  23  27
ENDBRANCH  14  20
ENDBRANCH   8  11
ENDBRANCH   6   7
ENDBRANCH   3   6
ENDBRANCH   1   2
BRANCH   1  60
HETATM   60  C   UNK N   1      33.550  15.571   8.336  0.00  0.00     0.241 C 
HETATM   61  O   UNK N   1      32.703  14.829   8.813  0.00  0.00    -0.271 OA
HETATM   62  N   UNK N   1      34.852  15.446   8.676  0.00  0.00    -0.344 N 
HETATM   63  H   UNK N   1      35.521  15.883   8.102  0.00  0.00     0.163 HD
BRANCH  62  64
HETATM   64  C   UNK N   1      35.327  14.712   9.824  0.00  0.00     0.200 C 
BRANCH  64  65
HETATM   65  C   UNK N   1      36.805  14.637  10.097  0.00  0.00     0.245 C 
HETATM   66  O   UNK N   1      37.388  15.683  10.347  0.00  0.00    -0.271 OA
HETATM   67  N   UNK N   1      37.523  13.507   9.832  0.00  0.00    -0.332 N 
HETATM   68  C   UNK N   1      36.867  12.214   9.618  0.00  0.00     0.184 C 
HETATM   69  C   UNK N   1      38.904  13.672   9.437  0.00  0.00     0.165 C 
HETATM   70  C   UNK N   1      37.443  11.378   8.459  0.00  0.00     0.074 C 
HETATM   71  C   UNK N   1      38.263  12.202   7.510  0.00  0.00    -0.048 A 
HETATM   72  C   UNK N   1      38.985  13.313   7.982  0.00  0.00    -0.034 A 
HETATM   73  C   UNK N   1      38.294  11.876   6.151  0.00  0.00     0.008 A 
HETATM   74  C   UNK N   1      39.717  14.101   7.089  0.00  0.00     0.009 A 
HETATM   75  C   UNK N   1      39.748  13.768   5.730  0.00  0.00     0.001 A 
HETATM   76  C   UNK N   1      39.038  12.656   5.263  0.00  0.00     0.001 A 
BRANCH  68  77
HETATM   77  C   UNK N   1      36.663  11.478  10.935  0.00  0.00     0.244 C 
HETATM   78  O   UNK N   1      37.506  11.646  11.802  0.00  0.00    -0.271 OA
HETATM   79  N   UNK N   1      35.614  10.614  11.169  0.00  0.00    -0.332 N 
HETATM   80  C   UNK N   1      34.407  10.536  10.356  0.00  0.00     0.092 C 
HETATM   81  C   UNK N   1      35.483   9.796  12.366  0.00  0.00     0.180 C 
HETATM   82  C   UNK N   1      33.497   9.589  11.147  0.00  0.00     0.011 C 
HETATM   83  C   UNK N   1      34.598   9.960   8.964  0.00  0.00     0.026 C 
HETATM   84  C   UNK N   1      34.489   8.750  11.892  0.00  0.00     0.041 C 
HETATM   85  C   UNK N   1      32.546   8.741  10.295  0.00  0.00     0.007 C 
HETATM   86  C   UNK N   1      32.063   9.556   9.101  0.00  0.00     0.001 C 
HETATM   87  C   UNK N   1      33.252   9.952   8.209  0.00  0.00     0.002 C 
BRANCH  81  88
HETATM   88  C   UNK N   1      36.687   9.083  12.956  0.00  0.00     0.241 C 
HETATM   89  O   UNK N   1      37.316   8.275  12.291  0.00  0.00    -0.271 OA
HETATM   90  N   UNK N   1      37.094   9.348  14.235  0.00  0.00    -0.345 N 
HETATM   91  H   UNK N   1      37.857   8.835  14.587  0.00  0.00     0.163 HD
BRANCH  90  92
HETATM   92  C   UNK N   1      36.479  10.339  15.119  0.00  0.00     0.182 C 
BRANCH  92  93
HETATM   93  C   UNK N   1      36.571   9.931  16.585  0.00  0.00     0.038 C 
BRANCH  93  94
HETATM   94  C   UNK N   1      35.201   9.991  17.249  0.00  0.00     0.023 C 
BRANCH  94  95
HETATM   95  C   UNK N   1      35.276  10.914  18.454  0.00  0.00     0.138 C 
BRANCH  95  96
HETATM   96  N   UNK N   1      35.329  12.293  18.032  0.00  0.00    -0.227 N 
HETATM   97  C   UNK N   1      35.191  13.270  18.862  0.00  0.00     0.665 C 
HETATM   98  N   UNK N   1      35.271  14.599  18.395  0.00  0.00    -0.235 N 
HETATM   99  N   UNK N   1      34.956  13.031  20.239  0.00  0.00    -0.235 N 
HETATM  100  H   UNK N   1      35.836  15.056  17.731  0.00  0.00     0.174 HD
HETATM  101  H   UNK N   1      34.622  15.199  18.827  0.00  0.00     0.174 HD
HETATM  102  H   UNK N   1      35.159  13.131  21.197  0.00  0.00     0.174 HD
HETATM  103  H   UNK N   1      34.160  12.450  20.235  0.00  0.00     0.174 HD
ATOM    104  HN  UNK N   1      35.479  12.502  17.045  1.00  0.00     0.177 HD
ENDBRANCH  95  96
ENDBRANCH  94  95
ENDBRANCH  93  94
ENDBRANCH  92  93
BRANCH  92 105
HETATM  105  C   UNK N   1      37.156  11.676  14.995  0.00  0.00     0.163 C 
HETATM  106  O   UNK N   1      36.580  12.702  15.322  0.00  0.00    -0.648 OA
BRANCH 105 107
HETATM  107  O   UNK N   1      38.402  11.747  14.487  0.00  0.00    -0.775 OA
HETATM  108  H   UNK N   1      38.615  11.831  13.578  0.00  0.00     0.167 HD
ENDBRANCH 105 107
ENDBRANCH  92 105
ENDBRANCH  90  92
ENDBRANCH  81  88
ENDBRANCH  68  77
ENDBRANCH  64  65
BRANCH  64 109
HETATM  109  C   UNK N   1      34.583  15.228  11.057  0.00  0.00     0.199 C 
BRANCH 109 110
HETATM  110  O   UNK N   1      33.854  14.213  11.683  0.00  0.00    -0.398 OA
HETATM  111  H   UNK N   1      34.125  13.704  12.463  0.00  0.00     0.209 HD
ENDBRANCH 109 110
ENDBRANCH  64 109
ENDBRANCH  62  64
ENDBRANCH   1  60
BRANCH   1 112
HETATM  112  C   UNK N   1      33.931  17.361   6.508  0.00  0.00     0.081 C 
BRANCH 112 113
HETATM  113  C   UNK N   1      33.408  16.927   5.168  0.00  0.00    -0.015 A 
HETATM  114  S   UNK N   1      33.689  15.449   4.493  0.00  0.00    -0.106 SA
HETATM  115  C   UNK N   1      32.913  15.640   3.039  0.00  0.00     0.050 A 
HETATM  116  C   UNK N   1      32.390  16.940   3.050  0.00  0.00     0.008 A 
HETATM  117  C   UNK N   1      32.668  17.665   4.242  0.00  0.00     0.015 A 
ENDBRANCH 112 113
ENDBRANCH   1 112
TORSDOF 34
ENDMDL
MODEL 5
REMARK VINA RESULT:      -6.3      5.210     11.719
REMARK WARNING: 32 MAX_TORS EXCEEDED!!!
REMARK  34 active torsions:
REMARK  status: ('A' for Active; 'I' for Inactive)
REMARK    1  A    between atoms: O_5  and  C_58 
REMARK    2  A    between atoms: O_7  and  C_62 
REMARK    3  A    between atoms: C_71  and  O_9 
REMARK       I    between atoms: N_15  and  C_45 
REMARK       I    between atoms: N_16  and  C_53 
REMARK       I    between atoms: N_17  and  C_46 
REMARK    4  A    between atoms: C_51  and  N_17 
REMARK    5  A    between atoms: C_56  and  N_18 
REMARK       I    between atoms: N_18  and  C_64 
REMARK       I    between atoms: N_19  and  C_73 
REMARK       I    between atoms: N_20  and  C_76 
REMARK    6  A    between atoms: N_21  and  C_63 
REMARK    7  A    between atoms: C_67  and  N_23 
REMARK       I    between atoms: N_23  and  C_80 
REMARK       I    between atoms: N_24  and  C_77 
REMARK    8  A    between atoms: N_24  and  C_82 
REMARK    9  A    between atoms: N_25  and  C_78 
REMARK       I    between atoms: N_25  and  C_86 
REMARK       I    between atoms: N_26  and  C_79 
REMARK       I    between atoms: N_27  and  C_79 
REMARK   10  A    between atoms: N_28  and  C_87 
REMARK   11  A    between atoms: C_88  and  N_30 
REMARK   12  A    between atoms: N_31  and  C_93 
REMARK       I    between atoms: N_33  and  C_94 
REMARK       I    between atoms: N_34  and  C_94 
REMARK       I    between atoms: N_35  and  C_95 
REMARK       I    between atoms: N_36  and  C_95 
REMARK   13  A    between atoms: C_40  and  C_46 
REMARK   14  A    between atoms: C_45  and  C_47 
REMARK   15  A    between atoms: C_51  and  C_54 
REMARK   16  A    between atoms: C_51  and  C_58 
REMARK   17  A    between atoms: C_53  and  C_56 
REMARK   18  A    between atoms: C_54  and  C_59 
REMARK   19  A    between atoms: C_56  and  C_62 
REMARK   20  A    between atoms: C_59  and  C_63 
REMARK   21  A    between atoms: C_64  and  C_67 
REMARK   22  A    between atoms: C_65  and  C_73 
REMARK   23  A    between atoms: C_66  and  C_77 
REMARK   24  A    between atoms: C_67  and  C_75 
REMARK   25  A    between atoms: C_75  and  C_83 
REMARK   26  A    between atoms: C_76  and  C_78 
REMARK   27  A    between atoms: C_78  and  C_81 
REMARK   28  A    between atoms: C_80  and  C_82 
REMARK   29  A    between atoms: C_81  and  C_84 
REMARK   30  A    between atoms: C_84  and  C_87 
REMARK   31  A    between atoms: C_86  and  C_88 
REMARK   32  A    between atoms: C_88  and  C_91 
REMARK   33  A    between atoms: C_91  and  C_92 
REMARK   34  A    between atoms: C_92  and  C_93 
ROOT
HETATM    1  C   UNK N   1      31.905  15.217   7.706  0.00  0.00     0.181 C 
ENDROOT
BRANCH   1   2
HETATM    2  N   UNK N   1      31.973  15.402   6.278  0.00  0.00    -0.346 N 
HETATM    3  C   UNK N   1      30.967  14.990   5.480  0.00  0.00     0.236 C 
HETATM    4  O   UNK N   1      29.857  14.758   5.944  0.00  0.00    -0.272 OA
HETATM    5  H   UNK N   1      32.764  15.834   5.881  0.00  0.00     0.163 HD
BRANCH   3   6
HETATM    6  C   UNK N   1      31.271  14.605   4.084  0.00  0.00     0.225 C 
BRANCH   6   7
HETATM    7  N   UNK N   1      30.009  14.300   3.463  0.00  0.00    -0.351 N 
HETATM    8  C   UNK N   1      29.273  15.148   2.712  0.00  0.00     0.241 C 
HETATM    9  O   UNK N   1      29.672  16.280   2.484  0.00  0.00    -0.271 OA
HETATM   10  H   UNK N   1      29.648  13.395   3.598  0.00  0.00     0.163 HD
BRANCH   8  11
HETATM   11  C   UNK N   1      27.910  14.728   2.216  0.00  0.00     0.181 C 
HETATM   12  N   UNK N   1      26.841  15.669   2.330  0.00  0.00    -0.334 N 
HETATM   13  C   UNK N   1      25.714  15.162   1.618  0.00  0.00     0.158 C 
HETATM   14  C   UNK N   1      26.600  16.424   3.447  0.00  0.00     0.243 C 
HETATM   15  C   UNK N   1      25.821  13.642   1.911  0.00  0.00     0.138 C 
HETATM   16  C   UNK N   1      27.258  13.395   2.434  0.00  0.00     0.068 C 
HETATM   17  O   UNK N   1      27.137  16.155   4.509  0.00  0.00    -0.271 OA
BRANCH  15  18
HETATM   18  O   UNK N   1      24.920  13.290   2.919  0.00  0.00    -0.394 OA
HETATM   19  H   UNK N   1      24.131  12.782   3.168  0.00  0.00     0.210 HD
ENDBRANCH  15  18
BRANCH  14  20
HETATM   20  C   UNK N   1      25.796  17.682   3.404  0.00  0.00     0.179 A 
HETATM   21  N   UNK N   1      24.831  17.708   4.483  0.00  0.00    -0.337 N 
HETATM   22  C   UNK N   1      24.917  18.866   5.315  0.00  0.00     0.127 A 
HETATM   23  C   UNK N   1      23.877  16.724   4.651  0.00  0.00     0.243 C 
HETATM   24  C   UNK N   1      26.013  19.730   4.710  0.00  0.00     0.022 A 
HETATM   25  C   UNK N   1      26.589  18.970   3.515  0.00  0.00     0.037 A 
HETATM   26  O   UNK N   1      23.898  15.724   3.957  0.00  0.00    -0.271 OA
BRANCH  23  27
HETATM   27  C   UNK N   1      22.738  16.889   5.646  0.00  0.00     0.176 C 
BRANCH  27  28
HETATM   28  N   UNK N   1      22.363  15.607   6.218  0.00  0.00    -0.346 N 
HETATM   29  C   UNK N   1      21.611  15.501   7.346  0.00  0.00     0.240 C 
HETATM   30  O   UNK N   1      21.298  16.497   7.985  0.00  0.00    -0.271 OA
HETATM   31  H   UNK N   1      22.665  14.783   5.771  0.00  0.00     0.163 HD
BRANCH  29  32
HETATM   32  C   UNK N   1      21.126  14.153   7.779  0.00  0.00     0.167 C 
BRANCH  32  33
HETATM   33  N   UNK N   1      20.870  14.153   9.212  0.00  0.00    -0.418 N 
HETATM   34  H   UNK N   1      19.960  14.097   9.669  0.00  0.00     0.150 HD
HETATM   35  H   UNK N   1      21.684  14.216   9.822  0.00  0.00     0.150 HD
ENDBRANCH  32  33
BRANCH  32  36
HETATM   36  C   UNK N   1      22.124  13.063   7.426  0.00  0.00     0.036 C 
BRANCH  36  37
HETATM   37  C   UNK N   1      23.042  12.765   8.604  0.00  0.00     0.023 C 
BRANCH  37  38
HETATM   38  C   UNK N   1      24.481  12.625   8.135  0.00  0.00     0.138 C 
BRANCH  38  39
HETATM   39  N   UNK N   1      25.127  13.912   8.175  0.00  0.00    -0.227 N 
HETATM   40  C   UNK N   1      25.606  14.476   7.121  0.00  0.00     0.665 C 
HETATM   41  N   UNK N   1      26.208  15.748   7.224  0.00  0.00    -0.235 N 
HETATM   42  N   UNK N   1      25.524  13.844   5.856  0.00  0.00    -0.235 N 
HETATM   43  H   UNK N   1      26.557  16.060   8.090  0.00  0.00     0.174 HD
HETATM   44  H   UNK N   1      26.278  16.325   6.429  0.00  0.00     0.174 HD
HETATM   45  H   UNK N   1      25.893  14.216   5.022  0.00  0.00     0.174 HD
HETATM   46  H   UNK N   1      25.066  12.974   5.806  0.00  0.00     0.174 HD
ATOM     47  HN  UNK N   1      25.207  14.395   9.070  1.00  0.00     0.177 HD
ENDBRANCH  38  39
ENDBRANCH  37  38
ENDBRANCH  36  37
ENDBRANCH  32  36
ENDBRANCH  29  32
ENDBRANCH  27  28
BRANCH  27  48
HETATM   48  C   UNK N   1      21.534  17.354   4.846  0.00  0.00     0.036 C 
BRANCH  48  49
HETATM   49  C   UNK N   1      21.264  18.827   4.997  0.00  0.00     0.023 C 
BRANCH  49  50
HETATM   50  C   UNK N   1      21.321  19.464   3.628  0.00  0.00     0.138 C 
BRANCH  50  51
HETATM   51  N   UNK N   1      20.915  18.498   2.637  0.00  0.00    -0.227 N 
HETATM   52  C   UNK N   1      20.490  18.860   1.479  0.00  0.00     0.665 C 
HETATM   53  N   UNK N   1      20.088  17.879   0.548  0.00  0.00    -0.235 N 
HETATM   54  N   UNK N   1      20.395  20.231   1.138  0.00  0.00    -0.235 N 
HETATM   55  H   UNK N   1      20.293  17.994  -0.408  0.00  0.00     0.174 HD
HETATM   56  H   UNK N   1      19.601  17.080   0.854  0.00  0.00     0.174 HD
HETATM   57  H   UNK N   1      20.074  21.000   1.661  0.00  0.00     0.174 HD
HETATM   58  H   UNK N   1      20.698  20.450   0.227  0.00  0.00     0.174 HD
ATOM     59  HN  UNK N   1      20.967  17.505   2.861  1.00  0.00     0.177 HD
ENDBRANCH  50  51
ENDBRANCH  49  50
ENDBRANCH  48  49
ENDBRANCH  27  48
ENDBRANCH  23  27
ENDBRANCH  14  20
ENDBRANCH   8  11
ENDBRANCH   6   7
ENDBRANCH   3   6
ENDBRANCH   1   2
BRANCH   1  60
HETATM   60  C   UNK N   1      33.054  14.309   8.039  0.00  0.00     0.241 C 
HETATM   61  O   UNK N   1      32.918  13.096   7.968  0.00  0.00    -0.271 OA
HETATM   62  N   UNK N   1      34.049  14.852   8.774  0.00  0.00    -0.344 N 
HETATM   63  H   UNK N   1      34.275  15.796   8.615  0.00  0.00     0.163 HD
BRANCH  62  64
HETATM   64  C   UNK N   1      34.802  14.140   9.779  0.00  0.00     0.200 C 
BRANCH  64  65
HETATM   65  C   UNK N   1      36.306  14.202   9.762  0.00  0.00     0.245 C 
HETATM   66  O   UNK N   1      36.830  15.277  10.015  0.00  0.00    -0.271 OA
HETATM   67  N   UNK N   1      37.055  13.187   9.242  0.00  0.00    -0.332 N 
HETATM   68  C   UNK N   1      36.489  11.856   9.010  0.00  0.00     0.184 C 
HETATM   69  C   UNK N   1      38.311  13.539   8.619  0.00  0.00     0.165 C 
HETATM   70  C   UNK N   1      36.899  11.199   7.678  0.00  0.00     0.074 C 
HETATM   71  C   UNK N   1      37.439  12.193   6.691  0.00  0.00    -0.048 A 
HETATM   72  C   UNK N   1      38.138  13.328   7.143  0.00  0.00    -0.034 A 
HETATM   73  C   UNK N   1      37.231  12.001   5.323  0.00  0.00     0.008 A 
HETATM   74  C   UNK N   1      38.606  14.271   6.224  0.00  0.00     0.009 A 
HETATM   75  C   UNK N   1      38.399  14.072   4.854  0.00  0.00     0.001 A 
HETATM   76  C   UNK N   1      37.714  12.937   4.405  0.00  0.00     0.001 A 
BRANCH  68  77
HETATM   77  C   UNK N   1      36.614  10.982  10.250  0.00  0.00     0.244 C 
HETATM   78  O   UNK N   1      37.630  11.104  10.916  0.00  0.00    -0.271 OA
HETATM   79  N   UNK N   1      35.669  10.048  10.622  0.00  0.00    -0.332 N 
HETATM   80  C   UNK N   1      34.309   9.992  10.101  0.00  0.00     0.092 C 
HETATM   81  C   UNK N   1      35.841   9.109  11.721  0.00  0.00     0.180 C 
HETATM   82  C   UNK N   1      33.632   8.927  10.971  0.00  0.00     0.011 C 
HETATM   83  C   UNK N   1      34.187   9.569   8.648  0.00  0.00     0.026 C 
HETATM   84  C   UNK N   1      34.790   8.068  11.374  0.00  0.00     0.041 C 
HETATM   85  C   UNK N   1      32.531   8.122  10.270  0.00  0.00     0.007 C 
HETATM   86  C   UNK N   1      31.764   9.028   9.314  0.00  0.00     0.001 C 
HETATM   87  C   UNK N   1      32.704   9.571   8.223  0.00  0.00     0.002 C 
BRANCH  81  88
HETATM   88  C   UNK N   1      37.166   8.401  11.940  0.00  0.00     0.241 C 
HETATM   89  O   UNK N   1      37.628   7.670  11.078  0.00  0.00    -0.271 OA
HETATM   90  N   UNK N   1      37.869   8.585  13.099  0.00  0.00    -0.345 N 
HETATM   91  H   UNK N   1      38.705   8.077  13.211  0.00  0.00     0.163 HD
BRANCH  90  92
HETATM   92  C   UNK N   1      37.471   9.481  14.184  0.00  0.00     0.182 C 
BRANCH  92  93
HETATM   93  C   UNK N   1      37.582   8.811  15.548  0.00  0.00     0.038 C 
BRANCH  93  94
HETATM   94  C   UNK N   1      36.204   8.451  16.087  0.00  0.00     0.023 C 
BRANCH  94  95
HETATM   95  C   UNK N   1      35.403   9.727  16.290  0.00  0.00     0.138 C 
BRANCH  95  96
HETATM   96  N   UNK N   1      34.527   9.957  15.167  0.00  0.00    -0.227 N 
HETATM   97  C   UNK N   1      34.425  11.111  14.602  0.00  0.00     0.665 C 
HETATM   98  N   UNK N   1      33.566  11.272  13.494  0.00  0.00    -0.235 N 
HETATM   99  N   UNK N   1      35.161  12.224  15.077  0.00  0.00    -0.235 N 
HETATM  100  H   UNK N   1      33.343  10.713  12.715  0.00  0.00     0.174 HD
HETATM  101  H   UNK N   1      33.083  12.131  13.503  0.00  0.00     0.174 HD
HETATM  102  H   UNK N   1      35.787  12.976  14.969  0.00  0.00     0.174 HD
HETATM  103  H   UNK N   1      34.913  12.270  16.029  0.00  0.00     0.174 HD
ATOM    104  HN  UNK N   1      33.968   9.182  14.809  1.00  0.00     0.177 HD
ENDBRANCH  95  96
ENDBRANCH  94  95
ENDBRANCH  93  94
ENDBRANCH  92  93
BRANCH  92 105
HETATM  105  C   UNK N   1      38.342  10.707  14.227  0.00  0.00     0.163 C 
HETATM  106  O   UNK N   1      39.494  10.642  14.626  0.00  0.00    -0.648 OA
BRANCH 105 107
HETATM  107  O   UNK N   1      37.835  11.897  13.851  0.00  0.00    -0.775 OA
HETATM  108  H   UNK N   1      37.292  12.449  14.379  0.00  0.00     0.167 HD
ENDBRANCH 105 107
ENDBRANCH  92 105
ENDBRANCH  90  92
ENDBRANCH  81  88
ENDBRANCH  68  77
ENDBRANCH  64  65
BRANCH  64 109
HETATM  109  C   UNK N   1      34.267  14.551  11.151  0.00  0.00     0.199 C 
BRANCH 109 110
HETATM  110  O   UNK N   1      34.585  13.608  12.134  0.00  0.00    -0.398 OA
HETATM  111  H   UNK N   1      35.373  13.606  12.698  0.00  0.00     0.209 HD
ENDBRANCH 109 110
ENDBRANCH  64 109
ENDBRANCH  62  64
ENDBRANCH   1  60
BRANCH   1 112
HETATM  112  C   UNK N   1      31.818  16.538   8.478  0.00  0.00     0.081 C 
BRANCH 112 113
HETATM  113  C   UNK N   1      30.455  17.156   8.602  0.00  0.00    -0.015 A 
HETATM  114  S   UNK N   1      29.696  17.987   7.396  0.00  0.00    -0.106 SA
HETATM  115  C   UNK N   1      28.307  18.440   8.183  0.00  0.00     0.050 A 
HETATM  116  C   UNK N   1      28.414  17.923   9.481  0.00  0.00     0.008 A 
HETATM  117  C   UNK N   1      29.619  17.205   9.720  0.00  0.00     0.015 A 
ENDBRANCH 112 113
ENDBRANCH   1 112
TORSDOF 34
ENDMDL
MODEL 6
REMARK VINA RESULT:      -6.3      3.248      9.690
REMARK WARNING: 32 MAX_TORS EXCEEDED!!!
REMARK  34 active torsions:
REMARK  status: ('A' for Active; 'I' for Inactive)
REMARK    1  A    between atoms: O_5  and  C_58 
REMARK    2  A    between atoms: O_7  and  C_62 
REMARK    3  A    between atoms: C_71  and  O_9 
REMARK       I    between atoms: N_15  and  C_45 
REMARK       I    between atoms: N_16  and  C_53 
REMARK       I    between atoms: N_17  and  C_46 
REMARK    4  A    between atoms: C_51  and  N_17 
REMARK    5  A    between atoms: C_56  and  N_18 
REMARK       I    between atoms: N_18  and  C_64 
REMARK       I    between atoms: N_19  and  C_73 
REMARK       I    between atoms: N_20  and  C_76 
REMARK    6  A    between atoms: N_21  and  C_63 
REMARK    7  A    between atoms: C_67  and  N_23 
REMARK       I    between atoms: N_23  and  C_80 
REMARK       I    between atoms: N_24  and  C_77 
REMARK    8  A    between atoms: N_24  and  C_82 
REMARK    9  A    between atoms: N_25  and  C_78 
REMARK       I    between atoms: N_25  and  C_86 
REMARK       I    between atoms: N_26  and  C_79 
REMARK       I    between atoms: N_27  and  C_79 
REMARK   10  A    between atoms: N_28  and  C_87 
REMARK   11  A    between atoms: C_88  and  N_30 
REMARK   12  A    between atoms: N_31  and  C_93 
REMARK       I    between atoms: N_33  and  C_94 
REMARK       I    between atoms: N_34  and  C_94 
REMARK       I    between atoms: N_35  and  C_95 
REMARK       I    between atoms: N_36  and  C_95 
REMARK   13  A    between atoms: C_40  and  C_46 
REMARK   14  A    between atoms: C_45  and  C_47 
REMARK   15  A    between atoms: C_51  and  C_54 
REMARK   16  A    between atoms: C_51  and  C_58 
REMARK   17  A    between atoms: C_53  and  C_56 
REMARK   18  A    between atoms: C_54  and  C_59 
REMARK   19  A    between atoms: C_56  and  C_62 
REMARK   20  A    between atoms: C_59  and  C_63 
REMARK   21  A    between atoms: C_64  and  C_67 
REMARK   22  A    between atoms: C_65  and  C_73 
REMARK   23  A    between atoms: C_66  and  C_77 
REMARK   24  A    between atoms: C_67  and  C_75 
REMARK   25  A    between atoms: C_75  and  C_83 
REMARK   26  A    between atoms: C_76  and  C_78 
REMARK   27  A    between atoms: C_78  and  C_81 
REMARK   28  A    between atoms: C_80  and  C_82 
REMARK   29  A    between atoms: C_81  and  C_84 
REMARK   30  A    between atoms: C_84  and  C_87 
REMARK   31  A    between atoms: C_86  and  C_88 
REMARK   32  A    between atoms: C_88  and  C_91 
REMARK   33  A    between atoms: C_91  and  C_92 
REMARK   34  A    between atoms: C_92  and  C_93 
ROOT
HETATM    1  C   UNK N   1      28.332  14.009   2.802  0.00  0.00     0.181 C 
ENDROOT
BRANCH   1   2
HETATM    2  N   UNK N   1      28.215  15.441   2.676  0.00  0.00    -0.346 N 
HETATM    3  C   UNK N   1      29.039  16.263   3.358  0.00  0.00     0.236 C 
HETATM    4  O   UNK N   1      30.090  15.845   3.828  0.00  0.00    -0.272 OA
HETATM    5  H   UNK N   1      27.525  15.822   2.086  0.00  0.00     0.163 HD
BRANCH   3   6
HETATM    6  C   UNK N   1      28.559  17.614   3.726  0.00  0.00     0.225 C 
BRANCH   6   7
HETATM    7  N   UNK N   1      28.966  17.831   5.090  0.00  0.00    -0.351 N 
HETATM    8  C   UNK N   1      28.295  17.421   6.188  0.00  0.00     0.241 C 
HETATM    9  O   UNK N   1      27.258  16.786   6.080  0.00  0.00    -0.271 OA
HETATM   10  H   UNK N   1      29.806  18.322   5.236  0.00  0.00     0.163 HD
BRANCH   8  11
HETATM   11  C   UNK N   1      28.783  17.818   7.562  0.00  0.00     0.181 C 
HETATM   12  N   UNK N   1      30.193  17.830   7.788  0.00  0.00    -0.334 N 
HETATM   13  C   UNK N   1      30.442  18.432   9.058  0.00  0.00     0.158 C 
HETATM   14  C   UNK N   1      31.045  16.840   7.377  0.00  0.00     0.243 C 
HETATM   15  C   UNK N   1      29.241  17.908   9.889  0.00  0.00     0.138 C 
HETATM   16  C   UNK N   1      28.198  17.381   8.872  0.00  0.00     0.068 C 
HETATM   17  O   UNK N   1      30.614  15.761   7.007  0.00  0.00    -0.271 OA
BRANCH  15  18
HETATM   18  O   UNK N   1      29.651  16.838  10.691  0.00  0.00    -0.394 OA
HETATM   19  H   UNK N   1      29.827  15.886  10.753  0.00  0.00     0.210 HD
ENDBRANCH  15  18
BRANCH  14  20
HETATM   20  C   UNK N   1      32.514  17.064   7.220  0.00  0.00     0.179 A 
HETATM   21  N   UNK N   1      33.260  15.933   7.732  0.00  0.00    -0.337 N 
HETATM   22  C   UNK N   1      34.167  15.357   6.791  0.00  0.00     0.127 A 
HETATM   23  C   UNK N   1      33.141  15.493   9.035  0.00  0.00     0.243 C 
HETATM   24  C   UNK N   1      34.060  16.211   5.537  0.00  0.00     0.022 A 
HETATM   25  C   UNK N   1      32.995  17.277   5.797  0.00  0.00     0.037 A 
HETATM   26  O   UNK N   1      32.298  15.975   9.771  0.00  0.00    -0.271 OA
BRANCH  23  27
HETATM   27  C   UNK N   1      34.095  14.458   9.611  0.00  0.00     0.176 C 
BRANCH  27  28
HETATM   28  N   UNK N   1      33.478  13.142   9.629  0.00  0.00    -0.346 N 
HETATM   29  C   UNK N   1      34.186  12.000   9.418  0.00  0.00     0.240 C 
HETATM   30  O   UNK N   1      35.367  12.045   9.103  0.00  0.00    -0.271 OA
HETATM   31  H   UNK N   1      32.511  13.076   9.803  0.00  0.00     0.163 HD
BRANCH  29  32
HETATM   32  C   UNK N   1      33.515  10.677   9.618  0.00  0.00     0.167 C 
BRANCH  32  33
HETATM   33  N   UNK N   1      33.844  10.148  10.934  0.00  0.00    -0.418 N 
HETATM   34  H   UNK N   1      34.627   9.539  11.169  0.00  0.00     0.150 HD
HETATM   35  H   UNK N   1      33.227  10.415  11.701  0.00  0.00     0.150 HD
ENDBRANCH  32  33
BRANCH  32  36
HETATM   36  C   UNK N   1      33.912   9.682   8.541  0.00  0.00     0.036 C 
BRANCH  36  37
HETATM   37  C   UNK N   1      32.937   9.728   7.372  0.00  0.00     0.023 C 
BRANCH  37  38
HETATM   38  C   UNK N   1      33.374  10.770   6.356  0.00  0.00     0.138 C 
BRANCH  38  39
HETATM   39  N   UNK N   1      32.419  11.849   6.334  0.00  0.00    -0.227 N 
HETATM   40  C   UNK N   1      32.234  12.584   5.292  0.00  0.00     0.665 C 
HETATM   41  N   UNK N   1      31.267  13.611   5.328  0.00  0.00    -0.235 N 
HETATM   42  N   UNK N   1      32.975  12.365   4.105  0.00  0.00    -0.235 N 
HETATM   43  H   UNK N   1      30.978  13.986   6.191  0.00  0.00     0.174 HD
HETATM   44  H   UNK N   1      30.882  13.954   4.489  0.00  0.00     0.174 HD
HETATM   45  H   UNK N   1      32.893  12.909   3.289  0.00  0.00     0.174 HD
HETATM   46  H   UNK N   1      33.616  11.618   4.096  0.00  0.00     0.174 HD
ATOM     47  HN  UNK N   1      31.870  12.038   7.173  1.00  0.00     0.177 HD
ENDBRANCH  38  39
ENDBRANCH  37  38
ENDBRANCH  36  37
ENDBRANCH  32  36
ENDBRANCH  29  32
ENDBRANCH  27  28
BRANCH  27  48
HETATM   48  C   UNK N   1      34.311  14.836  11.065  0.00  0.00     0.036 C 
BRANCH  48  49
HETATM   49  C   UNK N   1      35.747  14.709  11.497  0.00  0.00     0.023 C 
BRANCH  49  50
HETATM   50  C   UNK N   1      36.630  14.971  10.300  0.00  0.00     0.138 C 
BRANCH  50  51
HETATM   51  N   UNK N   1      37.775  14.097  10.353  0.00  0.00    -0.227 N 
HETATM   52  C   UNK N   1      38.263  13.560   9.292  0.00  0.00     0.665 C 
HETATM   53  N   UNK N   1      39.375  12.699   9.395  0.00  0.00    -0.235 N 
HETATM   54  N   UNK N   1      37.680  13.803   8.024  0.00  0.00    -0.235 N 
HETATM   55  H   UNK N   1      40.080  12.720   8.709  0.00  0.00     0.174 HD
HETATM   56  H   UNK N   1      39.445  12.075  10.154  0.00  0.00     0.174 HD
HETATM   57  H   UNK N   1      36.736  13.842   7.751  0.00  0.00     0.174 HD
HETATM   58  H   UNK N   1      38.326  13.955   7.297  0.00  0.00     0.174 HD
ATOM     59  HN  UNK N   1      38.209  13.900  11.256  1.00  0.00     0.177 HD
ENDBRANCH  50  51
ENDBRANCH  49  50
ENDBRANCH  48  49
ENDBRANCH  27  48
ENDBRANCH  23  27
ENDBRANCH  14  20
ENDBRANCH   8  11
ENDBRANCH   6   7
ENDBRANCH   3   6
ENDBRANCH   1   2
BRANCH   1  60
HETATM   60  C   UNK N   1      26.942  13.528   3.105  0.00  0.00     0.241 C 
HETATM   61  O   UNK N   1      26.011  13.843   2.376  0.00  0.00    -0.271 OA
HETATM   62  N   UNK N   1      26.720  13.108   4.369  0.00  0.00    -0.344 N 
HETATM   63  H   UNK N   1      27.450  12.640   4.833  0.00  0.00     0.163 HD
BRANCH  62  64
HETATM   64  C   UNK N   1      25.481  13.299   5.086  0.00  0.00     0.200 C 
BRANCH  64  65
HETATM   65  C   UNK N   1      24.437  12.216   5.067  0.00  0.00     0.245 C 
HETATM   66  O   UNK N   1      24.724  11.144   5.583  0.00  0.00    -0.271 OA
HETATM   67  N   UNK N   1      23.318  12.318   4.294  0.00  0.00    -0.332 N 
HETATM   68  C   UNK N   1      22.887  13.601   3.733  0.00  0.00     0.184 C 
HETATM   69  C   UNK N   1      22.758  11.093   3.767  0.00  0.00     0.165 C 
HETATM   70  C   UNK N   1      22.403  13.541   2.271  0.00  0.00     0.074 C 
HETATM   71  C   UNK N   1      22.856  12.296   1.568  0.00  0.00    -0.048 A 
HETATM   72  C   UNK N   1      23.020  11.097   2.289  0.00  0.00    -0.034 A 
HETATM   73  C   UNK N   1      23.134  12.329   0.199  0.00  0.00     0.008 A 
HETATM   74  C   UNK N   1      23.478   9.949   1.639  0.00  0.00     0.009 A 
HETATM   75  C   UNK N   1      23.752   9.987   0.266  0.00  0.00     0.001 A 
HETATM   76  C   UNK N   1      23.578  11.176  -0.452  0.00  0.00     0.001 A 
BRANCH  68  77
HETATM   77  C   UNK N   1      21.984  14.349   4.705  0.00  0.00     0.244 C 
HETATM   78  O   UNK N   1      21.034  13.736   5.165  0.00  0.00    -0.271 OA
HETATM   79  N   UNK N   1      22.164  15.673   5.045  0.00  0.00    -0.332 N 
HETATM   80  C   UNK N   1      23.385  16.433   4.804  0.00  0.00     0.092 C 
HETATM   81  C   UNK N   1      21.231  16.440   5.858  0.00  0.00     0.180 C 
HETATM   82  C   UNK N   1      23.140  17.756   5.539  0.00  0.00     0.011 C 
HETATM   83  C   UNK N   1      23.681  16.744   3.348  0.00  0.00     0.026 C 
HETATM   84  C   UNK N   1      21.646  17.859   5.509  0.00  0.00     0.041 C 
HETATM   85  C   UNK N   1      23.818  18.980   4.914  0.00  0.00     0.007 C 
HETATM   86  C   UNK N   1      25.175  18.581   4.348  0.00  0.00     0.001 C 
HETATM   87  C   UNK N   1      25.003  17.531   3.237  0.00  0.00     0.002 C 
BRANCH  81  88
HETATM   88  C   UNK N   1      19.732  16.313   5.650  0.00  0.00     0.241 C 
HETATM   89  O   UNK N   1      19.263  16.277   4.524  0.00  0.00    -0.271 OA
HETATM   90  N   UNK N   1      18.888  16.219   6.722  0.00  0.00    -0.345 N 
HETATM   91  H   UNK N   1      17.921  16.175   6.540  0.00  0.00     0.163 HD
BRANCH  90  92
HETATM   92  C   UNK N   1      19.315  16.181   8.122  0.00  0.00     0.182 C 
BRANCH  92  93
HETATM   93  C   UNK N   1      20.717  15.606   8.275  0.00  0.00     0.038 C 
BRANCH  93  94
HETATM   94  C   UNK N   1      20.661  14.103   8.516  0.00  0.00     0.023 C 
BRANCH  94  95
HETATM   95  C   UNK N   1      21.247  13.799   9.885  0.00  0.00     0.138 C 
BRANCH  95  96
HETATM   96  N   UNK N   1      22.654  13.501   9.777  0.00  0.00    -0.227 N 
HETATM   97  C   UNK N   1      23.213  12.569  10.471  0.00  0.00     0.665 C 
HETATM   98  N   UNK N   1      24.591  12.309  10.310  0.00  0.00    -0.235 N 
HETATM   99  N   UNK N   1      22.466  11.801  11.398  0.00  0.00    -0.235 N 
HETATM  100  H   UNK N   1      25.195  12.289   9.533  0.00  0.00     0.174 HD
HETATM  101  H   UNK N   1      25.046  12.103  11.158  0.00  0.00     0.174 HD
HETATM  102  H   UNK N   1      22.135  10.954  11.775  0.00  0.00     0.174 HD
HETATM  103  H   UNK N   1      22.057  12.483  11.980  0.00  0.00     0.174 HD
ATOM    104  HN  UNK N   1      23.227  14.045   9.132  1.00  0.00     0.177 HD
ENDBRANCH  95  96
ENDBRANCH  94  95
ENDBRANCH  93  94
ENDBRANCH  92  93
BRANCH  92 105
HETATM  105  C   UNK N   1      19.339  17.559   8.723  0.00  0.00     0.163 C 
HETATM  106  O   UNK N   1      20.337  18.258   8.645  0.00  0.00    -0.648 OA
BRANCH 105 107
HETATM  107  O   UNK N   1      18.257  18.017   9.381  0.00  0.00    -0.775 OA
HETATM  108  H   UNK N   1      17.822  17.578  10.086  0.00  0.00     0.167 HD
ENDBRANCH 105 107
ENDBRANCH  92 105
ENDBRANCH  90  92
ENDBRANCH  81  88
ENDBRANCH  68  77
ENDBRANCH  64  65
BRANCH  64 109
HETATM  109  C   UNK N   1      25.823  13.685   6.526  0.00  0.00     0.199 C 
BRANCH 109 110
HETATM  110  O   UNK N   1      24.718  13.555   7.372  0.00  0.00    -0.398 OA
HETATM  111  H   UNK N   1      23.863  13.155   7.149  0.00  0.00     0.209 HD
ENDBRANCH 109 110
ENDBRANCH  64 109
ENDBRANCH  62  64
ENDBRANCH   1  60
BRANCH   1 112
HETATM  112  C   UNK N   1      29.048  13.360   1.614  0.00  0.00     0.081 C 
BRANCH 112 113
HETATM  113  C   UNK N   1      29.662  12.010   1.854  0.00  0.00    -0.015 A 
HETATM  114  S   UNK N   1      30.370  11.087   0.685  0.00  0.00    -0.106 SA
HETATM  115  C   UNK N   1      30.768   9.744   1.574  0.00  0.00     0.050 A 
HETATM  116  C   UNK N   1      30.327  10.002   2.879  0.00  0.00     0.008 A 
HETATM  117  C   UNK N   1      29.704  11.271   3.039  0.00  0.00     0.015 A 
ENDBRANCH 112 113
ENDBRANCH   1 112
TORSDOF 34
ENDMDL
MODEL 7
REMARK VINA RESULT:      -6.1      3.466     10.266
REMARK WARNING: 32 MAX_TORS EXCEEDED!!!
REMARK  34 active torsions:
REMARK  status: ('A' for Active; 'I' for Inactive)
REMARK    1  A    between atoms: O_5  and  C_58 
REMARK    2  A    between atoms: O_7  and  C_62 
REMARK    3  A    between atoms: C_71  and  O_9 
REMARK       I    between atoms: N_15  and  C_45 
REMARK       I    between atoms: N_16  and  C_53 
REMARK       I    between atoms: N_17  and  C_46 
REMARK    4  A    between atoms: C_51  and  N_17 
REMARK    5  A    between atoms: C_56  and  N_18 
REMARK       I    between atoms: N_18  and  C_64 
REMARK       I    between atoms: N_19  and  C_73 
REMARK       I    between atoms: N_20  and  C_76 
REMARK    6  A    between atoms: N_21  and  C_63 
REMARK    7  A    between atoms: C_67  and  N_23 
REMARK       I    between atoms: N_23  and  C_80 
REMARK       I    between atoms: N_24  and  C_77 
REMARK    8  A    between atoms: N_24  and  C_82 
REMARK    9  A    between atoms: N_25  and  C_78 
REMARK       I    between atoms: N_25  and  C_86 
REMARK       I    between atoms: N_26  and  C_79 
REMARK       I    between atoms: N_27  and  C_79 
REMARK   10  A    between atoms: N_28  and  C_87 
REMARK   11  A    between atoms: C_88  and  N_30 
REMARK   12  A    between atoms: N_31  and  C_93 
REMARK       I    between atoms: N_33  and  C_94 
REMARK       I    between atoms: N_34  and  C_94 
REMARK       I    between atoms: N_35  and  C_95 
REMARK       I    between atoms: N_36  and  C_95 
REMARK   13  A    between atoms: C_40  and  C_46 
REMARK   14  A    between atoms: C_45  and  C_47 
REMARK   15  A    between atoms: C_51  and  C_54 
REMARK   16  A    between atoms: C_51  and  C_58 
REMARK   17  A    between atoms: C_53  and  C_56 
REMARK   18  A    between atoms: C_54  and  C_59 
REMARK   19  A    between atoms: C_56  and  C_62 
REMARK   20  A    between atoms: C_59  and  C_63 
REMARK   21  A    between atoms: C_64  and  C_67 
REMARK   22  A    between atoms: C_65  and  C_73 
REMARK   23  A    between atoms: C_66  and  C_77 
REMARK   24  A    between atoms: C_67  and  C_75 
REMARK   25  A    between atoms: C_75  and  C_83 
REMARK   26  A    between atoms: C_76  and  C_78 
REMARK   27  A    between atoms: C_78  and  C_81 
REMARK   28  A    between atoms: C_80  and  C_82 
REMARK   29  A    between atoms: C_81  and  C_84 
REMARK   30  A    between atoms: C_84  and  C_87 
REMARK   31  A    between atoms: C_86  and  C_88 
REMARK   32  A    between atoms: C_88  and  C_91 
REMARK   33  A    between atoms: C_91  and  C_92 
REMARK   34  A    between atoms: C_92  and  C_93 
ROOT
HETATM    1  C   UNK N   1      28.367  13.334   2.497  0.00  0.00     0.181 C 
ENDROOT
BRANCH   1   2
HETATM    2  N   UNK N   1      28.269  14.772   2.454  0.00  0.00    -0.346 N 
HETATM    3  C   UNK N   1      29.294  15.546   2.866  0.00  0.00     0.236 C 
HETATM    4  O   UNK N   1      30.423  15.083   2.971  0.00  0.00    -0.272 OA
HETATM    5  H   UNK N   1      27.444  15.193   2.120  0.00  0.00     0.163 HD
BRANCH   3   6
HETATM    6  C   UNK N   1      29.003  16.894   3.403  0.00  0.00     0.225 C 
BRANCH   6   7
HETATM    7  N   UNK N   1      30.001  17.154   4.407  0.00  0.00    -0.351 N 
HETATM    8  C   UNK N   1      29.798  17.153   5.742  0.00  0.00     0.241 C 
HETATM    9  O   UNK N   1      28.696  16.893   6.201  0.00  0.00    -0.271 OA
HETATM   10  H   UNK N   1      30.913  17.352   4.094  0.00  0.00     0.163 HD
BRANCH   8  11
HETATM   11  C   UNK N   1      30.915  17.555   6.676  0.00  0.00     0.181 C 
HETATM   12  N   UNK N   1      32.239  17.130   6.350  0.00  0.00    -0.334 N 
HETATM   13  C   UNK N   1      33.154  17.788   7.225  0.00  0.00     0.158 C 
HETATM   14  C   UNK N   1      32.558  15.865   5.932  0.00  0.00     0.243 C 
HETATM   15  C   UNK N   1      32.347  17.816   8.550  0.00  0.00     0.138 C 
HETATM   16  C   UNK N   1      30.872  17.528   8.175  0.00  0.00     0.068 C 
HETATM   17  O   UNK N   1      31.761  14.950   6.053  0.00  0.00    -0.271 OA
BRANCH  15  18
HETATM   18  O   UNK N   1      32.791  16.796   9.397  0.00  0.00    -0.394 OA
HETATM   19  H   UNK N   1      33.309  16.554  10.181  0.00  0.00     0.210 HD
ENDBRANCH  15  18
BRANCH  14  20
HETATM   20  C   UNK N   1      33.817  15.563   5.188  0.00  0.00     0.179 A 
HETATM   21  N   UNK N   1      34.362  14.287   5.602  0.00  0.00    -0.337 N 
HETATM   22  C   UNK N   1      34.580  13.369   4.530  0.00  0.00     0.127 A 
HETATM   23  C   UNK N   1      34.692  14.011   6.914  0.00  0.00     0.243 C 
HETATM   24  C   UNK N   1      34.192  14.114   3.262  0.00  0.00     0.022 A 
HETATM   25  C   UNK N   1      33.684  15.495   3.678  0.00  0.00     0.037 A 
HETATM   26  O   UNK N   1      34.415  14.804   7.796  0.00  0.00    -0.271 OA
BRANCH  23  27
HETATM   27  C   UNK N   1      35.470  12.758   7.287  0.00  0.00     0.176 C 
BRANCH  27  28
HETATM   28  N   UNK N   1      34.710  11.937   8.215  0.00  0.00    -0.346 N 
HETATM   29  C   UNK N   1      33.843  10.975   7.799  0.00  0.00     0.240 C 
HETATM   30  O   UNK N   1      33.595  10.828   6.610  0.00  0.00    -0.271 OA
HETATM   31  H   UNK N   1      34.828  12.082   9.181  0.00  0.00     0.163 HD
BRANCH  29  32
HETATM   32  C   UNK N   1      33.226  10.060   8.810  0.00  0.00     0.167 C 
BRANCH  32  33
HETATM   33  N   UNK N   1      32.351  10.816   9.695  0.00  0.00    -0.418 N 
HETATM   34  H   UNK N   1      32.043  11.780   9.571  0.00  0.00     0.150 HD
HETATM   35  H   UNK N   1      32.010  10.330  10.524  0.00  0.00     0.150 HD
ENDBRANCH  32  33
BRANCH  32  36
HETATM   36  C   UNK N   1      34.283   9.329   9.619  0.00  0.00     0.036 C 
BRANCH  36  37
HETATM   37  C   UNK N   1      33.886   9.250  11.087  0.00  0.00     0.023 C 
BRANCH  37  38
HETATM   38  C   UNK N   1      35.050   9.655  11.976  0.00  0.00     0.138 C 
BRANCH  38  39
HETATM   39  N   UNK N   1      34.555  10.020  13.279  0.00  0.00    -0.227 N 
HETATM   40  C   UNK N   1      34.343  11.245  13.618  0.00  0.00     0.665 C 
HETATM   41  N   UNK N   1      33.837  11.534  14.903  0.00  0.00    -0.235 N 
HETATM   42  N   UNK N   1      34.596  12.305  12.713  0.00  0.00    -0.235 N 
HETATM   43  H   UNK N   1      33.950  10.886  15.635  0.00  0.00     0.174 HD
HETATM   44  H   UNK N   1      33.370  12.386  15.067  0.00  0.00     0.174 HD
HETATM   45  H   UNK N   1      34.475  13.259  12.925  0.00  0.00     0.174 HD
HETATM   46  H   UNK N   1      34.913  12.073  11.811  0.00  0.00     0.174 HD
ATOM     47  HN  UNK N   1      34.366   9.282  13.958  1.00  0.00     0.177 HD
ENDBRANCH  38  39
ENDBRANCH  37  38
ENDBRANCH  36  37
ENDBRANCH  32  36
ENDBRANCH  29  32
ENDBRANCH  27  28
BRANCH  27  48
HETATM   48  C   UNK N   1      36.694  13.226   8.054  0.00  0.00     0.036 C 
BRANCH  48  49
HETATM   49  C   UNK N   1      36.712  12.744   9.480  0.00  0.00     0.023 C 
BRANCH  49  50
HETATM   50  C   UNK N   1      37.217  13.867  10.355  0.00  0.00     0.138 C 
BRANCH  50  51
HETATM   51  N   UNK N   1      36.394  15.034  10.153  0.00  0.00    -0.227 N 
HETATM   52  C   UNK N   1      35.978  15.743  11.141  0.00  0.00     0.665 C 
HETATM   53  N   UNK N   1      35.161  16.867  10.896  0.00  0.00    -0.235 N 
HETATM   54  N   UNK N   1      36.308  15.395  12.473  0.00  0.00    -0.235 N 
HETATM   55  H   UNK N   1      35.276  17.686  11.431  0.00  0.00     0.174 HD
HETATM   56  H   UNK N   1      34.475  16.832  10.191  0.00  0.00     0.174 HD
HETATM   57  H   UNK N   1      36.330  14.517  12.919  0.00  0.00     0.174 HD
HETATM   58  H   UNK N   1      36.554  16.155  13.049  0.00  0.00     0.174 HD
ATOM     59  HN  UNK N   1      36.136  15.302   9.204  1.00  0.00     0.177 HD
ENDBRANCH  50  51
ENDBRANCH  49  50
ENDBRANCH  48  49
ENDBRANCH  27  48
ENDBRANCH  23  27
ENDBRANCH  14  20
ENDBRANCH   8  11
ENDBRANCH   6   7
ENDBRANCH   3   6
ENDBRANCH   1   2
BRANCH   1  60
HETATM   60  C   UNK N   1      27.020  12.864   2.966  0.00  0.00     0.241 C 
HETATM   61  O   UNK N   1      26.067  12.872   2.201  0.00  0.00    -0.271 OA
HETATM   62  N   UNK N   1      26.834  12.831   4.304  0.00  0.00    -0.344 N 
HETATM   63  H   UNK N   1      27.601  12.582   4.868  0.00  0.00     0.163 HD
BRANCH  62  64
HETATM   64  C   UNK N   1      25.586  13.136   4.961  0.00  0.00     0.200 C 
BRANCH  64  65
HETATM   65  C   UNK N   1      24.546  12.060   5.117  0.00  0.00     0.245 C 
HETATM   66  O   UNK N   1      24.863  11.052   5.732  0.00  0.00    -0.271 OA
HETATM   67  N   UNK N   1      23.387  12.079   4.396  0.00  0.00    -0.332 N 
HETATM   68  C   UNK N   1      22.924  13.293   3.719  0.00  0.00     0.184 C 
HETATM   69  C   UNK N   1      22.805  10.805   4.038  0.00  0.00     0.165 C 
HETATM   70  C   UNK N   1      22.365  13.073   2.301  0.00  0.00     0.074 C 
HETATM   71  C   UNK N   1      22.785  11.755   1.717  0.00  0.00    -0.048 A 
HETATM   72  C   UNK N   1      22.990  10.644   2.557  0.00  0.00    -0.034 A 
HETATM   73  C   UNK N   1      22.991  11.636   0.340  0.00  0.00     0.008 A 
HETATM   74  C   UNK N   1      23.417   9.429   2.015  0.00  0.00     0.009 A 
HETATM   75  C   UNK N   1      23.619   9.314   0.635  0.00  0.00     0.001 A 
HETATM   76  C   UNK N   1      23.404  10.416  -0.201  0.00  0.00     0.001 A 
BRANCH  68  77
HETATM   77  C   UNK N   1      22.071  14.146   4.647  0.00  0.00     0.244 C 
HETATM   78  O   UNK N   1      21.056  13.637   5.095  0.00  0.00    -0.271 OA
HETATM   79  N   UNK N   1      22.365  15.457   4.962  0.00  0.00    -0.332 N 
HETATM   80  C   UNK N   1      23.657  16.093   4.738  0.00  0.00     0.092 C 
HETATM   81  C   UNK N   1      21.487  16.328   5.730  0.00  0.00     0.180 C 
HETATM   82  C   UNK N   1      23.519  17.451   5.435  0.00  0.00     0.011 C 
HETATM   83  C   UNK N   1      24.018  16.338   3.284  0.00  0.00     0.026 C 
HETATM   84  C   UNK N   1      22.042  17.692   5.360  0.00  0.00     0.041 C 
HETATM   85  C   UNK N   1      24.324  18.590   4.801  0.00  0.00     0.007 C 
HETATM   86  C   UNK N   1      25.652  18.052   4.283  0.00  0.00     0.001 C 
HETATM   87  C   UNK N   1      25.411  16.995   3.192  0.00  0.00     0.002 C 
BRANCH  81  88
HETATM   88  C   UNK N   1      19.989  16.335   5.483  0.00  0.00     0.241 C 
HETATM   89  O   UNK N   1      19.548  16.402   4.347  0.00  0.00    -0.271 OA
HETATM   90  N   UNK N   1      19.112  16.250   6.530  0.00  0.00    -0.345 N 
HETATM   91  H   UNK N   1      18.150  16.296   6.324  0.00  0.00     0.163 HD
BRANCH  90  92
HETATM   92  C   UNK N   1      19.498  16.097   7.933  0.00  0.00     0.182 C 
BRANCH  92  93
HETATM   93  C   UNK N   1      20.889  15.495   8.081  0.00  0.00     0.038 C 
BRANCH  93  94
HETATM   94  C   UNK N   1      21.009  14.727   9.391  0.00  0.00     0.023 C 
BRANCH  94  95
HETATM   95  C   UNK N   1      21.847  13.480   9.159  0.00  0.00     0.138 C 
BRANCH  95  96
HETATM   96  N   UNK N   1      22.987  13.466  10.044  0.00  0.00    -0.227 N 
HETATM   97  C   UNK N   1      24.009  12.709   9.833  0.00  0.00     0.665 C 
HETATM   98  N   UNK N   1      25.104  12.752  10.722  0.00  0.00    -0.235 N 
HETATM   99  N   UNK N   1      24.051  11.830   8.723  0.00  0.00    -0.235 N 
HETATM  100  H   UNK N   1      25.561  13.476  11.208  0.00  0.00     0.174 HD
HETATM  101  H   UNK N   1      25.495  11.865  10.895  0.00  0.00     0.174 HD
HETATM  102  H   UNK N   1      24.458  11.465   7.905  0.00  0.00     0.174 HD
HETATM  103  H   UNK N   1      23.228  11.299   8.824  0.00  0.00     0.174 HD
ATOM    104  HN  UNK N   1      22.984  14.074  10.863  1.00  0.00     0.177 HD
ENDBRANCH  95  96
ENDBRANCH  94  95
ENDBRANCH  93  94
ENDBRANCH  92  93
BRANCH  92 105
HETATM  105  C   UNK N   1      19.519  17.424   8.641  0.00  0.00     0.163 C 
HETATM  106  O   UNK N   1      20.418  18.225   8.443  0.00  0.00    -0.648 OA
BRANCH 105 107
HETATM  107  O   UNK N   1      18.548  17.720   9.528  0.00  0.00    -0.775 OA
HETATM  108  H   UNK N   1      18.661  18.224  10.310  0.00  0.00     0.167 HD
ENDBRANCH 105 107
ENDBRANCH  92 105
ENDBRANCH  90  92
ENDBRANCH  81  88
ENDBRANCH  68  77
ENDBRANCH  64  65
BRANCH  64 109
HETATM  109  C   UNK N   1      25.907  13.768   6.317  0.00  0.00     0.199 C 
BRANCH 109 110
HETATM  110  O   UNK N   1      26.657  14.939   6.177  0.00  0.00    -0.398 OA
HETATM  111  H   UNK N   1      27.452  15.180   6.677  0.00  0.00     0.209 HD
ENDBRANCH 109 110
ENDBRANCH  64 109
ENDBRANCH  62  64
ENDBRANCH   1  60
BRANCH   1 112
HETATM  112  C   UNK N   1      28.898  12.730   1.192  0.00  0.00     0.081 C 
BRANCH 112 113
HETATM  113  C   UNK N   1      30.242  12.063   1.257  0.00  0.00    -0.015 A 
HETATM  114  S   UNK N   1      31.087  11.540  -0.059  0.00  0.00    -0.106 SA
HETATM  115  C   UNK N   1      32.405  10.866   0.690  0.00  0.00     0.050 A 
HETATM  116  C   UNK N   1      32.200  11.044   2.065  0.00  0.00     0.008 A 
HETATM  117  C   UNK N   1      30.986  11.713   2.386  0.00  0.00     0.015 A 
ENDBRANCH 112 113
ENDBRANCH   1 112
TORSDOF 34
ENDMDL
MODEL 8
REMARK VINA RESULT:      -6.1      1.415      2.074
REMARK WARNING: 32 MAX_TORS EXCEEDED!!!
REMARK  34 active torsions:
REMARK  status: ('A' for Active; 'I' for Inactive)
REMARK    1  A    between atoms: O_5  and  C_58 
REMARK    2  A    between atoms: O_7  and  C_62 
REMARK    3  A    between atoms: C_71  and  O_9 
REMARK       I    between atoms: N_15  and  C_45 
REMARK       I    between atoms: N_16  and  C_53 
REMARK       I    between atoms: N_17  and  C_46 
REMARK    4  A    between atoms: C_51  and  N_17 
REMARK    5  A    between atoms: C_56  and  N_18 
REMARK       I    between atoms: N_18  and  C_64 
REMARK       I    between atoms: N_19  and  C_73 
REMARK       I    between atoms: N_20  and  C_76 
REMARK    6  A    between atoms: N_21  and  C_63 
REMARK    7  A    between atoms: C_67  and  N_23 
REMARK       I    between atoms: N_23  and  C_80 
REMARK       I    between atoms: N_24  and  C_77 
REMARK    8  A    between atoms: N_24  and  C_82 
REMARK    9  A    between atoms: N_25  and  C_78 
REMARK       I    between atoms: N_25  and  C_86 
REMARK       I    between atoms: N_26  and  C_79 
REMARK       I    between atoms: N_27  and  C_79 
REMARK   10  A    between atoms: N_28  and  C_87 
REMARK   11  A    between atoms: C_88  and  N_30 
REMARK   12  A    between atoms: N_31  and  C_93 
REMARK       I    between atoms: N_33  and  C_94 
REMARK       I    between atoms: N_34  and  C_94 
REMARK       I    between atoms: N_35  and  C_95 
REMARK       I    between atoms: N_36  and  C_95 
REMARK   13  A    between atoms: C_40  and  C_46 
REMARK   14  A    between atoms: C_45  and  C_47 
REMARK   15  A    between atoms: C_51  and  C_54 
REMARK   16  A    between atoms: C_51  and  C_58 
REMARK   17  A    between atoms: C_53  and  C_56 
REMARK   18  A    between atoms: C_54  and  C_59 
REMARK   19  A    between atoms: C_56  and  C_62 
REMARK   20  A    between atoms: C_59  and  C_63 
REMARK   21  A    between atoms: C_64  and  C_67 
REMARK   22  A    between atoms: C_65  and  C_73 
REMARK   23  A    between atoms: C_66  and  C_77 
REMARK   24  A    between atoms: C_67  and  C_75 
REMARK   25  A    between atoms: C_75  and  C_83 
REMARK   26  A    between atoms: C_76  and  C_78 
REMARK   27  A    between atoms: C_78  and  C_81 
REMARK   28  A    between atoms: C_80  and  C_82 
REMARK   29  A    between atoms: C_81  and  C_84 
REMARK   30  A    between atoms: C_84  and  C_87 
REMARK   31  A    between atoms: C_86  and  C_88 
REMARK   32  A    between atoms: C_88  and  C_91 
REMARK   33  A    between atoms: C_91  and  C_92 
REMARK   34  A    between atoms: C_92  and  C_93 
ROOT
HETATM    1  C   UNK N   1      20.917  14.756   2.932  0.00  0.00     0.181 C 
ENDROOT
BRANCH   1   2
HETATM    2  N   UNK N   1      20.134  13.552   2.809  0.00  0.00    -0.346 N 
HETATM    3  C   UNK N   1      19.282  13.180   3.788  0.00  0.00     0.236 C 
HETATM    4  O   UNK N   1      18.907  13.986   4.629  0.00  0.00    -0.272 OA
HETATM    5  H   UNK N   1      20.221  12.995   2.001  0.00  0.00     0.163 HD
BRANCH   3   6
HETATM    6  C   UNK N   1      18.984  11.741   3.968  0.00  0.00     0.225 C 
BRANCH   6   7
HETATM    7  N   UNK N   1      19.847  11.032   3.060  0.00  0.00    -0.351 N 
HETATM    8  C   UNK N   1      19.719   9.737   2.698  0.00  0.00     0.241 C 
HETATM    9  O   UNK N   1      18.796   9.061   3.127  0.00  0.00    -0.271 OA
HETATM   10  H   UNK N   1      20.598  11.533   2.669  0.00  0.00     0.163 HD
BRANCH   8  11
HETATM   11  C   UNK N   1      20.767   9.092   1.822  0.00  0.00     0.181 C 
HETATM   12  N   UNK N   1      21.824   8.379   2.466  0.00  0.00    -0.334 N 
HETATM   13  C   UNK N   1      22.568   7.677   1.471  0.00  0.00     0.158 C 
HETATM   14  C   UNK N   1      22.506   8.842   3.560  0.00  0.00     0.243 C 
HETATM   15  C   UNK N   1      22.535   8.685   0.292  0.00  0.00     0.138 C 
HETATM   16  C   UNK N   1      21.409   9.700   0.611  0.00  0.00     0.068 C 
HETATM   17  O   UNK N   1      22.417  10.009   3.901  0.00  0.00    -0.271 OA
BRANCH  15  18
HETATM   18  O   UNK N   1      23.746   9.380   0.228  0.00  0.00    -0.394 OA
HETATM   19  H   UNK N   1      24.192  10.235   0.122  0.00  0.00     0.210 HD
ENDBRANCH  15  18
BRANCH  14  20
HETATM   20  C   UNK N   1      23.270   7.935   4.468  0.00  0.00     0.179 A 
HETATM   21  N   UNK N   1      24.524   8.543   4.861  0.00  0.00    -0.337 N 
HETATM   22  C   UNK N   1      24.714   8.630   6.274  0.00  0.00     0.127 A 
HETATM   23  C   UNK N   1      25.473   8.948   3.942  0.00  0.00     0.243 C 
HETATM   24  C   UNK N   1      23.493   7.971   6.897  0.00  0.00     0.022 A 
HETATM   25  C   UNK N   1      22.564   7.554   5.756  0.00  0.00     0.037 A 
HETATM   26  O   UNK N   1      25.225   8.919   2.751  0.00  0.00    -0.271 OA
BRANCH  23  27
HETATM   27  C   UNK N   1      26.867   9.370   4.380  0.00  0.00     0.176 C 
BRANCH  27  28
HETATM   28  N   UNK N   1      27.383  10.419   3.517  0.00  0.00    -0.346 N 
HETATM   29  C   UNK N   1      28.081  11.484   3.998  0.00  0.00     0.240 C 
HETATM   30  O   UNK N   1      28.218  11.650   5.202  0.00  0.00    -0.271 OA
HETATM   31  H   UNK N   1      27.222  10.356   2.548  0.00  0.00     0.163 HD
BRANCH  29  32
HETATM   32  C   UNK N   1      28.722  12.432   3.034  0.00  0.00     0.167 C 
BRANCH  32  33
HETATM   33  N   UNK N   1      28.487  13.805   3.458  0.00  0.00    -0.418 N 
HETATM   34  H   UNK N   1      28.027  14.539   2.919  0.00  0.00     0.150 HD
HETATM   35  H   UNK N   1      28.815  14.059   4.389  0.00  0.00     0.150 HD
ENDBRANCH  32  33
BRANCH  32  36
HETATM   36  C   UNK N   1      28.205  12.226   1.621  0.00  0.00     0.036 C 
BRANCH  36  37
HETATM   37  C   UNK N   1      29.266  12.599   0.594  0.00  0.00     0.023 C 
BRANCH  37  38
HETATM   38  C   UNK N   1      30.161  11.407   0.297  0.00  0.00     0.138 C 
BRANCH  38  39
HETATM   39  N   UNK N   1      31.439  11.873  -0.180  0.00  0.00    -0.227 N 
HETATM   40  C   UNK N   1      31.727  11.927  -1.434  0.00  0.00     0.665 C 
HETATM   41  N   UNK N   1      32.990  12.414  -1.838  0.00  0.00    -0.235 N 
HETATM   42  N   UNK N   1      30.791  11.521  -2.416  0.00  0.00    -0.235 N 
HETATM   43  H   UNK N   1      33.747  12.400  -1.209  0.00  0.00     0.174 HD
HETATM   44  H   UNK N   1      33.112  12.767  -2.749  0.00  0.00     0.174 HD
HETATM   45  H   UNK N   1      30.965  11.518  -3.385  0.00  0.00     0.174 HD
HETATM   46  H   UNK N   1      29.905  11.221  -2.109  0.00  0.00     0.174 HD
ATOM     47  HN  UNK N   1      32.139  12.170   0.499  1.00  0.00     0.177 HD
ENDBRANCH  38  39
ENDBRANCH  37  38
ENDBRANCH  36  37
ENDBRANCH  32  36
ENDBRANCH  29  32
ENDBRANCH  27  28
BRANCH  27  48
HETATM   48  C   UNK N   1      27.768   8.168   4.157  0.00  0.00     0.036 C 
BRANCH  48  49
HETATM   49  C   UNK N   1      28.925   8.466   3.241  0.00  0.00     0.023 C 
BRANCH  49  50
HETATM   50  C   UNK N   1      30.204   8.089   3.952  0.00  0.00     0.138 C 
BRANCH  50  51
HETATM   51  N   UNK N   1      31.016   9.269   4.125  0.00  0.00    -0.227 N 
HETATM   52  C   UNK N   1      31.092   9.873   5.257  0.00  0.00     0.665 C 
HETATM   53  N   UNK N   1      31.887  11.033   5.375  0.00  0.00    -0.235 N 
HETATM   54  N   UNK N   1      30.369   9.404   6.380  0.00  0.00    -0.235 N 
HETATM   55  H   UNK N   1      32.412  11.190   6.193  0.00  0.00     0.174 HD
HETATM   56  H   UNK N   1      31.915  11.686   4.638  0.00  0.00     0.174 HD
HETATM   57  H   UNK N   1      29.446   9.068   6.452  0.00  0.00     0.174 HD
HETATM   58  H   UNK N   1      30.870   9.416   7.227  0.00  0.00     0.174 HD
ATOM     59  HN  UNK N   1      31.541   9.632   3.330  1.00  0.00     0.177 HD
ENDBRANCH  50  51
ENDBRANCH  49  50
ENDBRANCH  48  49
ENDBRANCH  27  48
ENDBRANCH  23  27
ENDBRANCH  14  20
ENDBRANCH   8  11
ENDBRANCH   6   7
ENDBRANCH   3   6
ENDBRANCH   1   2
BRANCH   1  60
HETATM   60  C   UNK N   1      22.211  14.455   2.232  0.00  0.00     0.241 C 
HETATM   61  O   UNK N   1      22.398  13.353   1.736  0.00  0.00    -0.271 OA
HETATM   62  N   UNK N   1      23.250  15.267   2.526  0.00  0.00    -0.344 N 
HETATM   63  H   UNK N   1      23.058  16.218   2.690  0.00  0.00     0.163 HD
BRANCH  62  64
HETATM   64  C   UNK N   1      24.624  14.833   2.615  0.00  0.00     0.200 C 
BRANCH  64  65
HETATM   65  C   UNK N   1      24.988  13.707   3.545  0.00  0.00     0.245 C 
HETATM   66  O   UNK N   1      25.016  12.576   3.080  0.00  0.00    -0.271 OA
HETATM   67  N   UNK N   1      25.037  13.886   4.897  0.00  0.00    -0.332 N 
HETATM   68  C   UNK N   1      25.099  15.223   5.492  0.00  0.00     0.184 C 
HETATM   69  C   UNK N   1      24.692  12.757   5.731  0.00  0.00     0.165 C 
HETATM   70  C   UNK N   1      24.205  15.425   6.731  0.00  0.00     0.074 C 
HETATM   71  C   UNK N   1      23.134  14.379   6.840  0.00  0.00    -0.048 A 
HETATM   72  C   UNK N   1      23.370  13.074   6.366  0.00  0.00    -0.034 A 
HETATM   73  C   UNK N   1      21.895  14.705   7.398  0.00  0.00     0.008 A 
HETATM   74  C   UNK N   1      22.358  12.113   6.435  0.00  0.00     0.009 A 
HETATM   75  C   UNK N   1      21.120  12.444   6.998  0.00  0.00     0.001 A 
HETATM   76  C   UNK N   1      20.890  13.738   7.480  0.00  0.00     0.001 A 
BRANCH  68  77
HETATM   77  C   UNK N   1      26.539  15.699   5.625  0.00  0.00     0.244 C 
HETATM   78  O   UNK N   1      27.319  14.957   6.202  0.00  0.00    -0.271 OA
HETATM   79  N   UNK N   1      26.982  16.923   5.170  0.00  0.00    -0.332 N 
HETATM   80  C   UNK N   1      26.256  17.772   4.234  0.00  0.00     0.092 C 
HETATM   81  C   UNK N   1      28.317  17.450   5.416  0.00  0.00     0.180 C 
HETATM   82  C   UNK N   1      27.253  18.889   3.908  0.00  0.00     0.011 C 
HETATM   83  C   UNK N   1      24.990  18.408   4.780  0.00  0.00     0.026 C 
HETATM   84  C   UNK N   1      28.095  18.928   5.146  0.00  0.00     0.041 C 
HETATM   85  C   UNK N   1      26.622  20.250   3.594  0.00  0.00     0.007 C 
HETATM   86  C   UNK N   1      25.320  20.047   2.828  0.00  0.00     0.001 C 
HETATM   87  C   UNK N   1      24.314  19.259   3.685  0.00  0.00     0.002 C 
BRANCH  81  88
HETATM   88  C   UNK N   1      28.973  17.303   6.777  0.00  0.00     0.241 C 
HETATM   89  O   UNK N   1      28.434  17.751   7.777  0.00  0.00    -0.271 OA
HETATM   90  N   UNK N   1      30.168  16.651   6.906  0.00  0.00    -0.345 N 
HETATM   91  H   UNK N   1      30.573  16.612   7.802  0.00  0.00     0.163 HD
BRANCH  90  92
HETATM   92  C   UNK N   1      30.891  16.007   5.808  0.00  0.00     0.182 C 
BRANCH  92  93
HETATM   93  C   UNK N   1      32.204  16.714   5.497  0.00  0.00     0.038 C 
BRANCH  93  94
HETATM   94  C   UNK N   1      32.082  17.544   4.225  0.00  0.00     0.023 C 
BRANCH  94  95
HETATM   95  C   UNK N   1      31.946  16.609   3.035  0.00  0.00     0.138 C 
BRANCH  95  96
HETATM   96  N   UNK N   1      33.194  15.933   2.779  0.00  0.00    -0.227 N 
HETATM   97  C   UNK N   1      33.264  14.654   2.631  0.00  0.00     0.665 C 
HETATM   98  N   UNK N   1      34.510  14.049   2.362  0.00  0.00    -0.235 N 
HETATM   99  N   UNK N   1      32.107  13.843   2.735  0.00  0.00    -0.235 N 
HETATM  100  H   UNK N   1      35.285  14.298   1.809  0.00  0.00     0.174 HD
HETATM  101  H   UNK N   1      34.631  13.192   2.831  0.00  0.00     0.174 HD
HETATM  102  H   UNK N   1      31.470  13.171   2.400  0.00  0.00     0.174 HD
HETATM  103  H   UNK N   1      31.743  14.080   3.618  0.00  0.00     0.174 HD
ATOM    104  HN  UNK N   1      34.051  16.484   2.715  1.00  0.00     0.177 HD
ENDBRANCH  95  96
ENDBRANCH  94  95
ENDBRANCH  93  94
ENDBRANCH  92  93
BRANCH  92 105
HETATM  105  C   UNK N   1      31.231  14.580   6.142  0.00  0.00     0.163 C 
HETATM  106  O   UNK N   1      30.827  13.661   5.447  0.00  0.00    -0.648 OA
BRANCH 105 107
HETATM  107  O   UNK N   1      31.966  14.311   7.239  0.00  0.00    -0.775 OA
HETATM  108  H   UNK N   1      31.698  14.459   8.124  0.00  0.00     0.167 HD
ENDBRANCH 105 107
ENDBRANCH  92 105
ENDBRANCH  90  92
ENDBRANCH  81  88
ENDBRANCH  68  77
ENDBRANCH  64  65
BRANCH  64 109
HETATM  109  C   UNK N   1      25.119  14.537   1.199  0.00  0.00     0.199 C 
BRANCH 109 110
HETATM  110  O   UNK N   1      25.944  15.558   0.717  0.00  0.00    -0.398 OA
HETATM  111  H   UNK N   1      26.014  16.459   1.067  0.00  0.00     0.209 HD
ENDBRANCH 109 110
ENDBRANCH  64 109
ENDBRANCH  62  64
ENDBRANCH   1  60
BRANCH   1 112
HETATM  112  C   UNK N   1      20.161  16.011   2.484  0.00  0.00     0.081 C 
BRANCH 112 113
HETATM  113  C   UNK N   1      20.487  17.287   3.207  0.00  0.00    -0.015 A 
HETATM  114  S   UNK N   1      21.000  17.366   4.772  0.00  0.00    -0.106 SA
HETATM  115  C   UNK N   1      21.112  19.011   4.960  0.00  0.00     0.050 A 
HETATM  116  C   UNK N   1      20.726  19.566   3.732  0.00  0.00     0.008 A 
HETATM  117  C   UNK N   1      20.372  18.602   2.748  0.00  0.00     0.015 A 
ENDBRANCH 112 113
ENDBRANCH   1 112
TORSDOF 34
ENDMDL
MODEL 9
REMARK VINA RESULT:      -6.1      2.749      9.146
REMARK WARNING: 32 MAX_TORS EXCEEDED!!!
REMARK  34 active torsions:
REMARK  status: ('A' for Active; 'I' for Inactive)
REMARK    1  A    between atoms: O_5  and  C_58 
REMARK    2  A    between atoms: O_7  and  C_62 
REMARK    3  A    between atoms: C_71  and  O_9 
REMARK       I    between atoms: N_15  and  C_45 
REMARK       I    between atoms: N_16  and  C_53 
REMARK       I    between atoms: N_17  and  C_46 
REMARK    4  A    between atoms: C_51  and  N_17 
REMARK    5  A    between atoms: C_56  and  N_18 
REMARK       I    between atoms: N_18  and  C_64 
REMARK       I    between atoms: N_19  and  C_73 
REMARK       I    between atoms: N_20  and  C_76 
REMARK    6  A    between atoms: N_21  and  C_63 
REMARK    7  A    between atoms: C_67  and  N_23 
REMARK       I    between atoms: N_23  and  C_80 
REMARK       I    between atoms: N_24  and  C_77 
REMARK    8  A    between atoms: N_24  and  C_82 
REMARK    9  A    between atoms: N_25  and  C_78 
REMARK       I    between atoms: N_25  and  C_86 
REMARK       I    between atoms: N_26  and  C_79 
REMARK       I    between atoms: N_27  and  C_79 
REMARK   10  A    between atoms: N_28  and  C_87 
REMARK   11  A    between atoms: C_88  and  N_30 
REMARK   12  A    between atoms: N_31  and  C_93 
REMARK       I    between atoms: N_33  and  C_94 
REMARK       I    between atoms: N_34  and  C_94 
REMARK       I    between atoms: N_35  and  C_95 
REMARK       I    between atoms: N_36  and  C_95 
REMARK   13  A    between atoms: C_40  and  C_46 
REMARK   14  A    between atoms: C_45  and  C_47 
REMARK   15  A    between atoms: C_51  and  C_54 
REMARK   16  A    between atoms: C_51  and  C_58 
REMARK   17  A    between atoms: C_53  and  C_56 
REMARK   18  A    between atoms: C_54  and  C_59 
REMARK   19  A    between atoms: C_56  and  C_62 
REMARK   20  A    between atoms: C_59  and  C_63 
REMARK   21  A    between atoms: C_64  and  C_67 
REMARK   22  A    between atoms: C_65  and  C_73 
REMARK   23  A    between atoms: C_66  and  C_77 
REMARK   24  A    between atoms: C_67  and  C_75 
REMARK   25  A    between atoms: C_75  and  C_83 
REMARK   26  A    between atoms: C_76  and  C_78 
REMARK   27  A    between atoms: C_78  and  C_81 
REMARK   28  A    between atoms: C_80  and  C_82 
REMARK   29  A    between atoms: C_81  and  C_84 
REMARK   30  A    between atoms: C_84  and  C_87 
REMARK   31  A    between atoms: C_86  and  C_88 
REMARK   32  A    between atoms: C_88  and  C_91 
REMARK   33  A    between atoms: C_91  and  C_92 
REMARK   34  A    between atoms: C_92  and  C_93 
ROOT
HETATM    1  C   UNK N   1      26.725  15.970   5.916  0.00  0.00     0.181 C 
ENDROOT
BRANCH   1   2
HETATM    2  N   UNK N   1      27.522  14.771   5.830  0.00  0.00    -0.346 N 
HETATM    3  C   UNK N   1      28.016  14.355   4.646  0.00  0.00     0.236 C 
HETATM    4  O   UNK N   1      28.089  15.123   3.695  0.00  0.00    -0.272 OA
HETATM    5  H   UNK N   1      27.707  14.250   6.646  0.00  0.00     0.163 HD
BRANCH   3   6
HETATM    6  C   UNK N   1      28.259  12.909   4.439  0.00  0.00     0.225 C 
BRANCH   6   7
HETATM    7  N   UNK N   1      29.595  12.794   3.917  0.00  0.00    -0.351 N 
HETATM    8  C   UNK N   1      30.209  11.644   3.565  0.00  0.00     0.241 C 
HETATM    9  O   UNK N   1      29.623  10.576   3.653  0.00  0.00    -0.271 OA
HETATM   10  H   UNK N   1      30.109  13.627   3.807  0.00  0.00     0.163 HD
BRANCH   8  11
HETATM   11  C   UNK N   1      31.658  11.662   3.136  0.00  0.00     0.181 C 
HETATM   12  N   UNK N   1      32.631  11.181   4.063  0.00  0.00    -0.334 N 
HETATM   13  C   UNK N   1      33.886  11.083   3.392  0.00  0.00     0.158 C 
HETATM   14  C   UNK N   1      32.647  11.502   5.395  0.00  0.00     0.243 C 
HETATM   15  C   UNK N   1      33.834  12.322   2.458  0.00  0.00     0.138 C 
HETATM   16  C   UNK N   1      32.353  12.772   2.406  0.00  0.00     0.068 C 
HETATM   17  O   UNK N   1      31.971  12.423   5.821  0.00  0.00    -0.271 OA
BRANCH  15  18
HETATM   18  O   UNK N   1      34.589  13.362   3.008  0.00  0.00    -0.394 OA
HETATM   19  H   UNK N   1      34.591  14.246   3.407  0.00  0.00     0.210 HD
ENDBRANCH  15  18
BRANCH  14  20
HETATM   20  C   UNK N   1      33.365  10.673   6.409  0.00  0.00     0.179 A 
HETATM   21  N   UNK N   1      33.962  11.513   7.426  0.00  0.00    -0.337 N 
HETATM   22  C   UNK N   1      33.575  11.181   8.760  0.00  0.00     0.127 A 
HETATM   23  C   UNK N   1      34.870  12.510   7.127  0.00  0.00     0.243 C 
HETATM   24  C   UNK N   1      32.668   9.966   8.637  0.00  0.00     0.022 A 
HETATM   25  C   UNK N   1      32.512   9.659   7.147  0.00  0.00     0.037 A 
HETATM   26  O   UNK N   1      35.106  12.798   5.967  0.00  0.00    -0.271 OA
BRANCH  23  27
HETATM   27  C   UNK N   1      35.651  13.221   8.221  0.00  0.00     0.176 C 
BRANCH  27  28
HETATM   28  N   UNK N   1      35.418  14.655   8.172  0.00  0.00    -0.346 N 
HETATM   29  C   UNK N   1      34.691  15.310   9.117  0.00  0.00     0.240 C 
HETATM   30  O   UNK N   1      34.116  14.693  10.004  0.00  0.00    -0.271 OA
HETATM   31  H   UNK N   1      35.802  15.172   7.427  0.00  0.00     0.163 HD
BRANCH  29  32
HETATM   32  C   UNK N   1      34.635  16.805   9.090  0.00  0.00     0.167 C 
BRANCH  32  33
HETATM   33  N   UNK N   1      35.027  17.340  10.386  0.00  0.00    -0.418 N 
HETATM   34  H   UNK N   1      35.493  16.834  11.140  0.00  0.00     0.150 HD
HETATM   35  H   UNK N   1      34.815  18.322  10.559  0.00  0.00     0.150 HD
ENDBRANCH  32  33
BRANCH  32  36
HETATM   36  C   UNK N   1      33.250  17.305   8.716  0.00  0.00     0.036 C 
BRANCH  36  37
HETATM   37  C   UNK N   1      33.211  17.764   7.265  0.00  0.00     0.023 C 
BRANCH  37  38
HETATM   38  C   UNK N   1      32.184  16.964   6.481  0.00  0.00     0.138 C 
BRANCH  38  39
HETATM   39  N   UNK N   1      32.443  17.099   5.071  0.00  0.00    -0.227 N 
HETATM   40  C   UNK N   1      32.998  16.164   4.380  0.00  0.00     0.665 C 
HETATM   41  N   UNK N   1      33.205  16.349   2.996  0.00  0.00    -0.235 N 
HETATM   42  N   UNK N   1      33.389  14.945   4.986  0.00  0.00    -0.235 N 
HETATM   43  H   UNK N   1      33.243  17.259   2.621  0.00  0.00     0.174 HD
HETATM   44  H   UNK N   1      33.312  15.568   2.406  0.00  0.00     0.174 HD
HETATM   45  H   UNK N   1      33.838  14.206   4.514  0.00  0.00     0.174 HD
HETATM   46  H   UNK N   1      33.199  14.827   5.944  0.00  0.00     0.174 HD
ATOM     47  HN  UNK N   1      32.178  17.965   4.602  1.00  0.00     0.177 HD
ENDBRANCH  38  39
ENDBRANCH  37  38
ENDBRANCH  36  37
ENDBRANCH  32  36
ENDBRANCH  29  32
ENDBRANCH  27  28
BRANCH  27  48
HETATM   48  C   UNK N   1      37.121  13.029   7.892  0.00  0.00     0.036 C 
BRANCH  48  49
HETATM   49  C   UNK N   1      38.033  13.450   9.014  0.00  0.00     0.023 C 
BRANCH  49  50
HETATM   50  C   UNK N   1      37.673  12.651  10.245  0.00  0.00     0.138 C 
BRANCH  50  51
HETATM   51  N   UNK N   1      37.655  13.527  11.391  0.00  0.00    -0.227 N 
HETATM   52  C   UNK N   1      36.626  13.614  12.156  0.00  0.00     0.665 C 
HETATM   53  N   UNK N   1      36.649  14.496  13.256  0.00  0.00    -0.235 N 
HETATM   54  N   UNK N   1      35.461  12.854  11.892  0.00  0.00    -0.235 N 
HETATM   55  H   UNK N   1      36.228  14.235  14.107  0.00  0.00     0.174 HD
HETATM   56  H   UNK N   1      37.085  15.375  13.172  0.00  0.00     0.174 HD
HETATM   57  H   UNK N   1      35.000  12.662  11.044  0.00  0.00     0.174 HD
HETATM   58  H   UNK N   1      35.042  12.452  12.688  0.00  0.00     0.174 HD
ATOM     59  HN  UNK N   1      38.479  14.091  11.598  1.00  0.00     0.177 HD
ENDBRANCH  50  51
ENDBRANCH  49  50
ENDBRANCH  48  49
ENDBRANCH  27  48
ENDBRANCH  23  27
ENDBRANCH  14  20
ENDBRANCH   8  11
ENDBRANCH   6   7
ENDBRANCH   3   6
ENDBRANCH   1   2
BRANCH   1  60
HETATM   60  C   UNK N   1      25.322  15.491   6.157  0.00  0.00     0.241 C 
HETATM   61  O   UNK N   1      25.070  14.295   6.131  0.00  0.00    -0.271 OA
HETATM   62  N   UNK N   1      24.345  16.409   5.997  0.00  0.00    -0.344 N 
HETATM   63  H   UNK N   1      24.537  17.337   6.263  0.00  0.00     0.163 HD
BRANCH  62  64
HETATM   64  C   UNK N   1      23.035  16.121   5.462  0.00  0.00     0.200 C 
BRANCH  64  65
HETATM   65  C   UNK N   1      21.892  15.851   6.401  0.00  0.00     0.245 C 
HETATM   66  O   UNK N   1      21.538  16.761   7.138  0.00  0.00    -0.271 OA
HETATM   67  N   UNK N   1      21.430  14.585   6.617  0.00  0.00    -0.332 N 
HETATM   68  C   UNK N   1      21.754  13.485   5.706  0.00  0.00     0.184 C 
HETATM   69  C   UNK N   1      20.898  14.284   7.927  0.00  0.00     0.165 C 
HETATM   70  C   UNK N   1      22.112  12.154   6.396  0.00  0.00     0.074 C 
HETATM   71  C   UNK N   1      22.478  12.339   7.840  0.00  0.00    -0.048 A 
HETATM   72  C   UNK N   1      21.881  13.367   8.594  0.00  0.00    -0.034 A 
HETATM   73  C   UNK N   1      23.426  11.500   8.432  0.00  0.00     0.008 A 
HETATM   74  C   UNK N   1      22.251  13.559   9.927  0.00  0.00     0.009 A 
HETATM   75  C   UNK N   1      23.199  12.714  10.517  0.00  0.00     0.001 A 
HETATM   76  C   UNK N   1      23.783  11.685   9.770  0.00  0.00     0.001 A 
BRANCH  68  77
HETATM   77  C   UNK N   1      20.743  13.396   4.571  0.00  0.00     0.244 C 
HETATM   78  O   UNK N   1      19.580  13.186   4.878  0.00  0.00    -0.271 OA
HETATM   79  N   UNK N   1      21.084  13.496   3.238  0.00  0.00    -0.332 N 
HETATM   80  C   UNK N   1      22.352  14.017   2.744  0.00  0.00     0.092 C 
HETATM   81  C   UNK N   1      20.154  13.271   2.140  0.00  0.00     0.180 C 
HETATM   82  C   UNK N   1      22.143  14.101   1.228  0.00  0.00     0.011 C 
HETATM   83  C   UNK N   1      23.563  13.141   3.010  0.00  0.00     0.026 C 
HETATM   84  C   UNK N   1      21.120  13.033   0.992  0.00  0.00     0.041 C 
HETATM   85  C   UNK N   1      23.406  13.888   0.386  0.00  0.00     0.007 C 
HETATM   86  C   UNK N   1      24.605  14.505   1.097  0.00  0.00     0.001 C 
HETATM   87  C   UNK N   1      24.833  13.817   2.454  0.00  0.00     0.002 C 
BRANCH  81  88
HETATM   88  C   UNK N   1      19.164  12.121   2.182  0.00  0.00     0.241 C 
HETATM   89  O   UNK N   1      17.967  12.329   2.058  0.00  0.00    -0.271 OA
HETATM   90  N   UNK N   1      19.600  10.834   2.342  0.00  0.00    -0.345 N 
HETATM   91  H   UNK N   1      18.918  10.126   2.400  0.00  0.00     0.163 HD
BRANCH  90  92
HETATM   92  C   UNK N   1      21.004  10.433   2.435  0.00  0.00     0.182 C 
BRANCH  92  93
HETATM   93  C   UNK N   1      21.314   9.741   3.757  0.00  0.00     0.038 C 
BRANCH  93  94
HETATM   94  C   UNK N   1      22.551   8.861   3.628  0.00  0.00     0.023 C 
BRANCH  94  95
HETATM   95  C   UNK N   1      23.758   9.628   4.143  0.00  0.00     0.138 C 
BRANCH  95  96
HETATM   96  N   UNK N   1      24.684   9.893   3.069  0.00  0.00    -0.227 N 
HETATM   97  C   UNK N   1      25.958   9.949   3.259  0.00  0.00     0.665 C 
HETATM   98  N   UNK N   1      26.817  10.192   2.166  0.00  0.00    -0.235 N 
HETATM   99  N   UNK N   1      26.512   9.773   4.551  0.00  0.00    -0.235 N 
HETATM  100  H   UNK N   1      26.827   9.898   1.227  0.00  0.00     0.174 HD
HETATM  101  H   UNK N   1      27.569  10.785   2.392  0.00  0.00     0.174 HD
HETATM  102  H   UNK N   1      27.113   9.340   5.199  0.00  0.00     0.174 HD
HETATM  103  H   UNK N   1      26.040  10.446   5.093  0.00  0.00     0.174 HD
ATOM    104  HN  UNK N   1      24.319  10.042   2.127  1.00  0.00     0.177 HD
ENDBRANCH  95  96
ENDBRANCH  94  95
ENDBRANCH  93  94
ENDBRANCH  92  93
BRANCH  92 105
HETATM  105  C   UNK N   1      21.368   9.467   1.341  0.00  0.00     0.163 C 
HETATM  106  O   UNK N   1      20.648   8.517   1.079  0.00  0.00    -0.648 OA
BRANCH 105 107
HETATM  107  O   UNK N   1      22.520   9.636   0.661  0.00  0.00    -0.775 OA
HETATM  108  H   UNK N   1      23.380   9.479   1.000  0.00  0.00     0.167 HD
ENDBRANCH 105 107
ENDBRANCH  92 105
ENDBRANCH  90  92
ENDBRANCH  81  88
ENDBRANCH  68  77
ENDBRANCH  64  65
BRANCH  64 109
HETATM  109  C   UNK N   1      22.668  17.237   4.482  0.00  0.00     0.199 C 
BRANCH 109 110
HETATM  110  O   UNK N   1      22.771  18.499   5.076  0.00  0.00    -0.398 OA
HETATM  111  H   UNK N   1      23.035  18.689   5.989  0.00  0.00     0.209 HD
ENDBRANCH 109 110
ENDBRANCH  64 109
ENDBRANCH  62  64
ENDBRANCH   1  60
BRANCH   1 112
HETATM  112  C   UNK N   1      27.289  16.994   6.907  0.00  0.00     0.081 C 
BRANCH 112 113
HETATM  113  C   UNK N   1      27.398  18.411   6.421  0.00  0.00    -0.015 A 
HETATM  114  S   UNK N   1      27.082  18.893   4.875  0.00  0.00    -0.106 SA
HETATM  115  C   UNK N   1      27.444  20.508   4.993  0.00  0.00     0.050 A 
HETATM  116  C   UNK N   1      27.844  20.717   6.319  0.00  0.00     0.008 A 
HETATM  117  C   UNK N   1      27.822  19.542   7.122  0.00  0.00     0.015 A 
ENDBRANCH 112 113
ENDBRANCH   1 112
TORSDOF 34
ENDMDL
