MODEL 1
REMARK VINA RESULT:      -6.5      0.000      0.000
REMARK  6 active torsions:
REMARK  status: ('A' for Active; 'I' for Inactive)
REMARK    1  A    between atoms: O_5  and  C_20 
REMARK    2  A    between atoms: O_7  and  C_21 
REMARK    3  A    between atoms: N_8  and  C_12 
REMARK       I    between atoms: N_8  and  C_17 
REMARK    4  A    between atoms: N_9  and  C_13 
REMARK       I    between atoms: N_9  and  C_18 
REMARK    5  A    between atoms: C_17  and  C_20 
REMARK    6  A    between atoms: C_18  and  C_21 
ROOT
HETATM    1 Cl   UNK N   1      30.405  19.462   9.002  0.00  0.00    -0.079 Cl
HETATM    2  N   UNK N   1      28.993  14.345   4.246  0.00  0.00    -0.191 NA
HETATM    3  C   UNK N   1      30.063  18.077   7.956  0.00  0.00     0.087 A 
HETATM    4  C   UNK N   1      28.800  17.943   7.402  0.00  0.00     0.060 A 
HETATM    5  C   UNK N   1      31.070  17.155   7.641  0.00  0.00     0.060 A 
HETATM    6  C   UNK N   1      29.524  16.004   6.162  0.00  0.00     0.049 A 
HETATM    7  C   UNK N   1      28.545  16.894   6.531  0.00  0.00     0.054 A 
HETATM    8  C   UNK N   1      30.817  16.115   6.710  0.00  0.00     0.054 A 
HETATM    9  C   UNK N   1      29.209  15.093   5.101  0.00  0.00     0.099 C 
ENDROOT
BRANCH   4  10
HETATM   10  N   UNK N   1      27.798  18.916   7.660  0.00  0.00    -0.316 N 
HETATM   11  C   UNK N   1      27.537  19.953   6.815  0.00  0.00     0.319 C 
HETATM   12  O   UNK N   1      28.220  20.131   5.815  0.00  0.00    -0.261 OA
HETATM   13  H   UNK N   1      27.269  18.839   8.486  0.00  0.00     0.169 HD
BRANCH  11  14
HETATM   14  C   UNK N   1      26.453  20.900   7.110  0.00  0.00     0.237 C 
HETATM   15  O   UNK N   1      26.117  21.738   6.290  0.00  0.00    -0.643 OA
BRANCH  14  16
HETATM   16  O   UNK N   1      25.835  20.852   8.307  0.00  0.00    -0.769 OA
HETATM   17  H   UNK N   1      26.294  20.891   9.123  0.00  0.00     0.168 HD
ENDBRANCH  14  16
ENDBRANCH  11  14
ENDBRANCH   4  10
BRANCH   5  18
HETATM   18  N   UNK N   1      32.320  17.374   8.250  0.00  0.00    -0.316 N 
HETATM   19  C   UNK N   1      33.471  17.808   7.713  0.00  0.00     0.319 C 
HETATM   20  O   UNK N   1      33.580  18.015   6.513  0.00  0.00    -0.261 OA
HETATM   21  H   UNK N   1      32.354  17.181   9.216  0.00  0.00     0.169 HD
BRANCH  19  22
HETATM   22  C   UNK N   1      34.577  18.075   8.642  0.00  0.00     0.237 C 
HETATM   23  O   UNK N   1      34.825  17.271   9.531  0.00  0.00    -0.643 OA
BRANCH  22  24
HETATM   24  O   UNK N   1      35.338  19.172   8.509  0.00  0.00    -0.769 OA
HETATM   25  H   UNK N   1      36.142  19.286   8.976  0.00  0.00     0.168 HD
ENDBRANCH  22  24
ENDBRANCH  19  22
ENDBRANCH   5  18
TORSDOF 6
ENDMDL
MODEL 2
REMARK VINA RESULT:      -6.3      0.779      6.122
REMARK  6 active torsions:
REMARK  status: ('A' for Active; 'I' for Inactive)
REMARK    1  A    between atoms: O_5  and  C_20 
REMARK    2  A    between atoms: O_7  and  C_21 
REMARK    3  A    between atoms: N_8  and  C_12 
REMARK       I    between atoms: N_8  and  C_17 
REMARK    4  A    between atoms: N_9  and  C_13 
REMARK       I    between atoms: N_9  and  C_18 
REMARK    5  A    between atoms: C_17  and  C_20 
REMARK    6  A    between atoms: C_18  and  C_21 
ROOT
HETATM    1 Cl   UNK N   1      30.307  18.950   9.318  0.00  0.00    -0.079 Cl
HETATM    2  N   UNK N   1      29.414  13.835   4.437  0.00  0.00    -0.191 NA
HETATM    3  C   UNK N   1      30.130  17.801   7.986  0.00  0.00     0.087 A 
HETATM    4  C   UNK N   1      31.040  16.763   7.860  0.00  0.00     0.060 A 
HETATM    5  C   UNK N   1      29.051  17.900   7.097  0.00  0.00     0.060 A 
HETATM    6  C   UNK N   1      29.793  15.863   6.001  0.00  0.00     0.049 A 
HETATM    7  C   UNK N   1      30.868  15.824   6.855  0.00  0.00     0.054 A 
HETATM    8  C   UNK N   1      28.853  16.907   6.104  0.00  0.00     0.054 A 
HETATM    9  C   UNK N   1      29.602  14.732   5.143  0.00  0.00     0.099 C 
ENDROOT
BRANCH   4  10
HETATM   10  N   UNK N   1      32.092  16.616   8.803  0.00  0.00    -0.316 N 
HETATM   11  C   UNK N   1      33.340  17.127   8.606  0.00  0.00     0.319 C 
HETATM   12  O   UNK N   1      33.630  17.681   7.555  0.00  0.00    -0.261 OA
HETATM   13  H   UNK N   1      31.912  16.123   9.635  0.00  0.00     0.169 HD
BRANCH  11  14
HETATM   14  C   UNK N   1      34.374  16.987   9.642  0.00  0.00     0.237 C 
HETATM   15  O   UNK N   1      35.309  17.769   9.698  0.00  0.00    -0.643 OA
BRANCH  14  16
HETATM   16  O   UNK N   1      34.296  15.974  10.528  0.00  0.00    -0.769 OA
HETATM   17  H   UNK N   1      33.560  15.397  10.583  0.00  0.00     0.168 HD
ENDBRANCH  14  16
ENDBRANCH  11  14
ENDBRANCH   4  10
BRANCH   5  18
HETATM   18  N   UNK N   1      28.179  18.986   7.304  0.00  0.00    -0.316 N 
HETATM   19  C   UNK N   1      27.717  19.893   6.429  0.00  0.00     0.319 C 
HETATM   20  O   UNK N   1      28.091  19.909   5.265  0.00  0.00    -0.261 OA
HETATM   21  H   UNK N   1      27.860  19.096   8.229  0.00  0.00     0.169 HD
BRANCH  19  22
HETATM   22  C   UNK N   1      26.698  20.830   6.921  0.00  0.00     0.237 C 
HETATM   23  O   UNK N   1      26.327  21.748   6.202  0.00  0.00    -0.643 OA
BRANCH  22  24
HETATM   24  O   UNK N   1      26.148  20.673   8.135  0.00  0.00    -0.769 OA
HETATM   25  H   UNK N   1      26.651  20.432   8.887  0.00  0.00     0.168 HD
ENDBRANCH  22  24
ENDBRANCH  19  22
ENDBRANCH   5  18
TORSDOF 6
ENDMDL
MODEL 3
REMARK VINA RESULT:      -6.3     13.699     16.205
REMARK  6 active torsions:
REMARK  status: ('A' for Active; 'I' for Inactive)
REMARK    1  A    between atoms: O_5  and  C_20 
REMARK    2  A    between atoms: O_7  and  C_21 
REMARK    3  A    between atoms: N_8  and  C_12 
REMARK       I    between atoms: N_8  and  C_17 
REMARK    4  A    between atoms: N_9  and  C_13 
REMARK       I    between atoms: N_9  and  C_18 
REMARK    5  A    between atoms: C_17  and  C_20 
REMARK    6  A    between atoms: C_18  and  C_21 
ROOT
HETATM    1 Cl   UNK N   1      27.683  23.277  -6.369  0.00  0.00    -0.079 Cl
HETATM    2  N   UNK N   1      26.128  29.552  -3.370  0.00  0.00    -0.191 NA
HETATM    3  C   UNK N   1      27.144  24.762  -5.575  0.00  0.00     0.087 A 
HETATM    4  C   UNK N   1      27.779  25.179  -4.416  0.00  0.00     0.060 A 
HETATM    5  C   UNK N   1      26.125  25.543  -6.137  0.00  0.00     0.060 A 
HETATM    6  C   UNK N   1      26.444  27.189  -4.379  0.00  0.00     0.049 A 
HETATM    7  C   UNK N   1      27.402  26.376  -3.825  0.00  0.00     0.054 A 
HETATM    8  C   UNK N   1      25.780  26.789  -5.556  0.00  0.00     0.054 A 
HETATM    9  C   UNK N   1      26.284  28.492  -3.805  0.00  0.00     0.099 C 
ENDROOT
BRANCH   4  10
HETATM   10  N   UNK N   1      28.862  24.429  -3.883  0.00  0.00    -0.316 N 
HETATM   11  C   UNK N   1      28.718  23.551  -2.852  0.00  0.00     0.319 C 
HETATM   12  O   UNK N   1      27.642  23.423  -2.284  0.00  0.00    -0.261 OA
HETATM   13  H   UNK N   1      29.755  24.551  -4.276  0.00  0.00     0.169 HD
BRANCH  11  14
HETATM   14  C   UNK N   1      29.866  22.765  -2.378  0.00  0.00     0.237 C 
HETATM   15  O   UNK N   1      30.426  23.049  -1.331  0.00  0.00    -0.643 OA
BRANCH  14  16
HETATM   16  O   UNK N   1      30.315  21.730  -3.115  0.00  0.00    -0.769 OA
HETATM   17  H   UNK N   1      31.224  21.524  -3.211  0.00  0.00     0.168 HD
ENDBRANCH  14  16
ENDBRANCH  11  14
ENDBRANCH   4  10
BRANCH   5  18
HETATM   18  N   UNK N   1      25.541  25.039  -7.315  0.00  0.00    -0.316 N 
HETATM   19  C   UNK N   1      25.804  25.335  -8.597  0.00  0.00     0.319 C 
HETATM   20  O   UNK N   1      26.610  26.202  -8.902  0.00  0.00    -0.261 OA
HETATM   21  H   UNK N   1      24.833  24.368  -7.176  0.00  0.00     0.169 HD
BRANCH  19  22
HETATM   22  C   UNK N   1      25.119  24.529  -9.617  0.00  0.00     0.237 C 
HETATM   23  O   UNK N   1      25.190  23.309  -9.569  0.00  0.00    -0.643 OA
BRANCH  22  24
HETATM   24  O   UNK N   1      24.392  25.114 -10.582  0.00  0.00    -0.769 OA
HETATM   25  H   UNK N   1      23.755  24.646 -11.085  0.00  0.00     0.168 HD
ENDBRANCH  22  24
ENDBRANCH  19  22
ENDBRANCH   5  18
TORSDOF 6
ENDMDL
MODEL 4
REMARK VINA RESULT:      -6.3      5.678      8.908
REMARK  6 active torsions:
REMARK  status: ('A' for Active; 'I' for Inactive)
REMARK    1  A    between atoms: O_5  and  C_20 
REMARK    2  A    between atoms: O_7  and  C_21 
REMARK    3  A    between atoms: N_8  and  C_12 
REMARK       I    between atoms: N_8  and  C_17 
REMARK    4  A    between atoms: N_9  and  C_13 
REMARK       I    between atoms: N_9  and  C_18 
REMARK    5  A    between atoms: C_17  and  C_20 
REMARK    6  A    between atoms: C_18  and  C_21 
ROOT
HETATM    1 Cl   UNK N   1      36.678  15.701  10.790  0.00  0.00    -0.079 Cl
HETATM    2  N   UNK N   1      32.204  10.375   9.238  0.00  0.00    -0.191 NA
HETATM    3  C   UNK N   1      35.668  14.348  10.262  0.00  0.00     0.087 A 
HETATM    4  C   UNK N   1      35.668  13.175  10.999  0.00  0.00     0.060 A 
HETATM    5  C   UNK N   1      34.831  14.476   9.145  0.00  0.00     0.060 A 
HETATM    6  C   UNK N   1      33.960  12.248   9.568  0.00  0.00     0.049 A 
HETATM    7  C   UNK N   1      34.830  12.135  10.626  0.00  0.00     0.054 A 
HETATM    8  C   UNK N   1      33.940  13.429   8.800  0.00  0.00     0.054 A 
HETATM    9  C   UNK N   1      32.997  11.200   9.402  0.00  0.00     0.099 C 
ENDROOT
BRANCH   4  10
HETATM   10  N   UNK N   1      36.459  13.068  12.174  0.00  0.00    -0.316 N 
HETATM   11  C   UNK N   1      35.954  13.252  13.426  0.00  0.00     0.319 C 
HETATM   12  O   UNK N   1      34.790  13.595  13.587  0.00  0.00    -0.261 OA
HETATM   13  H   UNK N   1      37.414  12.852  12.080  0.00  0.00     0.169 HD
BRANCH  11  14
HETATM   14  C   UNK N   1      36.811  13.078  14.608  0.00  0.00     0.237 C 
HETATM   15  O   UNK N   1      36.946  11.979  15.122  0.00  0.00    -0.643 OA
BRANCH  14  16
HETATM   16  O   UNK N   1      37.440  14.145  15.137  0.00  0.00    -0.769 OA
HETATM   17  H   UNK N   1      37.122  15.022  15.053  0.00  0.00     0.168 HD
ENDBRANCH  14  16
ENDBRANCH  11  14
ENDBRANCH   4  10
BRANCH   5  18
HETATM   18  N   UNK N   1      34.899  15.705   8.461  0.00  0.00    -0.316 N 
HETATM   19  C   UNK N   1      34.072  16.761   8.511  0.00  0.00     0.319 C 
HETATM   20  O   UNK N   1      33.043  16.738   9.170  0.00  0.00    -0.261 OA
HETATM   21  H   UNK N   1      35.669  15.804   7.855  0.00  0.00     0.169 HD
BRANCH  19  22
HETATM   22  C   UNK N   1      34.491  17.966   7.782  0.00  0.00     0.237 C 
HETATM   23  O   UNK N   1      34.346  18.016   6.568  0.00  0.00    -0.643 OA
BRANCH  22  24
HETATM   24  O   UNK N   1      35.000  19.023   8.434  0.00  0.00    -0.769 OA
HETATM   25  H   UNK N   1      34.460  19.698   8.795  0.00  0.00     0.168 HD
ENDBRANCH  22  24
ENDBRANCH  19  22
ENDBRANCH   5  18
TORSDOF 6
ENDMDL
MODEL 5
REMARK VINA RESULT:      -6.3      3.021      6.669
REMARK  6 active torsions:
REMARK  status: ('A' for Active; 'I' for Inactive)
REMARK    1  A    between atoms: O_5  and  C_20 
REMARK    2  A    between atoms: O_7  and  C_21 
REMARK    3  A    between atoms: N_8  and  C_12 
REMARK       I    between atoms: N_8  and  C_17 
REMARK    4  A    between atoms: N_9  and  C_13 
REMARK       I    between atoms: N_9  and  C_18 
REMARK    5  A    between atoms: C_17  and  C_20 
REMARK    6  A    between atoms: C_18  and  C_21 
ROOT
HETATM    1 Cl   UNK N   1      30.716  17.742   7.083  0.00  0.00    -0.079 Cl
HETATM    2  N   UNK N   1      34.410  14.613   1.852  0.00  0.00    -0.191 NA
HETATM    3  C   UNK N   1      31.673  17.128   5.728  0.00  0.00     0.087 A 
HETATM    4  C   UNK N   1      32.879  16.494   5.982  0.00  0.00     0.060 A 
HETATM    5  C   UNK N   1      31.195  17.227   4.414  0.00  0.00     0.060 A 
HETATM    6  C   UNK N   1      33.136  15.990   3.637  0.00  0.00     0.049 A 
HETATM    7  C   UNK N   1      33.601  15.955   4.928  0.00  0.00     0.054 A 
HETATM    8  C   UNK N   1      31.914  16.629   3.348  0.00  0.00     0.054 A 
HETATM    9  C   UNK N   1      33.856  15.223   2.664  0.00  0.00     0.099 C 
ENDROOT
BRANCH   4  10
HETATM   10  N   UNK N   1      33.331  16.326   7.318  0.00  0.00    -0.316 N 
HETATM   11  C   UNK N   1      34.149  17.220   7.941  0.00  0.00     0.319 C 
HETATM   12  O   UNK N   1      34.595  18.187   7.338  0.00  0.00    -0.261 OA
HETATM   13  H   UNK N   1      33.041  15.528   7.815  0.00  0.00     0.169 HD
BRANCH  11  14
HETATM   14  C   UNK N   1      34.543  17.017   9.343  0.00  0.00     0.237 C 
HETATM   15  O   UNK N   1      35.427  17.692   9.846  0.00  0.00    -0.643 OA
BRANCH  14  16
HETATM   16  O   UNK N   1      33.931  16.066  10.076  0.00  0.00    -0.769 OA
HETATM   17  H   UNK N   1      33.349  15.431   9.708  0.00  0.00     0.168 HD
ENDBRANCH  14  16
ENDBRANCH  11  14
ENDBRANCH   4  10
BRANCH   5  18
HETATM   18  N   UNK N   1      29.961  17.886   4.255  0.00  0.00    -0.316 N 
HETATM   19  C   UNK N   1      28.721  17.378   4.184  0.00  0.00     0.319 C 
HETATM   20  O   UNK N   1      28.521  16.172   4.188  0.00  0.00    -0.261 OA
HETATM   21  H   UNK N   1      30.017  18.867   4.185  0.00  0.00     0.169 HD
BRANCH  19  22
HETATM   22  C   UNK N   1      27.611  18.341   4.160  0.00  0.00     0.237 C 
HETATM   23  O   UNK N   1      26.510  18.000   4.571  0.00  0.00    -0.643 OA
BRANCH  22  24
HETATM   24  O   UNK N   1      27.798  19.596   3.723  0.00  0.00    -0.769 OA
HETATM   25  H   UNK N   1      27.393  20.335   4.132  0.00  0.00     0.168 HD
ENDBRANCH  22  24
ENDBRANCH  19  22
ENDBRANCH   5  18
TORSDOF 6
ENDMDL
MODEL 6
REMARK VINA RESULT:      -6.2      6.061      9.902
REMARK  6 active torsions:
REMARK  status: ('A' for Active; 'I' for Inactive)
REMARK    1  A    between atoms: O_5  and  C_20 
REMARK    2  A    between atoms: O_7  and  C_21 
REMARK    3  A    between atoms: N_8  and  C_12 
REMARK       I    between atoms: N_8  and  C_17 
REMARK    4  A    between atoms: N_9  and  C_13 
REMARK       I    between atoms: N_9  and  C_18 
REMARK    5  A    between atoms: C_17  and  C_20 
REMARK    6  A    between atoms: C_18  and  C_21 
ROOT
HETATM    1 Cl   UNK N   1      24.469  20.286   3.036  0.00  0.00    -0.079 Cl
HETATM    2  N   UNK N   1      20.605  15.620   6.789  0.00  0.00    -0.191 NA
HETATM    3  C   UNK N   1      23.521  19.020   3.828  0.00  0.00     0.087 A 
HETATM    4  C   UNK N   1      24.070  18.330   4.896  0.00  0.00     0.060 A 
HETATM    5  C   UNK N   1      22.206  18.754   3.421  0.00  0.00     0.060 A 
HETATM    6  C   UNK N   1      22.000  17.134   5.219  0.00  0.00     0.049 A 
HETATM    7  C   UNK N   1      23.308  17.381   5.560  0.00  0.00     0.054 A 
HETATM    8  C   UNK N   1      21.416  17.820   4.136  0.00  0.00     0.054 A 
HETATM    9  C   UNK N   1      21.246  16.292   6.100  0.00  0.00     0.099 C 
ENDROOT
BRANCH   4  10
HETATM   10  N   UNK N   1      25.376  18.648   5.359  0.00  0.00    -0.316 N 
HETATM   11  C   UNK N   1      26.500  18.051   4.873  0.00  0.00     0.319 C 
HETATM   12  O   UNK N   1      26.423  17.145   4.053  0.00  0.00    -0.261 OA
HETATM   13  H   UNK N   1      25.471  19.329   6.061  0.00  0.00     0.169 HD
BRANCH  11  14
HETATM   14  C   UNK N   1      27.827  18.459   5.355  0.00  0.00     0.237 C 
HETATM   15  O   UNK N   1      28.222  18.116   6.458  0.00  0.00    -0.643 OA
BRANCH  14  16
HETATM   16  O   UNK N   1      28.609  19.234   4.577  0.00  0.00    -0.769 OA
HETATM   17  H   UNK N   1      28.402  20.122   4.367  0.00  0.00     0.168 HD
ENDBRANCH  14  16
ENDBRANCH  11  14
ENDBRANCH   4  10
BRANCH   5  18
HETATM   18  N   UNK N   1      21.735  19.506   2.329  0.00  0.00    -0.316 N 
HETATM   19  C   UNK N   1      20.981  20.617   2.314  0.00  0.00     0.319 C 
HETATM   20  O   UNK N   1      20.531  21.100   3.344  0.00  0.00    -0.261 OA
HETATM   21  H   UNK N   1      21.997  19.166   1.442  0.00  0.00     0.169 HD
BRANCH  19  22
HETATM   22  C   UNK N   1      20.770  21.258   1.009  0.00  0.00     0.237 C 
HETATM   23  O   UNK N   1      20.972  20.620  -0.015  0.00  0.00    -0.643 OA
BRANCH  22  24
HETATM   24  O   UNK N   1      20.328  22.522   0.927  0.00  0.00    -0.769 OA
HETATM   25  H   UNK N   1      19.831  22.926   1.611  0.00  0.00     0.168 HD
ENDBRANCH  22  24
ENDBRANCH  19  22
ENDBRANCH   5  18
TORSDOF 6
ENDMDL
MODEL 7
REMARK VINA RESULT:      -6.1      9.874     10.904
REMARK  6 active torsions:
REMARK  status: ('A' for Active; 'I' for Inactive)
REMARK    1  A    between atoms: O_5  and  C_20 
REMARK    2  A    between atoms: O_7  and  C_21 
REMARK    3  A    between atoms: N_8  and  C_12 
REMARK       I    between atoms: N_8  and  C_17 
REMARK    4  A    between atoms: N_9  and  C_13 
REMARK       I    between atoms: N_9  and  C_18 
REMARK    5  A    between atoms: C_17  and  C_20 
REMARK    6  A    between atoms: C_18  and  C_21 
ROOT
HETATM    1 Cl   UNK N   1      21.821  17.978   6.023  0.00  0.00    -0.079 Cl
HETATM    2  N   UNK N   1      19.189  13.570   1.081  0.00  0.00    -0.191 NA
HETATM    3  C   UNK N   1      21.009  16.914   4.868  0.00  0.00     0.087 A 
HETATM    4  C   UNK N   1      20.921  17.297   3.539  0.00  0.00     0.060 A 
HETATM    5  C   UNK N   1      20.509  15.669   5.274  0.00  0.00     0.060 A 
HETATM    6  C   UNK N   1      19.889  15.191   2.974  0.00  0.00     0.049 A 
HETATM    7  C   UNK N   1      20.342  16.438   2.618  0.00  0.00     0.054 A 
HETATM    8  C   UNK N   1      19.964  14.775   4.318  0.00  0.00     0.054 A 
HETATM    9  C   UNK N   1      19.505  14.310   1.912  0.00  0.00     0.099 C 
ENDROOT
BRANCH   4  10
HETATM   10  N   UNK N   1      21.493  18.525   3.109  0.00  0.00    -0.316 N 
HETATM   11  C   UNK N   1      20.749  19.635   2.840  0.00  0.00     0.319 C 
HETATM   12  O   UNK N   1      19.527  19.596   2.890  0.00  0.00    -0.261 OA
HETATM   13  H   UNK N   1      22.469  18.576   3.000  0.00  0.00     0.169 HD
BRANCH  11  14
HETATM   14  C   UNK N   1      21.402  20.892   2.448  0.00  0.00     0.237 C 
HETATM   15  O   UNK N   1      22.491  21.197   2.906  0.00  0.00    -0.643 OA
BRANCH  14  16
HETATM   16  O   UNK N   1      20.784  21.723   1.586  0.00  0.00    -0.769 OA
HETATM   17  H   UNK N   1      19.900  22.013   1.698  0.00  0.00     0.168 HD
ENDBRANCH  14  16
ENDBRANCH  11  14
ENDBRANCH   4  10
BRANCH   5  18
HETATM   18  N   UNK N   1      20.644  15.367   6.642  0.00  0.00    -0.316 N 
HETATM   19  C   UNK N   1      19.785  15.568   7.653  0.00  0.00     0.319 C 
HETATM   20  O   UNK N   1      18.722  16.147   7.485  0.00  0.00    -0.261 OA
HETATM   21  H   UNK N   1      21.497  14.944   6.895  0.00  0.00     0.169 HD
BRANCH  19  22
HETATM   22  C   UNK N   1      20.157  15.009   8.960  0.00  0.00     0.237 C 
HETATM   23  O   UNK N   1      21.310  15.118   9.355  0.00  0.00    -0.643 OA
BRANCH  22  24
HETATM   24  O   UNK N   1      19.242  14.411   9.739  0.00  0.00    -0.769 OA
HETATM   25  H   UNK N   1      19.478  13.838  10.442  0.00  0.00     0.168 HD
ENDBRANCH  22  24
ENDBRANCH  19  22
ENDBRANCH   5  18
TORSDOF 6
ENDMDL
MODEL 8
REMARK VINA RESULT:      -6.0     13.158     15.203
REMARK  6 active torsions:
REMARK  status: ('A' for Active; 'I' for Inactive)
REMARK    1  A    between atoms: O_5  and  C_20 
REMARK    2  A    between atoms: O_7  and  C_21 
REMARK    3  A    between atoms: N_8  and  C_12 
REMARK       I    between atoms: N_8  and  C_17 
REMARK    4  A    between atoms: N_9  and  C_13 
REMARK       I    between atoms: N_9  and  C_18 
REMARK    5  A    between atoms: C_17  and  C_20 
REMARK    6  A    between atoms: C_18  and  C_21 
ROOT
HETATM    1 Cl   UNK N   1      25.533  26.228  -5.981  0.00  0.00    -0.079 Cl
HETATM    2  N   UNK N   1      30.544  23.101  -1.992  0.00  0.00    -0.191 NA
HETATM    3  C   UNK N   1      26.857  25.409  -5.142  0.00  0.00     0.087 A 
HETATM    4  C   UNK N   1      27.768  26.160  -4.417  0.00  0.00     0.060 A 
HETATM    5  C   UNK N   1      26.956  24.010  -5.160  0.00  0.00     0.060 A 
HETATM    6  C   UNK N   1      28.863  24.147  -3.661  0.00  0.00     0.049 A 
HETATM    7  C   UNK N   1      28.770  25.517  -3.706  0.00  0.00     0.054 A 
HETATM    8  C   UNK N   1      27.952  23.358  -4.390  0.00  0.00     0.054 A 
HETATM    9  C   UNK N   1      29.800  23.588  -2.732  0.00  0.00     0.099 C 
ENDROOT
BRANCH   4  10
HETATM   10  N   UNK N   1      27.627  27.571  -4.336  0.00  0.00    -0.316 N 
HETATM   11  C   UNK N   1      26.890  28.188  -3.370  0.00  0.00     0.319 C 
HETATM   12  O   UNK N   1      26.246  27.533  -2.561  0.00  0.00    -0.261 OA
HETATM   13  H   UNK N   1      28.082  28.128  -5.007  0.00  0.00     0.169 HD
BRANCH  11  14
HETATM   14  C   UNK N   1      26.823  29.655  -3.307  0.00  0.00     0.237 C 
HETATM   15  O   UNK N   1      26.222  30.288  -4.159  0.00  0.00    -0.643 OA
BRANCH  14  16
HETATM   16  O   UNK N   1      27.448  30.307  -2.307  0.00  0.00    -0.769 OA
HETATM   17  H   UNK N   1      27.135  30.312  -1.424  0.00  0.00     0.168 HD
ENDBRANCH  14  16
ENDBRANCH  11  14
ENDBRANCH   4  10
BRANCH   5  18
HETATM   18  N   UNK N   1      25.986  23.333  -5.923  0.00  0.00    -0.316 N 
HETATM   19  C   UNK N   1      26.129  22.611  -7.045  0.00  0.00     0.319 C 
HETATM   20  O   UNK N   1      27.209  22.510  -7.609  0.00  0.00    -0.261 OA
HETATM   21  H   UNK N   1      25.064  23.399  -5.581  0.00  0.00     0.169 HD
BRANCH  19  22
HETATM   22  C   UNK N   1      24.939  21.901  -7.533  0.00  0.00     0.237 C 
HETATM   23  O   UNK N   1      24.109  21.495  -6.731  0.00  0.00    -0.643 OA
BRANCH  22  24
HETATM   24  O   UNK N   1      24.736  21.719  -8.847  0.00  0.00    -0.769 OA
HETATM   25  H   UNK N   1      23.943  21.977  -9.273  0.00  0.00     0.168 HD
ENDBRANCH  22  24
ENDBRANCH  19  22
ENDBRANCH   5  18
TORSDOF 6
ENDMDL
MODEL 9
REMARK VINA RESULT:      -6.0     13.581     15.759
REMARK  6 active torsions:
REMARK  status: ('A' for Active; 'I' for Inactive)
REMARK    1  A    between atoms: O_5  and  C_20 
REMARK    2  A    between atoms: O_7  and  C_21 
REMARK    3  A    between atoms: N_8  and  C_12 
REMARK       I    between atoms: N_8  and  C_17 
REMARK    4  A    between atoms: N_9  and  C_13 
REMARK       I    between atoms: N_9  and  C_18 
REMARK    5  A    between atoms: C_17  and  C_20 
REMARK    6  A    between atoms: C_18  and  C_21 
ROOT
HETATM    1 Cl   UNK N   1      25.165  26.347  -6.581  0.00  0.00    -0.079 Cl
HETATM    2  N   UNK N   1      29.685  22.861  -2.315  0.00  0.00    -0.191 NA
HETATM    3  C   UNK N   1      26.190  25.541  -5.387  0.00  0.00     0.087 A 
HETATM    4  C   UNK N   1      26.177  24.157  -5.307  0.00  0.00     0.060 A 
HETATM    5  C   UNK N   1      27.051  26.284  -4.567  0.00  0.00     0.060 A 
HETATM    6  C   UNK N   1      27.918  24.214  -3.637  0.00  0.00     0.049 A 
HETATM    7  C   UNK N   1      27.026  23.518  -4.416  0.00  0.00     0.054 A 
HETATM    8  C   UNK N   1      27.951  25.621  -3.696  0.00  0.00     0.054 A 
HETATM    9  C   UNK N   1      28.887  23.447  -2.912  0.00  0.00     0.099 C 
ENDROOT
BRANCH   4  10
HETATM   10  N   UNK N   1      25.361  23.397  -6.187  0.00  0.00    -0.316 N 
HETATM   11  C   UNK N   1      25.860  22.719  -7.259  0.00  0.00     0.319 C 
HETATM   12  O   UNK N   1      27.044  22.798  -7.553  0.00  0.00    -0.261 OA
HETATM   13  H   UNK N   1      24.393  23.360  -6.016  0.00  0.00     0.169 HD
BRANCH  11  14
HETATM   14  C   UNK N   1      24.972  21.907  -8.104  0.00  0.00     0.237 C 
HETATM   15  O   UNK N   1      25.424  21.020  -8.809  0.00  0.00    -0.643 OA
BRANCH  14  16
HETATM   16  O   UNK N   1      23.648  22.156  -8.111  0.00  0.00    -0.769 OA
HETATM   17  H   UNK N   1      22.999  21.486  -8.029  0.00  0.00     0.168 HD
ENDBRANCH  14  16
ENDBRANCH  11  14
ENDBRANCH   4  10
BRANCH   5  18
HETATM   18  N   UNK N   1      26.994  27.682  -4.721  0.00  0.00    -0.316 N 
HETATM   19  C   UNK N   1      26.409  28.607  -3.944  0.00  0.00     0.319 C 
HETATM   20  O   UNK N   1      25.748  28.295  -2.963  0.00  0.00    -0.261 OA
HETATM   21  H   UNK N   1      27.453  28.034  -5.519  0.00  0.00     0.169 HD
BRANCH  19  22
HETATM   22  C   UNK N   1      26.647  30.013  -4.293  0.00  0.00     0.237 C 
HETATM   23  O   UNK N   1      27.493  30.291  -5.132  0.00  0.00    -0.643 OA
BRANCH  22  24
HETATM   24  O   UNK N   1      25.926  30.994  -3.728  0.00  0.00    -0.769 OA
HETATM   25  H   UNK N   1      25.416  30.861  -2.954  0.00  0.00     0.168 HD
ENDBRANCH  22  24
ENDBRANCH  19  22
ENDBRANCH   5  18
TORSDOF 6
ENDMDL
