REMARK  7 active torsions:
REMARK  status: ('A' for Active; 'I' for Inactive)
REMARK    1  A    between atoms: C_19  and  C_18 
REMARK    2  A    between atoms: N_29  and  C_18 
REMARK    3  A    between atoms: O_31  and  C_19 
REMARK    4  A    between atoms: C_26  and  C_21 
REMARK    5  A    between atoms: C_28  and  C_22 
REMARK    6  A    between atoms: O_30  and  C_24 
REMARK    7  A    between atoms: O_31  and  C_25 
ROOT
HETATM    1  C   UNK N   1       2.435  -1.462   1.591  0.00  0.00     0.040 C 
HETATM    2  C   UNK N   1       5.953  -0.362  -0.643  0.00  0.00     0.037 A 
HETATM    3  C   UNK N   1       1.259  -0.491   1.466  0.00  0.00     0.015 C 
HETATM    4  C   UNK N   1       4.758   0.320  -0.878  0.00  0.00     0.011 A 
HETATM    5  C   UNK N   1       4.842  -1.744   1.002  0.00  0.00     0.044 A 
HETATM    6  C   UNK N   1       3.639  -1.064   0.781  0.00  0.00    -0.048 A 
HETATM    7  C   UNK N   1       5.992  -1.399   0.289  0.00  0.00     0.066 A 
HETATM    8  C   UNK N   1       1.058  -0.080   0.012  0.00  0.00     0.032 C 
HETATM    9  C   UNK N   1       3.588  -0.029  -0.184  0.00  0.00    -0.043 A 
HETATM   10  C   UNK N   1       2.298   0.695  -0.520  0.00  0.00     0.060 C 
ENDROOT
BRANCH  10  11
HETATM   11  C   UNK N   1       2.396   2.157  -0.133  0.00  0.00    -0.049 A 
HETATM   12  C   UNK N   1       2.544   3.108  -1.151  0.00  0.00     0.011 A 
HETATM   13  C   UNK N   1       2.632   4.462  -0.850  0.00  0.00     0.037 A 
HETATM   14  C   UNK N   1       2.555   4.902   0.480  0.00  0.00     0.068 A 
HETATM   15  C   UNK N   1       2.414   3.956   1.506  0.00  0.00     0.037 A 
HETATM   16  C   UNK N   1       2.349   2.587   1.204  0.00  0.00     0.011 A 
BRANCH  14  17
HETATM   17  O   UNK N   1       2.610   6.221   0.783  0.00  0.00    -0.349 OA
BRANCH  17  18
HETATM   18  C   UNK N   1       2.679   7.195  -0.195  0.00  0.00     0.206 C 
BRANCH  18  19
HETATM   19  C   UNK N   1       1.548   8.210  -0.054  0.00  0.00     0.299 C 
BRANCH  19  20
HETATM   20  N   UNK N   1       0.291   7.587   0.343  0.00  0.00     0.090 N 
HETATM   21  C   UNK N   1      -0.616   8.659   0.723  0.00  0.00     0.272 C 
HETATM   22  C   UNK N   1      -2.008   8.274   0.260  0.00  0.00     0.032 C 
HETATM   23  C   UNK N   1      -1.822   7.035  -0.582  0.00  0.00     0.032 C 
HETATM   24  C   UNK N   1      -0.331   6.960  -0.813  0.00  0.00     0.272 C 
ENDBRANCH  19  20
ENDBRANCH  18  19
ENDBRANCH  17  18
ENDBRANCH  14  17
ENDBRANCH  10  11
BRANCH   8  25
HETATM   25  C   UNK N   1      -0.269   0.627  -0.165  0.00  0.00    -0.053 A 
HETATM   26  C   UNK N   1      -1.212   0.122  -1.073  0.00  0.00     0.007 A 
HETATM   27  C   UNK N   1      -2.457   0.741  -1.217  0.00  0.00     0.001 A 
HETATM   28  C   UNK N   1      -2.777   1.858  -0.442  0.00  0.00     0.000 A 
HETATM   29  C   UNK N   1      -1.850   2.363   0.473  0.00  0.00     0.001 A 
HETATM   30  C   UNK N   1      -0.600   1.752   0.609  0.00  0.00     0.007 A 
ENDBRANCH   8  25
BRANCH   7  31
HETATM   31  O   UNK N   1       7.139  -2.065   0.501  0.00  0.00    -0.361 OA
HETATM   32  H   UNK N   1       7.137  -2.990   0.649  0.00  0.00     0.217 HD
ENDBRANCH   7  31
TORSDOF 7
