MODEL 1
REMARK VINA RESULT:      -7.2      0.000      0.000
REMARK  7 active torsions:
REMARK  status: ('A' for Active; 'I' for Inactive)
REMARK    1  A    between atoms: C_6  and  C_5 
REMARK    2  A    between atoms: C_7  and  C_6 
REMARK    3  A    between atoms: C_8  and  C_7 
REMARK    4  A    between atoms: C_24  and  C_8 
REMARK    5  A    between atoms: C_27  and  C_18 
REMARK    6  A    between atoms: O_31  and  C_24 
REMARK    7  A    between atoms: C_27  and  O_31 
ROOT
HETATM    1  C   UNK N   1      27.477  15.049   5.318  0.00  0.00     0.020 C 
HETATM    2  C   UNK N   1      31.306  13.894   4.480  0.00  0.00     0.019 C 
HETATM    3  C   UNK N   1      27.422  15.327   2.285  0.00  0.00     0.035 C 
HETATM    4  C   UNK N   1      28.877  15.056   2.716  0.00  0.00     0.010 C 
HETATM    5  C   UNK N   1      25.778  18.381   4.937  0.00  0.00     0.084 C 
HETATM    6  C   UNK N   1      29.649  17.034   5.666  0.00  0.00     0.007 C 
HETATM    7  C   UNK N   1      31.807  17.475   3.597  0.00  0.00     0.009 C 
HETATM    8  C   UNK N   1      26.553  17.276   5.631  0.00  0.00     0.022 C 
HETATM    9  C   UNK N   1      30.310  15.670   5.831  0.00  0.00     0.013 C 
HETATM   10  C   UNK N   1      33.137  17.023   4.163  0.00  0.00     0.048 C 
HETATM   11  C   UNK N   1      25.548  16.776   2.969  0.00  0.00     0.053 C 
HETATM   12  C   UNK N   1      26.714  16.196   3.295  0.00  0.00    -0.068 C 
HETATM   13  C   UNK N   1      24.927  17.746   3.885  0.00  0.00     0.149 C 
HETATM   14  C   UNK N   1      29.553  16.369   3.159  0.00  0.00    -0.004 C 
HETATM   15  C   UNK N   1      28.799  17.038   4.382  0.00  0.00     0.002 C 
HETATM   16  C   UNK N   1      31.066  16.164   3.431  0.00  0.00     0.002 C 
HETATM   17  C   UNK N   1      27.384  16.421   4.647  0.00  0.00    -0.016 C 
HETATM   18  C   UNK N   1      31.378  15.398   4.742  0.00  0.00    -0.001 C 
HETATM   19  C   UNK N   1      32.797  15.939   5.190  0.00  0.00     0.138 C 
HETATM   20  O   UNK N   1      23.752  18.049   3.769  0.00  0.00    -0.293 OA
ENDROOT
BRANCH  19  21
HETATM   21  C   UNK N   1      33.871  14.844   5.217  0.00  0.00     0.158 C 
HETATM   22  C   UNK N   1      34.119  14.010   6.434  0.00  0.00     0.094 C 
HETATM   23  O   UNK N   1      34.547  14.635   4.220  0.00  0.00    -0.295 OA
ENDBRANCH  19  21
BRANCH  19  24
HETATM   24  O   UNK N   1      32.652  16.592   6.418  0.00  0.00    -0.301 OA
BRANCH  24  25
HETATM   25  C   UNK N   1      33.437  17.537   6.996  0.00  0.00     0.260 C 
HETATM   26  O   UNK N   1      34.533  17.825   6.537  0.00  0.00    -0.265 OA
BRANCH  25  27
HETATM   27  C   UNK N   1      32.949  18.218   8.225  0.00  0.00     0.111 C 
BRANCH  27  28
HETATM   28  C   UNK N   1      31.628  17.584   8.632  0.00  0.00     0.010 C 
BRANCH  28  29
HETATM   29  C   UNK N   1      30.567  18.636   8.902  0.00  0.00     0.000 C 
BRANCH  29  30
HETATM   30  C   UNK N   1      29.475  18.088   9.806  0.00  0.00    -0.005 C 
HETATM   31  C   UNK N   1      28.170  17.979   9.041  0.00  0.00     0.005 C 
ENDBRANCH  29  30
ENDBRANCH  28  29
ENDBRANCH  27  28
ENDBRANCH  25  27
ENDBRANCH  24  25
ENDBRANCH  19  24
TORSDOF 7
ENDMDL
MODEL 2
REMARK VINA RESULT:      -7.1     12.408     15.318
REMARK  7 active torsions:
REMARK  status: ('A' for Active; 'I' for Inactive)
REMARK    1  A    between atoms: C_6  and  C_5 
REMARK    2  A    between atoms: C_7  and  C_6 
REMARK    3  A    between atoms: C_8  and  C_7 
REMARK    4  A    between atoms: C_24  and  C_8 
REMARK    5  A    between atoms: C_27  and  C_18 
REMARK    6  A    between atoms: O_31  and  C_24 
REMARK    7  A    between atoms: C_27  and  O_31 
ROOT
HETATM    1  C   UNK N   1      31.626  22.773  -6.902  0.00  0.00     0.020 C 
HETATM    2  C   UNK N   1      28.959  22.312  -9.965  0.00  0.00     0.019 C 
HETATM    3  C   UNK N   1      30.613  19.974  -6.255  0.00  0.00     0.035 C 
HETATM    4  C   UNK N   1      29.735  20.553  -7.382  0.00  0.00     0.010 C 
HETATM    5  C   UNK N   1      31.081  23.050  -3.193  0.00  0.00     0.084 C 
HETATM    6  C   UNK N   1      28.952  24.024  -6.635  0.00  0.00     0.007 C 
HETATM    7  C   UNK N   1      26.390  22.558  -7.282  0.00  0.00     0.009 C 
HETATM    8  C   UNK N   1      31.264  23.531  -4.620  0.00  0.00     0.022 C 
HETATM    9  C   UNK N   1      29.205  23.913  -8.135  0.00  0.00     0.013 C 
HETATM   10  C   UNK N   1      25.748  23.193  -8.497  0.00  0.00     0.048 C 
HETATM   11  C   UNK N   1      31.529  20.705  -4.086  0.00  0.00     0.053 C 
HETATM   12  C   UNK N   1      31.013  21.050  -5.276  0.00  0.00    -0.068 C 
HETATM   13  C   UNK N   1      31.778  21.734  -3.065  0.00  0.00     0.149 C 
HETATM   14  C   UNK N   1      28.632  21.453  -6.786  0.00  0.00    -0.004 C 
HETATM   15  C   UNK N   1      29.239  22.666  -5.968  0.00  0.00     0.002 C 
HETATM   16  C   UNK N   1      27.626  21.910  -7.874  0.00  0.00     0.002 C 
HETATM   17  C   UNK N   1      30.767  22.504  -5.664  0.00  0.00    -0.016 C 
HETATM   18  C   UNK N   1      28.179  22.990  -8.838  0.00  0.00    -0.001 C 
HETATM   19  C   UNK N   1      26.902  23.805  -9.297  0.00  0.00     0.138 C 
HETATM   20  O   UNK N   1      32.511  21.508  -2.118  0.00  0.00    -0.293 OA
ENDROOT
BRANCH  19  21
HETATM   21  C   UNK N   1      26.643  23.710 -10.806  0.00  0.00     0.158 C 
HETATM   22  C   UNK N   1      27.303  24.632 -11.781  0.00  0.00     0.094 C 
HETATM   23  O   UNK N   1      25.881  22.855 -11.236  0.00  0.00    -0.295 OA
ENDBRANCH  19  21
BRANCH  19  24
HETATM   24  O   UNK N   1      27.036  25.123  -8.849  0.00  0.00    -0.301 OA
BRANCH  24  25
HETATM   25  C   UNK N   1      26.081  26.016  -8.482  0.00  0.00     0.260 C 
HETATM   26  O   UNK N   1      25.137  26.278  -9.214  0.00  0.00    -0.265 OA
BRANCH  25  27
HETATM   27  C   UNK N   1      26.208  26.698  -7.167  0.00  0.00     0.111 C 
BRANCH  27  28
HETATM   28  C   UNK N   1      25.433  25.895  -6.134  0.00  0.00     0.010 C 
BRANCH  28  29
HETATM   29  C   UNK N   1      26.174  25.831  -4.810  0.00  0.00     0.000 C 
BRANCH  29  30
HETATM   30  C   UNK N   1      26.128  24.428  -4.228  0.00  0.00    -0.005 C 
HETATM   31  C   UNK N   1      27.277  24.228  -3.257  0.00  0.00     0.005 C 
ENDBRANCH  29  30
ENDBRANCH  28  29
ENDBRANCH  27  28
ENDBRANCH  25  27
ENDBRANCH  24  25
ENDBRANCH  19  24
TORSDOF 7
ENDMDL
MODEL 3
REMARK VINA RESULT:      -7.0      1.378      1.667
REMARK  7 active torsions:
REMARK  status: ('A' for Active; 'I' for Inactive)
REMARK    1  A    between atoms: C_6  and  C_5 
REMARK    2  A    between atoms: C_7  and  C_6 
REMARK    3  A    between atoms: C_8  and  C_7 
REMARK    4  A    between atoms: C_24  and  C_8 
REMARK    5  A    between atoms: C_27  and  C_18 
REMARK    6  A    between atoms: O_31  and  C_24 
REMARK    7  A    between atoms: C_27  and  O_31 
ROOT
HETATM    1  C   UNK N   1      27.636  16.163   5.840  0.00  0.00     0.020 C 
HETATM    2  C   UNK N   1      30.372  13.434   4.510  0.00  0.00     0.019 C 
HETATM    3  C   UNK N   1      27.069  16.315   2.851  0.00  0.00     0.035 C 
HETATM    4  C   UNK N   1      28.334  15.460   3.056  0.00  0.00     0.010 C 
HETATM    5  C   UNK N   1      27.436  19.884   5.340  0.00  0.00     0.084 C 
HETATM    6  C   UNK N   1      30.457  17.027   5.557  0.00  0.00     0.007 C 
HETATM    7  C   UNK N   1      32.118  16.409   3.109  0.00  0.00     0.009 C 
HETATM    8  C   UNK N   1      27.809  18.582   6.023  0.00  0.00     0.022 C 
HETATM    9  C   UNK N   1      30.511  15.520   5.776  0.00  0.00     0.013 C 
HETATM   10  C   UNK N   1      33.226  15.450   3.490  0.00  0.00     0.048 C 
HETATM   11  C   UNK N   1      26.154  18.458   3.659  0.00  0.00     0.053 C 
HETATM   12  C   UNK N   1      27.014  17.444   3.850  0.00  0.00    -0.068 C 
HETATM   13  C   UNK N   1      26.199  19.636   4.538  0.00  0.00     0.149 C 
HETATM   14  C   UNK N   1      29.571  16.368   3.208  0.00  0.00    -0.004 C 
HETATM   15  C   UNK N   1      29.437  17.346   4.448  0.00  0.00     0.002 C 
HETATM   16  C   UNK N   1      30.882  15.541   3.239  0.00  0.00     0.002 C 
HETATM   17  C   UNK N   1      27.984  17.412   5.027  0.00  0.00    -0.016 C 
HETATM   18  C   UNK N   1      31.115  14.769   4.563  0.00  0.00    -0.001 C 
HETATM   19  C   UNK N   1      32.690  14.661   4.689  0.00  0.00     0.138 C 
HETATM   20  O   UNK N   1      25.260  20.413   4.588  0.00  0.00    -0.293 OA
ENDROOT
BRANCH  19  21
HETATM   21  C   UNK N   1      33.192  13.212   4.669  0.00  0.00     0.158 C 
HETATM   22  C   UNK N   1      33.407  12.433   5.928  0.00  0.00     0.094 C 
HETATM   23  O   UNK N   1      33.422  12.666   3.599  0.00  0.00    -0.295 OA
ENDBRANCH  19  21
BRANCH  19  24
HETATM   24  O   UNK N   1      33.090  15.362   5.831  0.00  0.00    -0.301 OA
BRANCH  24  25
HETATM   25  C   UNK N   1      34.185  16.139   6.033  0.00  0.00     0.260 C 
HETATM   26  O   UNK N   1      35.310  15.738   5.771  0.00  0.00    -0.265 OA
BRANCH  25  27
HETATM   27  C   UNK N   1      34.000  17.499   6.604  0.00  0.00     0.111 C 
BRANCH  27  28
HETATM   28  C   UNK N   1      33.519  17.357   8.039  0.00  0.00     0.010 C 
BRANCH  28  29
HETATM   29  C   UNK N   1      32.412  18.348   8.355  0.00  0.00     0.000 C 
BRANCH  29  30
HETATM   30  C   UNK N   1      31.168  17.633   8.857  0.00  0.00    -0.005 C 
HETATM   31  C   UNK N   1      30.051  18.633   9.092  0.00  0.00     0.005 C 
ENDBRANCH  29  30
ENDBRANCH  28  29
ENDBRANCH  27  28
ENDBRANCH  25  27
ENDBRANCH  24  25
ENDBRANCH  19  24
TORSDOF 7
ENDMDL
MODEL 4
REMARK VINA RESULT:      -6.8     12.200     14.088
REMARK  7 active torsions:
REMARK  status: ('A' for Active; 'I' for Inactive)
REMARK    1  A    between atoms: C_6  and  C_5 
REMARK    2  A    between atoms: C_7  and  C_6 
REMARK    3  A    between atoms: C_8  and  C_7 
REMARK    4  A    between atoms: C_24  and  C_8 
REMARK    5  A    between atoms: C_27  and  C_18 
REMARK    6  A    between atoms: O_31  and  C_24 
REMARK    7  A    between atoms: C_27  and  O_31 
ROOT
HETATM    1  C   UNK N   1      25.621  23.799  -5.902  0.00  0.00     0.020 C 
HETATM    2  C   UNK N   1      27.462  22.126  -9.144  0.00  0.00     0.019 C 
HETATM    3  C   UNK N   1      25.967  26.296  -7.613  0.00  0.00     0.035 C 
HETATM    4  C   UNK N   1      26.743  25.144  -8.282  0.00  0.00     0.010 C 
HETATM    5  C   UNK N   1      26.894  26.246  -3.347  0.00  0.00     0.084 C 
HETATM    6  C   UNK N   1      28.530  23.257  -5.740  0.00  0.00     0.007 C 
HETATM    7  C   UNK N   1      30.454  23.990  -7.951  0.00  0.00     0.009 C 
HETATM    8  C   UNK N   1      26.583  24.890  -3.953  0.00  0.00     0.022 C 
HETATM    9  C   UNK N   1      27.985  22.266  -6.761  0.00  0.00     0.013 C 
HETATM   10  C   UNK N   1      31.005  22.723  -8.570  0.00  0.00     0.048 C 
HETATM   11  C   UNK N   1      25.691  27.252  -5.357  0.00  0.00     0.053 C 
HETATM   12  C   UNK N   1      26.051  26.200  -6.110  0.00  0.00    -0.068 C 
HETATM   13  C   UNK N   1      25.913  27.226  -3.904  0.00  0.00     0.149 C 
HETATM   14  C   UNK N   1      28.132  24.990  -7.631  0.00  0.00    -0.004 C 
HETATM   15  C   UNK N   1      28.026  24.672  -6.082  0.00  0.00     0.002 C 
HETATM   16  C   UNK N   1      29.005  23.960  -8.393  0.00  0.00     0.002 C 
HETATM   17  C   UNK N   1      26.592  24.911  -5.499  0.00  0.00    -0.016 C 
HETATM   18  C   UNK N   1      28.585  22.484  -8.172  0.00  0.00    -0.001 C 
HETATM   19  C   UNK N   1      29.924  21.659  -8.354  0.00  0.00     0.138 C 
HETATM   20  O   UNK N   1      25.333  28.010  -3.171  0.00  0.00    -0.293 OA
ENDROOT
BRANCH  19  21
HETATM   21  C   UNK N   1      29.867  20.680  -9.533  0.00  0.00     0.158 C 
HETATM   22  C   UNK N   1      30.294  21.076 -10.911  0.00  0.00     0.094 C 
HETATM   23  O   UNK N   1      29.467  19.538  -9.353  0.00  0.00    -0.295 OA
ENDBRANCH  19  21
BRANCH  19  24
HETATM   24  O   UNK N   1      30.225  21.034  -7.140  0.00  0.00    -0.301 OA
BRANCH  24  25
HETATM   25  C   UNK N   1      31.430  20.697  -6.612  0.00  0.00     0.260 C 
HETATM   26  O   UNK N   1      32.117  19.812  -7.102  0.00  0.00    -0.265 OA
BRANCH  25  27
HETATM   27  C   UNK N   1      31.905  21.415  -5.400  0.00  0.00     0.111 C 
BRANCH  27  28
HETATM   28  C   UNK N   1      31.016  21.023  -4.230  0.00  0.00     0.010 C 
BRANCH  28  29
HETATM   29  C   UNK N   1      31.458  21.701  -2.945  0.00  0.00     0.000 C 
BRANCH  29  30
HETATM   30  C   UNK N   1      30.833  23.080  -2.814  0.00  0.00    -0.005 C 
HETATM   31  C   UNK N   1      29.468  22.976  -2.161  0.00  0.00     0.005 C 
ENDBRANCH  29  30
ENDBRANCH  28  29
ENDBRANCH  27  28
ENDBRANCH  25  27
ENDBRANCH  24  25
ENDBRANCH  19  24
TORSDOF 7
ENDMDL
MODEL 5
REMARK VINA RESULT:      -6.7     11.699     14.885
REMARK  7 active torsions:
REMARK  status: ('A' for Active; 'I' for Inactive)
REMARK    1  A    between atoms: C_6  and  C_5 
REMARK    2  A    between atoms: C_7  and  C_6 
REMARK    3  A    between atoms: C_8  and  C_7 
REMARK    4  A    between atoms: C_24  and  C_8 
REMARK    5  A    between atoms: C_27  and  C_18 
REMARK    6  A    between atoms: O_31  and  C_24 
REMARK    7  A    between atoms: C_27  and  O_31 
ROOT
HETATM    1  C   UNK N   1      31.194  23.374  -2.929  0.00  0.00     0.020 C 
HETATM    2  C   UNK N   1      29.856  27.150  -3.738  0.00  0.00     0.019 C 
HETATM    3  C   UNK N   1      33.219  24.166  -5.063  0.00  0.00     0.035 C 
HETATM    4  C   UNK N   1      32.129  25.255  -5.007  0.00  0.00     0.010 C 
HETATM    5  C   UNK N   1      31.237  20.276  -5.057  0.00  0.00     0.084 C 
HETATM    6  C   UNK N   1      28.864  23.681  -4.734  0.00  0.00     0.007 C 
HETATM    7  C   UNK N   1      28.799  25.686  -6.993  0.00  0.00     0.009 C 
HETATM    8  C   UNK N   1      30.701  21.272  -4.047  0.00  0.00     0.022 C 
HETATM    9  C   UNK N   1      28.861  24.921  -3.847  0.00  0.00     0.013 C 
HETATM   10  C   UNK N   1      27.762  26.746  -6.687  0.00  0.00     0.048 C 
HETATM   11  C   UNK N   1      33.348  21.705  -5.118  0.00  0.00     0.053 C 
HETATM   12  C   UNK N   1      32.626  22.799  -4.829  0.00  0.00    -0.068 C 
HETATM   13  C   UNK N   1      32.728  20.373  -5.041  0.00  0.00     0.149 C 
HETATM   14  C   UNK N   1      30.908  24.829  -5.847  0.00  0.00    -0.004 C 
HETATM   15  C   UNK N   1      30.272  23.476  -5.320  0.00  0.00     0.002 C 
HETATM   16  C   UNK N   1      29.868  25.973  -5.958  0.00  0.00     0.002 C 
HETATM   17  C   UNK N   1      31.194  22.714  -4.309  0.00  0.00    -0.016 C 
HETATM   18  C   UNK N   1      29.061  26.225  -4.658  0.00  0.00    -0.001 C 
HETATM   19  C   UNK N   1      27.673  26.801  -5.158  0.00  0.00     0.138 C 
HETATM   20  O   UNK N   1      33.417  19.367  -4.997  0.00  0.00    -0.293 OA
ENDROOT
BRANCH  19  21
HETATM   21  C   UNK N   1      27.409  28.231  -4.669  0.00  0.00     0.158 C 
HETATM   22  C   UNK N   1      27.734  29.426  -5.509  0.00  0.00     0.094 C 
HETATM   23  O   UNK N   1      26.913  28.411  -3.566  0.00  0.00    -0.295 OA
ENDBRANCH  19  21
BRANCH  19  24
HETATM   24  O   UNK N   1      26.665  25.904  -4.791  0.00  0.00    -0.301 OA
BRANCH  24  25
HETATM   25  C   UNK N   1      25.607  25.447  -5.508  0.00  0.00     0.260 C 
HETATM   26  O   UNK N   1      24.768  26.210  -5.966  0.00  0.00    -0.265 OA
BRANCH  25  27
HETATM   27  C   UNK N   1      25.465  23.982  -5.718  0.00  0.00     0.111 C 
BRANCH  27  28
HETATM   28  C   UNK N   1      25.896  23.656  -7.139  0.00  0.00     0.010 C 
BRANCH  28  29
HETATM   29  C   UNK N   1      26.505  22.268  -7.231  0.00  0.00     0.000 C 
BRANCH  29  30
HETATM   30  C   UNK N   1      27.813  22.297  -8.004  0.00  0.00    -0.005 C 
HETATM   31  C   UNK N   1      28.624  21.050  -7.705  0.00  0.00     0.005 C 
ENDBRANCH  29  30
ENDBRANCH  28  29
ENDBRANCH  27  28
ENDBRANCH  25  27
ENDBRANCH  24  25
ENDBRANCH  19  24
TORSDOF 7
ENDMDL
MODEL 6
REMARK VINA RESULT:      -6.7      4.750      9.050
REMARK  7 active torsions:
REMARK  status: ('A' for Active; 'I' for Inactive)
REMARK    1  A    between atoms: C_6  and  C_5 
REMARK    2  A    between atoms: C_7  and  C_6 
REMARK    3  A    between atoms: C_8  and  C_7 
REMARK    4  A    between atoms: C_24  and  C_8 
REMARK    5  A    between atoms: C_27  and  C_18 
REMARK    6  A    between atoms: O_31  and  C_24 
REMARK    7  A    between atoms: C_27  and  O_31 
ROOT
HETATM    1  C   UNK N   1      37.596  12.905  11.416  0.00  0.00     0.020 C 
HETATM    2  C   UNK N   1      36.496  12.874   7.480  0.00  0.00     0.019 C 
HETATM    3  C   UNK N   1      35.819  10.430  11.422  0.00  0.00     0.035 C 
HETATM    4  C   UNK N   1      35.668  11.127  10.055  0.00  0.00     0.010 C 
HETATM    5  C   UNK N   1      35.569  13.489  14.528  0.00  0.00     0.084 C 
HETATM    6  C   UNK N   1      35.417  14.719  10.553  0.00  0.00     0.007 C 
HETATM    7  C   UNK N   1      33.140  13.813   8.786  0.00  0.00     0.009 C 
HETATM    8  C   UNK N   1      36.454  13.842  13.347  0.00  0.00     0.022 C 
HETATM    9  C   UNK N   1      36.266  14.477   9.310  0.00  0.00     0.013 C 
HETATM   10  C   UNK N   1      33.244  14.508   7.445  0.00  0.00     0.048 C 
HETATM   11  C   UNK N   1      35.837  11.058  13.806  0.00  0.00     0.053 C 
HETATM   12  C   UNK N   1      35.978  11.444  12.528  0.00  0.00    -0.068 C 
HETATM   13  C   UNK N   1      35.836  12.062  14.881  0.00  0.00     0.149 C 
HETATM   14  C   UNK N   1      34.642  12.275  10.154  0.00  0.00    -0.004 C 
HETATM   15  C   UNK N   1      35.082  13.369  11.212  0.00  0.00     0.002 C 
HETATM   16  C   UNK N   1      34.335  12.882   8.761  0.00  0.00     0.002 C 
HETATM   17  C   UNK N   1      36.250  12.895  12.142  0.00  0.00    -0.016 C 
HETATM   18  C   UNK N   1      35.473  13.763   8.186  0.00  0.00    -0.001 C 
HETATM   19  C   UNK N   1      34.734  14.811   7.257  0.00  0.00     0.138 C 
HETATM   20  O   UNK N   1      36.016  11.732  16.042  0.00  0.00    -0.293 OA
ENDROOT
BRANCH  19  21
HETATM   21  C   UNK N   1      35.142  14.695   5.784  0.00  0.00     0.158 C 
HETATM   22  C   UNK N   1      34.296  13.972   4.784  0.00  0.00     0.094 C 
HETATM   23  O   UNK N   1      36.184  15.209   5.402  0.00  0.00    -0.295 OA
ENDBRANCH  19  21
BRANCH  19  24
HETATM   24  O   UNK N   1      34.944  16.090   7.783  0.00  0.00    -0.301 OA
BRANCH  24  25
HETATM   25  C   UNK N   1      34.254  17.240   7.570  0.00  0.00     0.260 C 
HETATM   26  O   UNK N   1      34.340  17.851   6.514  0.00  0.00    -0.265 OA
BRANCH  25  27
HETATM   27  C   UNK N   1      33.390  17.766   8.659  0.00  0.00     0.111 C 
BRANCH  27  28
HETATM   28  C   UNK N   1      32.016  18.066   8.081  0.00  0.00     0.010 C 
BRANCH  28  29
HETATM   29  C   UNK N   1      30.912  17.454   8.926  0.00  0.00     0.000 C 
BRANCH  29  30
HETATM   30  C   UNK N   1      29.952  18.522   9.424  0.00  0.00    -0.005 C 
HETATM   31  C   UNK N   1      28.518  18.080   9.200  0.00  0.00     0.005 C 
ENDBRANCH  29  30
ENDBRANCH  28  29
ENDBRANCH  27  28
ENDBRANCH  25  27
ENDBRANCH  24  25
ENDBRANCH  19  24
TORSDOF 7
ENDMDL
MODEL 7
REMARK VINA RESULT:      -6.7      2.732      3.503
REMARK  7 active torsions:
REMARK  status: ('A' for Active; 'I' for Inactive)
REMARK    1  A    between atoms: C_6  and  C_5 
REMARK    2  A    between atoms: C_7  and  C_6 
REMARK    3  A    between atoms: C_8  and  C_7 
REMARK    4  A    between atoms: C_24  and  C_8 
REMARK    5  A    between atoms: C_27  and  C_18 
REMARK    6  A    between atoms: O_31  and  C_24 
REMARK    7  A    between atoms: C_27  and  O_31 
ROOT
HETATM    1  C   UNK N   1      28.206  16.370   6.376  0.00  0.00     0.020 C 
HETATM    2  C   UNK N   1      31.596  14.169   5.770  0.00  0.00     0.019 C 
HETATM    3  C   UNK N   1      28.699  17.025   3.442  0.00  0.00     0.035 C 
HETATM    4  C   UNK N   1      29.923  16.253   3.974  0.00  0.00     0.010 C 
HETATM    5  C   UNK N   1      27.660  20.089   6.373  0.00  0.00     0.084 C 
HETATM    6  C   UNK N   1      30.793  17.501   7.276  0.00  0.00     0.007 C 
HETATM    7  C   UNK N   1      33.273  17.485   5.549  0.00  0.00     0.009 C 
HETATM    8  C   UNK N   1      27.954  18.718   6.953  0.00  0.00     0.022 C 
HETATM    9  C   UNK N   1      30.983  15.988   7.282  0.00  0.00     0.013 C 
HETATM   10  C   UNK N   1      34.304  16.567   6.169  0.00  0.00     0.048 C 
HETATM   11  C   UNK N   1      27.263  18.898   4.154  0.00  0.00     0.053 C 
HETATM   12  C   UNK N   1      28.139  17.941   4.501  0.00  0.00    -0.068 C 
HETATM   13  C   UNK N   1      26.829  19.893   5.146  0.00  0.00     0.149 C 
HETATM   14  C   UNK N   1      30.886  17.217   4.698  0.00  0.00    -0.004 C 
HETATM   15  C   UNK N   1      30.189  17.934   5.927  0.00  0.00     0.002 C 
HETATM   16  C   UNK N   1      32.208  16.509   5.090  0.00  0.00     0.002 C 
HETATM   17  C   UNK N   1      28.631  17.772   5.935  0.00  0.00    -0.016 C 
HETATM   18  C   UNK N   1      32.073  15.527   6.282  0.00  0.00    -0.001 C 
HETATM   19  C   UNK N   1      33.504  15.528   6.962  0.00  0.00     0.138 C 
HETATM   20  O   UNK N   1      25.830  20.567   4.958  0.00  0.00    -0.293 OA
ENDROOT
BRANCH  19  21
HETATM   21  C   UNK N   1      34.184  14.154   6.921  0.00  0.00     0.158 C 
HETATM   22  C   UNK N   1      35.221  13.816   5.897  0.00  0.00     0.094 C 
HETATM   23  O   UNK N   1      33.884  13.306   7.749  0.00  0.00    -0.295 OA
ENDBRANCH  19  21
BRANCH  19  24
HETATM   24  O   UNK N   1      33.375  16.036   8.258  0.00  0.00    -0.301 OA
BRANCH  24  25
HETATM   25  C   UNK N   1      34.270  16.725   9.013  0.00  0.00     0.260 C 
HETATM   26  O   UNK N   1      34.258  17.946   9.062  0.00  0.00    -0.265 OA
BRANCH  25  27
HETATM   27  C   UNK N   1      35.294  15.965   9.777  0.00  0.00     0.111 C 
BRANCH  27  28
HETATM   28  C   UNK N   1      34.615  15.303  10.965  0.00  0.00     0.010 C 
BRANCH  28  29
HETATM   29  C   UNK N   1      34.979  13.833  11.066  0.00  0.00     0.000 C 
BRANCH  29  30
HETATM   30  C   UNK N   1      35.294  13.447  12.502  0.00  0.00    -0.005 C 
HETATM   31  C   UNK N   1      36.062  14.562  13.186  0.00  0.00     0.005 C 
ENDBRANCH  29  30
ENDBRANCH  28  29
ENDBRANCH  27  28
ENDBRANCH  25  27
ENDBRANCH  24  25
ENDBRANCH  19  24
TORSDOF 7
ENDMDL
MODEL 8
REMARK VINA RESULT:      -6.7     11.671     15.064
REMARK  7 active torsions:
REMARK  status: ('A' for Active; 'I' for Inactive)
REMARK    1  A    between atoms: C_6  and  C_5 
REMARK    2  A    between atoms: C_7  and  C_6 
REMARK    3  A    between atoms: C_8  and  C_7 
REMARK    4  A    between atoms: C_24  and  C_8 
REMARK    5  A    between atoms: C_27  and  C_18 
REMARK    6  A    between atoms: O_31  and  C_24 
REMARK    7  A    between atoms: C_27  and  O_31 
ROOT
HETATM    1  C   UNK N   1      30.608  23.001  -3.225  0.00  0.00     0.020 C 
HETATM    2  C   UNK N   1      28.755  26.181  -5.003  0.00  0.00     0.019 C 
HETATM    3  C   UNK N   1      32.957  24.113  -4.817  0.00  0.00     0.035 C 
HETATM    4  C   UNK N   1      31.683  24.865  -5.251  0.00  0.00     0.010 C 
HETATM    5  C   UNK N   1      32.028  19.848  -4.700  0.00  0.00     0.084 C 
HETATM    6  C   UNK N   1      28.953  22.495  -5.630  0.00  0.00     0.007 C 
HETATM    7  C   UNK N   1      29.134  24.190  -8.125  0.00  0.00     0.009 C 
HETATM    8  C   UNK N   1      30.989  20.750  -4.062  0.00  0.00     0.022 C 
HETATM    9  C   UNK N   1      28.387  23.764  -5.003  0.00  0.00     0.013 C 
HETATM   10  C   UNK N   1      27.837  24.952  -8.303  0.00  0.00     0.048 C 
HETATM   11  C   UNK N   1      33.662  21.785  -4.415  0.00  0.00     0.053 C 
HETATM   12  C   UNK N   1      32.653  22.664  -4.527  0.00  0.00    -0.068 C 
HETATM   13  C   UNK N   1      33.375  20.348  -4.287  0.00  0.00     0.149 C 
HETATM   14  C   UNK N   1      30.918  24.047  -6.312  0.00  0.00    -0.004 C 
HETATM   15  C   UNK N   1      30.481  22.627  -5.760  0.00  0.00     0.002 C 
HETATM   16  C   UNK N   1      29.729  24.851  -6.899  0.00  0.00     0.002 C 
HETATM   17  C   UNK N   1      31.192  22.241  -4.418  0.00  0.00    -0.016 C 
HETATM   18  C   UNK N   1      28.522  24.993  -5.937  0.00  0.00    -0.001 C 
HETATM   19  C   UNK N   1      27.266  25.122  -6.892  0.00  0.00     0.138 C 
HETATM   20  O   UNK N   1      34.228  19.575  -3.884  0.00  0.00    -0.293 OA
ENDROOT
BRANCH  19  21
HETATM   21  C   UNK N   1      26.539  26.465  -6.746  0.00  0.00     0.158 C 
HETATM   22  C   UNK N   1      25.310  26.610  -5.906  0.00  0.00     0.094 C 
HETATM   23  O   UNK N   1      26.972  27.452  -7.323  0.00  0.00    -0.295 OA
ENDBRANCH  19  21
BRANCH  19  24
HETATM   24  O   UNK N   1      26.430  24.022  -6.671  0.00  0.00    -0.301 OA
BRANCH  24  25
HETATM   25  C   UNK N   1      25.744  23.261  -7.562  0.00  0.00     0.260 C 
HETATM   26  O   UNK N   1      24.913  23.750  -8.314  0.00  0.00    -0.265 OA
BRANCH  25  27
HETATM   27  C   UNK N   1      26.006  21.798  -7.603  0.00  0.00     0.111 C 
BRANCH  27  28
HETATM   28  C   UNK N   1      26.527  21.442  -8.987  0.00  0.00     0.010 C 
BRANCH  28  29
HETATM   29  C   UNK N   1      27.993  21.049  -8.944  0.00  0.00     0.000 C 
BRANCH  29  30
HETATM   30  C   UNK N   1      28.220  19.894  -7.983  0.00  0.00    -0.005 C 
HETATM   31  C   UNK N   1      29.705  19.607  -7.853  0.00  0.00     0.005 C 
ENDBRANCH  29  30
ENDBRANCH  28  29
ENDBRANCH  27  28
ENDBRANCH  25  27
ENDBRANCH  24  25
ENDBRANCH  19  24
TORSDOF 7
ENDMDL
MODEL 9
REMARK VINA RESULT:      -6.6      1.661      2.201
REMARK  7 active torsions:
REMARK  status: ('A' for Active; 'I' for Inactive)
REMARK    1  A    between atoms: C_6  and  C_5 
REMARK    2  A    between atoms: C_7  and  C_6 
REMARK    3  A    between atoms: C_8  and  C_7 
REMARK    4  A    between atoms: C_24  and  C_8 
REMARK    5  A    between atoms: C_27  and  C_18 
REMARK    6  A    between atoms: O_31  and  C_24 
REMARK    7  A    between atoms: C_27  and  O_31 
ROOT
HETATM    1  C   UNK N   1      26.502  13.536   4.360  0.00  0.00     0.020 C 
HETATM    2  C   UNK N   1      30.257  14.432   3.016  0.00  0.00     0.019 C 
HETATM    3  C   UNK N   1      25.785  15.596   2.232  0.00  0.00     0.035 C 
HETATM    4  C   UNK N   1      27.317  15.593   2.400  0.00  0.00     0.010 C 
HETATM    5  C   UNK N   1      23.992  15.633   6.213  0.00  0.00     0.084 C 
HETATM    6  C   UNK N   1      28.141  15.435   5.938  0.00  0.00     0.007 C 
HETATM    7  C   UNK N   1      29.673  17.713   4.674  0.00  0.00     0.009 C 
HETATM    8  C   UNK N   1      25.136  14.654   6.032  0.00  0.00     0.022 C 
HETATM    9  C   UNK N   1      29.138  14.560   5.185  0.00  0.00     0.013 C 
HETATM   10  C   UNK N   1      31.157  17.458   4.826  0.00  0.00     0.048 C 
HETATM   11  C   UNK N   1      23.783  15.623   3.672  0.00  0.00     0.053 C 
HETATM   12  C   UNK N   1      25.097  15.372   3.556  0.00  0.00    -0.068 C 
HETATM   13  C   UNK N   1      23.135  15.558   4.991  0.00  0.00     0.149 C 
HETATM   14  C   UNK N   1      27.721  16.477   3.598  0.00  0.00    -0.004 C 
HETATM   15  C   UNK N   1      27.081  15.963   4.953  0.00  0.00     0.002 C 
HETATM   16  C   UNK N   1      29.261  16.639   3.688  0.00  0.00     0.002 C 
HETATM   17  C   UNK N   1      25.943  14.909   4.738  0.00  0.00    -0.016 C 
HETATM   18  C   UNK N   1      30.004  15.375   4.192  0.00  0.00    -0.001 C 
HETATM   19  C   UNK N   1      31.305  15.935   4.900  0.00  0.00     0.138 C 
HETATM   20  O   UNK N   1      21.922  15.477   5.086  0.00  0.00    -0.293 OA
ENDROOT
BRANCH  19  21
HETATM   21  C   UNK N   1      32.600  15.470   4.223  0.00  0.00     0.158 C 
HETATM   22  C   UNK N   1      33.209  16.222   3.082  0.00  0.00     0.094 C 
HETATM   23  O   UNK N   1      33.163  14.461   4.622  0.00  0.00    -0.295 OA
ENDBRANCH  19  21
BRANCH  19  24
HETATM   24  O   UNK N   1      31.247  15.600   6.257  0.00  0.00    -0.301 OA
BRANCH  24  25
HETATM   25  C   UNK N   1      31.774  16.240   7.332  0.00  0.00     0.260 C 
HETATM   26  O   UNK N   1      32.972  16.473   7.413  0.00  0.00    -0.265 OA
BRANCH  25  27
HETATM   27  C   UNK N   1      30.866  16.647   8.436  0.00  0.00     0.111 C 
BRANCH  27  28
HETATM   28  C   UNK N   1      30.986  18.151   8.628  0.00  0.00     0.010 C 
BRANCH  28  29
HETATM   29  C   UNK N   1      29.849  18.696   9.474  0.00  0.00     0.000 C 
BRANCH  29  30
HETATM   30  C   UNK N   1      28.504  18.225   8.947  0.00  0.00    -0.005 C 
HETATM   31  C   UNK N   1      28.108  19.036   7.727  0.00  0.00     0.005 C 
ENDBRANCH  29  30
ENDBRANCH  28  29
ENDBRANCH  27  28
ENDBRANCH  25  27
ENDBRANCH  24  25
ENDBRANCH  19  24
TORSDOF 7
ENDMDL
