MODEL 1
REMARK VINA RESULT:      -7.0      0.000      0.000
REMARK  7 active torsions:
REMARK  status: ('A' for Active; 'I' for Inactive)
REMARK    1  A    between atoms: O_2  and  C_21 
REMARK    2  A    between atoms: O_2  and  C_22 
REMARK    3  A    between atoms: N_4  and  C_9 
REMARK    4  A    between atoms: N_4  and  C_11 
REMARK    5  A    between atoms: N_7  and  C_12 
REMARK       I    between atoms: N_7  and  C_21 
REMARK    6  A    between atoms: N_8  and  C_14 
REMARK    7  A    between atoms: C_9  and  C_10 
ROOT
HETATM    1  N   UNK N   1      37.544  13.440  12.091  0.00  0.00    -0.327 N 
ATOM      2  HN  UNK N   1      38.519  13.159  12.195  1.00  0.00     0.169 HD
HETATM    3  C   UNK N   1      36.662  13.194  13.105  0.00  0.00     0.102 A 
HETATM    4  C   UNK N   1      35.793  14.450  10.781  0.00  0.00     0.080 A 
HETATM    5  C   UNK N   1      35.333  13.567  12.980  0.00  0.00     0.050 A 
HETATM    6  C   UNK N   1      37.139  14.057  10.938  0.00  0.00     0.127 A 
HETATM    7  C   UNK N   1      34.902  14.191  11.826  0.00  0.00     0.037 A 
ENDROOT
BRANCH   3   8
HETATM    8  N   UNK N   1      37.047  12.560  14.303  0.00  0.00    -0.372 N 
HETATM    9  H   UNK N   1      37.854  12.909  14.744  0.00  0.00     0.161 HD
BRANCH   8  10
HETATM   10  C   UNK N   1      36.388  11.455  14.950  0.00  0.00     0.159 C 
BRANCH  10  11
HETATM   11  C   UNK N   1      35.943  11.902  16.320  0.00  0.00    -0.040 A 
HETATM   12  C   UNK N   1      35.609  13.249  16.562  0.00  0.00     0.012 A 
HETATM   13  C   UNK N   1      35.198  13.668  17.825  0.00  0.00     0.043 A 
HETATM   14  C   UNK N   1      35.115  12.747  18.867  0.00  0.00     0.116 A 
HETATM   15  F   UNK N   1      34.715  13.157  20.094  0.00  0.00    -0.206 F 
HETATM   16  C   UNK N   1      35.444  11.404  18.643  0.00  0.00     0.043 A 
HETATM   17  C   UNK N   1      35.858  10.982  17.371  0.00  0.00     0.012 A 
ENDBRANCH  10  11
ENDBRANCH   8  10
ENDBRANCH   3   8
BRANCH   6  18
HETATM   18  N   UNK N   1      38.075  14.297   9.910  0.00  0.00    -0.384 N 
HETATM   19  H   UNK N   1      37.961  13.870   9.030  0.00  0.00     0.157 HD
HETATM   20  H   UNK N   1      38.843  14.893  10.072  0.00  0.00     0.157 HD
ENDBRANCH   6  18
BRANCH   4  21
HETATM   21  N   UNK N   1      35.351  15.095   9.584  0.00  0.00    -0.299 N 
HETATM   22  C   UNK N   1      35.094  16.431   9.463  0.00  0.00     0.365 C 
HETATM   23  O   UNK N   1      35.235  17.186  10.419  0.00  0.00    -0.238 OA
HETATM   24  H   UNK N   1      35.222  14.534   8.785  0.00  0.00     0.171 HD
BRANCH  22  25
HETATM   25  O   UNK N   1      34.679  16.928   8.274  0.00  0.00    -0.304 OA
BRANCH  25  26
HETATM   26  C   UNK N   1      34.160  18.199   8.167  0.00  0.00     0.176 C 
HETATM   27  C   UNK N   1      32.649  18.142   8.140  0.00  0.00     0.034 C 
ENDBRANCH  25  26
ENDBRANCH  22  25
ENDBRANCH   4  21
TORSDOF 7
ENDMDL
MODEL 2
REMARK VINA RESULT:      -6.9      1.839      2.534
REMARK  7 active torsions:
REMARK  status: ('A' for Active; 'I' for Inactive)
REMARK    1  A    between atoms: O_2  and  C_21 
REMARK    2  A    between atoms: O_2  and  C_22 
REMARK    3  A    between atoms: N_4  and  C_9 
REMARK    4  A    between atoms: N_4  and  C_11 
REMARK    5  A    between atoms: N_7  and  C_12 
REMARK       I    between atoms: N_7  and  C_21 
REMARK    6  A    between atoms: N_8  and  C_14 
REMARK    7  A    between atoms: C_9  and  C_10 
ROOT
HETATM    1  N   UNK N   1      34.582  13.952  11.681  0.00  0.00    -0.327 N 
ATOM      2  HN  UNK N   1      33.879  13.676  12.366  1.00  0.00     0.169 HD
HETATM    3  C   UNK N   1      35.878  13.556  11.851  0.00  0.00     0.102 A 
HETATM    4  C   UNK N   1      35.175  15.104   9.651  0.00  0.00     0.080 A 
HETATM    5  C   UNK N   1      36.847  13.923  10.930  0.00  0.00     0.050 A 
HETATM    6  C   UNK N   1      34.212  14.714  10.606  0.00  0.00     0.127 A 
HETATM    7  C   UNK N   1      36.497  14.692   9.837  0.00  0.00     0.037 A 
ENDROOT
BRANCH   3   8
HETATM    8  N   UNK N   1      36.290  12.772  12.947  0.00  0.00    -0.372 N 
HETATM    9  H   UNK N   1      37.226  12.467  12.941  0.00  0.00     0.161 HD
BRANCH   8  10
HETATM   10  C   UNK N   1      35.489  12.368  14.074  0.00  0.00     0.159 C 
BRANCH  10  11
HETATM   11  C   UNK N   1      35.803  13.281  15.232  0.00  0.00    -0.040 A 
HETATM   12  C   UNK N   1      36.802  14.268  15.118  0.00  0.00     0.012 A 
HETATM   13  C   UNK N   1      37.096  15.114  16.184  0.00  0.00     0.043 A 
HETATM   14  C   UNK N   1      36.397  14.987  17.382  0.00  0.00     0.116 A 
HETATM   15  F   UNK N   1      36.686  15.811  18.417  0.00  0.00    -0.206 F 
HETATM   16  C   UNK N   1      35.402  14.011  17.512  0.00  0.00     0.043 A 
HETATM   17  C   UNK N   1      35.105  13.158  16.439  0.00  0.00     0.012 A 
ENDBRANCH  10  11
ENDBRANCH   8  10
ENDBRANCH   3   8
BRANCH   6  18
HETATM   18  N   UNK N   1      32.865  15.107  10.459  0.00  0.00    -0.384 N 
HETATM   19  H   UNK N   1      32.180  14.439  10.224  0.00  0.00     0.157 HD
HETATM   20  H   UNK N   1      32.609  16.049  10.591  0.00  0.00     0.157 HD
ENDBRANCH   6  18
BRANCH   4  21
HETATM   21  N   UNK N   1      34.808  15.900   8.521  0.00  0.00    -0.299 N 
HETATM   22  C   UNK N   1      34.836  17.265   8.481  0.00  0.00     0.365 C 
HETATM   23  O   UNK N   1      35.195  17.913   9.459  0.00  0.00    -0.238 OA
HETATM   24  H   UNK N   1      34.512  15.428   7.709  0.00  0.00     0.171 HD
BRANCH  22  25
HETATM   25  O   UNK N   1      34.465  17.909   7.351  0.00  0.00    -0.304 OA
BRANCH  25  26
HETATM   26  C   UNK N   1      33.235  17.692   6.769  0.00  0.00     0.176 C 
HETATM   27  C   UNK N   1      33.399  17.455   5.284  0.00  0.00     0.034 C 
ENDBRANCH  25  26
ENDBRANCH  22  25
ENDBRANCH   4  21
TORSDOF 7
ENDMDL
MODEL 3
REMARK VINA RESULT:      -6.8      9.730     13.001
REMARK  7 active torsions:
REMARK  status: ('A' for Active; 'I' for Inactive)
REMARK    1  A    between atoms: O_2  and  C_21 
REMARK    2  A    between atoms: O_2  and  C_22 
REMARK    3  A    between atoms: N_4  and  C_9 
REMARK    4  A    between atoms: N_4  and  C_11 
REMARK    5  A    between atoms: N_7  and  C_12 
REMARK       I    between atoms: N_7  and  C_21 
REMARK    6  A    between atoms: N_8  and  C_14 
REMARK    7  A    between atoms: C_9  and  C_10 
ROOT
HETATM    1  N   UNK N   1      27.913  19.334   5.258  0.00  0.00    -0.327 N 
ATOM      2  HN  UNK N   1      28.590  19.805   5.857  1.00  0.00     0.169 HD
HETATM    3  C   UNK N   1      28.255  18.158   4.652  0.00  0.00     0.102 A 
HETATM    4  C   UNK N   1      25.730  19.249   4.244  0.00  0.00     0.080 A 
HETATM    5  C   UNK N   1      27.347  17.505   3.833  0.00  0.00     0.050 A 
HETATM    6  C   UNK N   1      26.676  19.890   5.071  0.00  0.00     0.127 A 
HETATM    7  C   UNK N   1      26.094  18.048   3.630  0.00  0.00     0.037 A 
ENDROOT
BRANCH   3   8
HETATM    8  N   UNK N   1      29.520  17.561   4.823  0.00  0.00    -0.372 N 
HETATM    9  H   UNK N   1      30.208  17.793   4.159  0.00  0.00     0.161 HD
BRANCH   8  10
HETATM   10  C   UNK N   1      29.913  16.647   5.864  0.00  0.00     0.159 C 
BRANCH  10  11
HETATM   11  C   UNK N   1      31.240  17.102   6.419  0.00  0.00    -0.040 A 
HETATM   12  C   UNK N   1      31.355  17.503   7.765  0.00  0.00     0.012 A 
HETATM   13  C   UNK N   1      32.577  17.924   8.284  0.00  0.00     0.043 A 
HETATM   14  C   UNK N   1      33.704  17.950   7.465  0.00  0.00     0.116 A 
HETATM   15  F   UNK N   1      34.891  18.359   7.973  0.00  0.00    -0.206 F 
HETATM   16  C   UNK N   1      33.607  17.554   6.126  0.00  0.00     0.043 A 
HETATM   17  C   UNK N   1      32.376  17.130   5.603  0.00  0.00     0.012 A 
ENDBRANCH  10  11
ENDBRANCH   8  10
ENDBRANCH   3   8
BRANCH   6  18
HETATM   18  N   UNK N   1      26.353  21.105   5.711  0.00  0.00    -0.384 N 
HETATM   19  H   UNK N   1      26.375  21.165   6.694  0.00  0.00     0.157 HD
HETATM   20  H   UNK N   1      26.105  21.894   5.175  0.00  0.00     0.157 HD
ENDBRANCH   6  18
BRANCH   4  21
HETATM   21  N   UNK N   1      24.433  19.814   4.037  0.00  0.00    -0.299 N 
HETATM   22  C   UNK N   1      24.082  20.608   2.983  0.00  0.00     0.365 C 
HETATM   23  O   UNK N   1      24.900  20.894   2.114  0.00  0.00    -0.238 OA
HETATM   24  H   UNK N   1      23.738  19.615   4.706  0.00  0.00     0.171 HD
BRANCH  22  25
HETATM   25  O   UNK N   1      22.819  21.085   2.895  0.00  0.00    -0.304 OA
BRANCH  25  26
HETATM   26  C   UNK N   1      21.798  20.327   2.365  0.00  0.00     0.176 C 
HETATM   27  C   UNK N   1      20.702  20.144   3.391  0.00  0.00     0.034 C 
ENDBRANCH  25  26
ENDBRANCH  22  25
ENDBRANCH   4  21
TORSDOF 7
ENDMDL
MODEL 4
REMARK VINA RESULT:      -6.7      2.463      3.802
REMARK  7 active torsions:
REMARK  status: ('A' for Active; 'I' for Inactive)
REMARK    1  A    between atoms: O_2  and  C_21 
REMARK    2  A    between atoms: O_2  and  C_22 
REMARK    3  A    between atoms: N_4  and  C_9 
REMARK    4  A    between atoms: N_4  and  C_11 
REMARK    5  A    between atoms: N_7  and  C_12 
REMARK       I    between atoms: N_7  and  C_21 
REMARK    6  A    between atoms: N_8  and  C_14 
REMARK    7  A    between atoms: C_9  and  C_10 
ROOT
HETATM    1  N   UNK N   1      33.087  15.148  10.381  0.00  0.00    -0.327 N 
ATOM      2  HN  UNK N   1      32.434  15.242  11.158  1.00  0.00     0.169 HD
HETATM    3  C   UNK N   1      34.236  14.430  10.552  0.00  0.00     0.102 A 
HETATM    4  C   UNK N   1      33.693  15.619   8.098  0.00  0.00     0.080 A 
HETATM    5  C   UNK N   1      35.136  14.292   9.507  0.00  0.00     0.050 A 
HETATM    6  C   UNK N   1      32.798  15.742   9.182  0.00  0.00     0.127 A 
HETATM    7  C   UNK N   1      34.865  14.882   8.288  0.00  0.00     0.037 A 
ENDROOT
BRANCH   3   8
HETATM    8  N   UNK N   1      34.562  13.807  11.774  0.00  0.00    -0.372 N 
HETATM    9  H   UNK N   1      33.811  13.443  12.295  0.00  0.00     0.161 HD
BRANCH   8  10
HETATM   10  C   UNK N   1      35.876  13.649  12.342  0.00  0.00     0.159 C 
BRANCH  10  11
HETATM   11  C   UNK N   1      35.731  13.476  13.834  0.00  0.00    -0.040 A 
HETATM   12  C   UNK N   1      36.565  14.183  14.722  0.00  0.00     0.012 A 
HETATM   13  C   UNK N   1      36.435  14.028  16.101  0.00  0.00     0.043 A 
HETATM   14  C   UNK N   1      35.470  13.163  16.612  0.00  0.00     0.116 A 
HETATM   15  F   UNK N   1      35.348  13.014  17.953  0.00  0.00    -0.206 F 
HETATM   16  C   UNK N   1      34.634  12.453  15.743  0.00  0.00     0.043 A 
HETATM   17  C   UNK N   1      34.764  12.609  14.354  0.00  0.00     0.012 A 
ENDBRANCH  10  11
ENDBRANCH   8  10
ENDBRANCH   3   8
BRANCH   6  18
HETATM   18  N   UNK N   1      31.603  16.476   9.037  0.00  0.00    -0.384 N 
HETATM   19  H   UNK N   1      31.322  16.790   8.146  0.00  0.00     0.157 HD
HETATM   20  H   UNK N   1      31.047  16.675   9.826  0.00  0.00     0.157 HD
ENDBRANCH   6  18
BRANCH   4  21
HETATM   21  N   UNK N   1      33.410  16.232   6.838  0.00  0.00    -0.299 N 
HETATM   22  C   UNK N   1      33.858  17.461   6.446  0.00  0.00     0.365 C 
HETATM   23  O   UNK N   1      34.561  18.139   7.188  0.00  0.00    -0.238 OA
HETATM   24  H   UNK N   1      32.848  15.730   6.204  0.00  0.00     0.171 HD
BRANCH  22  25
HETATM   25  O   UNK N   1      33.522  17.938   5.224  0.00  0.00    -0.304 OA
BRANCH  25  26
HETATM   26  C   UNK N   1      32.360  17.549   4.594  0.00  0.00     0.176 C 
HETATM   27  C   UNK N   1      32.680  16.923   3.255  0.00  0.00     0.034 C 
ENDBRANCH  25  26
ENDBRANCH  22  25
ENDBRANCH   4  21
TORSDOF 7
ENDMDL
MODEL 5
REMARK VINA RESULT:      -6.6     10.082     13.062
REMARK  7 active torsions:
REMARK  status: ('A' for Active; 'I' for Inactive)
REMARK    1  A    between atoms: O_2  and  C_21 
REMARK    2  A    between atoms: O_2  and  C_22 
REMARK    3  A    between atoms: N_4  and  C_9 
REMARK    4  A    between atoms: N_4  and  C_11 
REMARK    5  A    between atoms: N_7  and  C_12 
REMARK       I    between atoms: N_7  and  C_21 
REMARK    6  A    between atoms: N_8  and  C_14 
REMARK    7  A    between atoms: C_9  and  C_10 
ROOT
HETATM    1  N   UNK N   1      27.741  19.120   4.969  0.00  0.00    -0.327 N 
ATOM      2  HN  UNK N   1      28.497  19.602   5.455  1.00  0.00     0.169 HD
HETATM    3  C   UNK N   1      27.941  17.850   4.508  0.00  0.00     0.102 A 
HETATM    4  C   UNK N   1      25.489  19.101   4.116  0.00  0.00     0.080 A 
HETATM    5  C   UNK N   1      26.925  17.180   3.844  0.00  0.00     0.050 A 
HETATM    6  C   UNK N   1      26.543  19.756   4.787  0.00  0.00     0.127 A 
HETATM    7  C   UNK N   1      25.708  17.802   3.649  0.00  0.00     0.037 A 
ENDROOT
BRANCH   3   8
HETATM    8  N   UNK N   1      29.163  17.168   4.679  0.00  0.00    -0.372 N 
HETATM    9  H   UNK N   1      29.862  17.347   4.010  0.00  0.00     0.161 HD
BRANCH   8  10
HETATM   10  C   UNK N   1      29.498  16.237   5.725  0.00  0.00     0.159 C 
BRANCH  10  11
HETATM   11  C   UNK N   1      29.593  16.997   7.025  0.00  0.00    -0.040 A 
HETATM   12  C   UNK N   1      28.438  17.269   7.784  0.00  0.00     0.012 A 
HETATM   13  C   UNK N   1      28.520  17.970   8.985  0.00  0.00     0.043 A 
HETATM   14  C   UNK N   1      29.758  18.410   9.446  0.00  0.00     0.116 A 
HETATM   15  F   UNK N   1      29.834  19.091  10.614  0.00  0.00    -0.206 F 
HETATM   16  C   UNK N   1      30.916  18.148   8.704  0.00  0.00     0.043 A 
HETATM   17  C   UNK N   1      30.834  17.442   7.494  0.00  0.00     0.012 A 
ENDBRANCH  10  11
ENDBRANCH   8  10
ENDBRANCH   3   8
BRANCH   6  18
HETATM   18  N   UNK N   1      26.368  21.068   5.276  0.00  0.00    -0.384 N 
HETATM   19  H   UNK N   1      26.633  21.290   6.198  0.00  0.00     0.157 HD
HETATM   20  H   UNK N   1      25.980  21.762   4.694  0.00  0.00     0.157 HD
ENDBRANCH   6  18
BRANCH   4  21
HETATM   21  N   UNK N   1      24.230  19.749   3.916  0.00  0.00    -0.299 N 
HETATM   22  C   UNK N   1      23.938  20.594   2.884  0.00  0.00     0.365 C 
HETATM   23  O   UNK N   1      24.779  20.856   2.031  0.00  0.00    -0.238 OA
HETATM   24  H   UNK N   1      23.518  19.572   4.574  0.00  0.00     0.171 HD
BRANCH  22  25
HETATM   25  O   UNK N   1      22.706  21.148   2.801  0.00  0.00    -0.304 OA
BRANCH  25  26
HETATM   26  C   UNK N   1      21.631  20.443   2.306  0.00  0.00     0.176 C 
HETATM   27  C   UNK N   1      20.627  20.188   3.409  0.00  0.00     0.034 C 
ENDBRANCH  25  26
ENDBRANCH  22  25
ENDBRANCH   4  21
TORSDOF 7
ENDMDL
MODEL 6
REMARK VINA RESULT:      -6.5      1.988      2.839
REMARK  7 active torsions:
REMARK  status: ('A' for Active; 'I' for Inactive)
REMARK    1  A    between atoms: O_2  and  C_21 
REMARK    2  A    between atoms: O_2  and  C_22 
REMARK    3  A    between atoms: N_4  and  C_9 
REMARK    4  A    between atoms: N_4  and  C_11 
REMARK    5  A    between atoms: N_7  and  C_12 
REMARK       I    between atoms: N_7  and  C_21 
REMARK    6  A    between atoms: N_8  and  C_14 
REMARK    7  A    between atoms: C_9  and  C_10 
ROOT
HETATM    1  N   UNK N   1      34.225  14.297  11.495  0.00  0.00    -0.327 N 
ATOM      2  HN  UNK N   1      33.496  14.022  12.153  1.00  0.00     0.169 HD
HETATM    3  C   UNK N   1      35.528  13.994  11.772  0.00  0.00     0.102 A 
HETATM    4  C   UNK N   1      34.883  15.350   9.432  0.00  0.00     0.080 A 
HETATM    5  C   UNK N   1      36.533  14.360  10.890  0.00  0.00     0.050 A 
HETATM    6  C   UNK N   1      33.884  14.964  10.350  0.00  0.00     0.127 A 
HETATM    7  C   UNK N   1      36.212  15.034   9.728  0.00  0.00     0.037 A 
ENDROOT
BRANCH   3   8
HETATM    8  N   UNK N   1      35.912  13.309  12.942  0.00  0.00    -0.372 N 
HETATM    9  H   UNK N   1      36.361  12.443  12.817  0.00  0.00     0.161 HD
BRANCH   8  10
HETATM   10  C   UNK N   1      35.716  13.741  14.302  0.00  0.00     0.159 C 
BRANCH  10  11
HETATM   11  C   UNK N   1      35.350  12.537  15.135  0.00  0.00    -0.040 A 
HETATM   12  C   UNK N   1      35.763  12.442  16.479  0.00  0.00     0.012 A 
HETATM   13  C   UNK N   1      35.429  11.333  17.252  0.00  0.00     0.043 A 
HETATM   14  C   UNK N   1      34.676  10.301  16.695  0.00  0.00     0.116 A 
HETATM   15  F   UNK N   1      34.353   9.225  17.450  0.00  0.00    -0.206 F 
HETATM   16  C   UNK N   1      34.258  10.381  15.361  0.00  0.00     0.043 A 
HETATM   17  C   UNK N   1      34.594  11.498  14.581  0.00  0.00     0.012 A 
ENDBRANCH  10  11
ENDBRANCH   8  10
ENDBRANCH   3   8
BRANCH   6  18
HETATM   18  N   UNK N   1      32.529  15.261  10.093  0.00  0.00    -0.384 N 
HETATM   19  H   UNK N   1      31.820  14.693  10.471  0.00  0.00     0.157 HD
HETATM   20  H   UNK N   1      32.293  16.037   9.534  0.00  0.00     0.157 HD
ENDBRANCH   6  18
BRANCH   4  21
HETATM   21  N   UNK N   1      34.547  16.047   8.229  0.00  0.00    -0.299 N 
HETATM   22  C   UNK N   1      34.628  17.400   8.059  0.00  0.00     0.365 C 
HETATM   23  O   UNK N   1      35.013  18.125   8.970  0.00  0.00    -0.238 OA
HETATM   24  H   UNK N   1      34.232  15.511   7.466  0.00  0.00     0.171 HD
BRANCH  22  25
HETATM   25  O   UNK N   1      34.281  17.946   6.871  0.00  0.00    -0.304 OA
BRANCH  25  26
HETATM   26  C   UNK N   1      33.863  17.167   5.814  0.00  0.00     0.176 C 
HETATM   27  C   UNK N   1      32.372  17.326   5.610  0.00  0.00     0.034 C 
ENDBRANCH  25  26
ENDBRANCH  22  25
ENDBRANCH   4  21
TORSDOF 7
ENDMDL
MODEL 7
REMARK VINA RESULT:      -6.4      5.379     10.663
REMARK  7 active torsions:
REMARK  status: ('A' for Active; 'I' for Inactive)
REMARK    1  A    between atoms: O_2  and  C_21 
REMARK    2  A    between atoms: O_2  and  C_22 
REMARK    3  A    between atoms: N_4  and  C_9 
REMARK    4  A    between atoms: N_4  and  C_11 
REMARK    5  A    between atoms: N_7  and  C_12 
REMARK       I    between atoms: N_7  and  C_21 
REMARK    6  A    between atoms: N_8  and  C_14 
REMARK    7  A    between atoms: C_9  and  C_10 
ROOT
HETATM    1  N   UNK N   1      31.404  16.160   7.963  0.00  0.00    -0.327 N 
ATOM      2  HN  UNK N   1      30.417  16.053   8.193  1.00  0.00     0.169 HD
HETATM    3  C   UNK N   1      31.758  16.693   6.756  0.00  0.00     0.102 A 
HETATM    4  C   UNK N   1      33.724  15.909   8.559  0.00  0.00     0.080 A 
HETATM    5  C   UNK N   1      33.095  16.844   6.425  0.00  0.00     0.050 A 
HETATM    6  C   UNK N   1      32.354  15.767   8.866  0.00  0.00     0.127 A 
HETATM    7  C   UNK N   1      34.071  16.455   7.321  0.00  0.00     0.037 A 
ENDROOT
BRANCH   3   8
HETATM    8  N   UNK N   1      30.804  17.105   5.804  0.00  0.00    -0.372 N 
HETATM    9  H   UNK N   1      31.144  17.612   5.033  0.00  0.00     0.161 HD
BRANCH   8  10
HETATM   10  C   UNK N   1      29.384  16.867   5.840  0.00  0.00     0.159 C 
BRANCH  10  11
HETATM   11  C   UNK N   1      28.679  18.199   5.884  0.00  0.00    -0.040 A 
HETATM   12  C   UNK N   1      28.416  18.911   4.697  0.00  0.00     0.012 A 
HETATM   13  C   UNK N   1      27.765  20.142   4.731  0.00  0.00     0.043 A 
HETATM   14  C   UNK N   1      27.366  20.681   5.953  0.00  0.00     0.116 A 
HETATM   15  F   UNK N   1      26.734  21.878   5.982  0.00  0.00    -0.206 F 
HETATM   16  C   UNK N   1      27.620  19.986   7.141  0.00  0.00     0.043 A 
HETATM   17  C   UNK N   1      28.276  18.746   7.108  0.00  0.00     0.012 A 
ENDBRANCH  10  11
ENDBRANCH   8  10
ENDBRANCH   3   8
BRANCH   6  18
HETATM   18  N   UNK N   1      31.956  15.221  10.105  0.00  0.00    -0.384 N 
HETATM   19  H   UNK N   1      31.249  15.659  10.632  0.00  0.00     0.157 HD
HETATM   20  H   UNK N   1      32.386  14.402  10.443  0.00  0.00     0.157 HD
ENDBRANCH   6  18
BRANCH   4  21
HETATM   21  N   UNK N   1      34.731  15.505   9.490  0.00  0.00    -0.299 N 
HETATM   22  C   UNK N   1      35.476  16.354  10.257  0.00  0.00     0.365 C 
HETATM   23  O   UNK N   1      35.314  17.568  10.187  0.00  0.00    -0.238 OA
HETATM   24  H   UNK N   1      34.901  14.539   9.585  0.00  0.00     0.171 HD
BRANCH  22  25
HETATM   25  O   UNK N   1      36.403  15.851  11.105  0.00  0.00    -0.304 OA
BRANCH  25  26
HETATM   26  C   UNK N   1      36.392  14.526  11.481  0.00  0.00     0.176 C 
HETATM   27  C   UNK N   1      36.033  14.405  12.945  0.00  0.00     0.034 C 
ENDBRANCH  25  26
ENDBRANCH  22  25
ENDBRANCH   4  21
TORSDOF 7
ENDMDL
MODEL 8
REMARK VINA RESULT:      -6.4      2.296      3.469
REMARK  7 active torsions:
REMARK  status: ('A' for Active; 'I' for Inactive)
REMARK    1  A    between atoms: O_2  and  C_21 
REMARK    2  A    between atoms: O_2  and  C_22 
REMARK    3  A    between atoms: N_4  and  C_9 
REMARK    4  A    between atoms: N_4  and  C_11 
REMARK    5  A    between atoms: N_7  and  C_12 
REMARK       I    between atoms: N_7  and  C_21 
REMARK    6  A    between atoms: N_8  and  C_14 
REMARK    7  A    between atoms: C_9  and  C_10 
ROOT
HETATM    1  N   UNK N   1      35.425  16.845  10.547  0.00  0.00    -0.327 N 
ATOM      2  HN  UNK N   1      36.093  17.532  10.894  1.00  0.00     0.169 HD
HETATM    3  C   UNK N   1      35.285  15.654  11.201  0.00  0.00     0.102 A 
HETATM    4  C   UNK N   1      33.755  16.186   8.941  0.00  0.00     0.080 A 
HETATM    5  C   UNK N   1      34.382  14.707  10.742  0.00  0.00     0.050 A 
HETATM    6  C   UNK N   1      34.683  17.129   9.432  0.00  0.00     0.127 A 
HETATM    7  C   UNK N   1      33.623  14.972   9.620  0.00  0.00     0.037 A 
ENDROOT
BRANCH   3   8
HETATM    8  N   UNK N   1      36.035  15.331  12.350  0.00  0.00    -0.372 N 
HETATM    9  H   UNK N   1      36.253  16.075  12.955  0.00  0.00     0.161 HD
BRANCH   8  10
HETATM   10  C   UNK N   1      36.517  14.029  12.733  0.00  0.00     0.159 C 
BRANCH  10  11
HETATM   11  C   UNK N   1      36.096  13.766  14.157  0.00  0.00    -0.040 A 
HETATM   12  C   UNK N   1      36.776  14.375  15.230  0.00  0.00     0.012 A 
HETATM   13  C   UNK N   1      36.392  14.135  16.548  0.00  0.00     0.043 A 
HETATM   14  C   UNK N   1      35.322  13.284  16.813  0.00  0.00     0.116 A 
HETATM   15  F   UNK N   1      34.951  13.054  18.095  0.00  0.00    -0.206 F 
HETATM   16  C   UNK N   1      34.635  12.671  15.758  0.00  0.00     0.043 A 
HETATM   17  C   UNK N   1      35.022  12.912  14.431  0.00  0.00     0.012 A 
ENDBRANCH  10  11
ENDBRANCH   8  10
ENDBRANCH   3   8
BRANCH   6  18
HETATM   18  N   UNK N   1      34.850  18.368   8.780  0.00  0.00    -0.384 N 
HETATM   19  H   UNK N   1      35.047  18.394   7.815  0.00  0.00     0.157 HD
HETATM   20  H   UNK N   1      34.771  19.208   9.289  0.00  0.00     0.157 HD
ENDBRANCH   6  18
BRANCH   4  21
HETATM   21  N   UNK N   1      32.971  16.464   7.778  0.00  0.00    -0.299 N 
HETATM   22  C   UNK N   1      31.883  17.290   7.746  0.00  0.00     0.365 C 
HETATM   23  O   UNK N   1      31.502  17.865   8.759  0.00  0.00    -0.238 OA
HETATM   24  H   UNK N   1      33.235  16.027   6.936  0.00  0.00     0.171 HD
BRANCH  22  25
HETATM   25  O   UNK N   1      31.219  17.476   6.582  0.00  0.00    -0.304 OA
BRANCH  25  26
HETATM   26  C   UNK N   1      31.327  16.581   5.540  0.00  0.00     0.176 C 
HETATM   27  C   UNK N   1      31.567  17.321   4.243  0.00  0.00     0.034 C 
ENDBRANCH  25  26
ENDBRANCH  22  25
ENDBRANCH   4  21
TORSDOF 7
ENDMDL
MODEL 9
REMARK VINA RESULT:      -6.3      3.775      6.188
REMARK  7 active torsions:
REMARK  status: ('A' for Active; 'I' for Inactive)
REMARK    1  A    between atoms: O_2  and  C_21 
REMARK    2  A    between atoms: O_2  and  C_22 
REMARK    3  A    between atoms: N_4  and  C_9 
REMARK    4  A    between atoms: N_4  and  C_11 
REMARK    5  A    between atoms: N_7  and  C_12 
REMARK       I    between atoms: N_7  and  C_21 
REMARK    6  A    between atoms: N_8  and  C_14 
REMARK    7  A    between atoms: C_9  and  C_10 
ROOT
HETATM    1  N   UNK N   1      35.737  10.993  18.189  0.00  0.00    -0.327 N 
ATOM      2  HN  UNK N   1      35.940  10.008  18.353  1.00  0.00     0.169 HD
HETATM    3  C   UNK N   1      35.419  11.798  19.246  0.00  0.00     0.102 A 
HETATM    4  C   UNK N   1      35.507  12.851  16.674  0.00  0.00     0.080 A 
HETATM    5  C   UNK N   1      35.139  13.140  19.042  0.00  0.00     0.050 A 
HETATM    6  C   UNK N   1      35.786  11.489  16.914  0.00  0.00     0.127 A 
HETATM    7  C   UNK N   1      35.183  13.663  17.764  0.00  0.00     0.037 A 
ENDROOT
BRANCH   3   8
HETATM    8  N   UNK N   1      35.359  11.318  20.569  0.00  0.00    -0.372 N 
HETATM    9  H   UNK N   1      35.331  11.996  21.282  0.00  0.00     0.161 HD
BRANCH   8  10
HETATM   10  C   UNK N   1      35.336   9.941  20.992  0.00  0.00     0.159 C 
BRANCH  10  11
HETATM   11  C   UNK N   1      33.943   9.403  20.784  0.00  0.00    -0.040 A 
HETATM   12  C   UNK N   1      33.693   8.417  19.809  0.00  0.00     0.012 A 
HETATM   13  C   UNK N   1      32.408   7.916  19.613  0.00  0.00     0.043 A 
HETATM   14  C   UNK N   1      31.353   8.393  20.387  0.00  0.00     0.116 A 
HETATM   15  F   UNK N   1      30.105   7.904  20.193  0.00  0.00    -0.206 F 
HETATM   16  C   UNK N   1      31.585   9.373  21.360  0.00  0.00     0.043 A 
HETATM   17  C   UNK N   1      32.878   9.878  21.558  0.00  0.00     0.012 A 
ENDBRANCH  10  11
ENDBRANCH   8  10
ENDBRANCH   3   8
BRANCH   6  18
HETATM   18  N   UNK N   1      36.118  10.632  15.844  0.00  0.00    -0.384 N 
HETATM   19  H   UNK N   1      36.584  10.989  15.053  0.00  0.00     0.157 HD
HETATM   20  H   UNK N   1      35.884   9.676  15.888  0.00  0.00     0.157 HD
ENDBRANCH   6  18
BRANCH   4  21
HETATM   21  N   UNK N   1      35.553  13.388  15.349  0.00  0.00    -0.299 N 
HETATM   22  C   UNK N   1      36.536  14.205  14.869  0.00  0.00     0.365 C 
HETATM   23  O   UNK N   1      37.478  14.540  15.580  0.00  0.00    -0.238 OA
HETATM   24  H   UNK N   1      34.820  13.150  14.736  0.00  0.00     0.171 HD
BRANCH  22  25
HETATM   25  O   UNK N   1      36.471  14.652  13.593  0.00  0.00    -0.304 OA
BRANCH  25  26
HETATM   26  C   UNK N   1      35.541  14.160  12.704  0.00  0.00     0.176 C 
HETATM   27  C   UNK N   1      35.299  15.163  11.598  0.00  0.00     0.034 C 
ENDBRANCH  25  26
ENDBRANCH  22  25
ENDBRANCH   4  21
TORSDOF 7
ENDMDL
