MODEL 1
REMARK VINA RESULT:      -8.4      0.000      0.000
REMARK WARNING: 32 MAX_TORS EXCEEDED!!!
REMARK  42 active torsions:
REMARK  status: ('A' for Active; 'I' for Inactive)
REMARK       I    between atoms: C_3  and  N_1 
REMARK    1  A    between atoms: C_34  and  C_3 
REMARK    2  A    between atoms: C_9  and  C_5 
REMARK       I    between atoms: N_27  and  C_5 
REMARK       I    between atoms: C_8  and  N_20 
REMARK    3  A    between atoms: C_19  and  C_8 
REMARK    4  A    between atoms: C_10  and  C_17 
REMARK       I    between atoms: C_11  and  N_18 
REMARK    5  A    between atoms: C_31  and  C_11 
REMARK       I    between atoms: C_12  and  N_25 
REMARK    6  A    between atoms: C_32  and  C_12 
REMARK       I    between atoms: C_13  and  N_23 
REMARK    7  A    between atoms: C_29  and  C_13 
REMARK       I    between atoms: C_14  and  N_22 
REMARK    8  A    between atoms: C_30  and  C_14 
REMARK       I    between atoms: C_15  and  N_21 
REMARK    9  A    between atoms: C_28  and  C_15 
REMARK       I    between atoms: C_16  and  N_24 
REMARK   10  A    between atoms: C_35  and  C_16 
REMARK       I    between atoms: C_17  and  N_38 
REMARK   11  A    between atoms: C_19  and  N_18 
REMARK   12  A    between atoms: C_19  and  C_83 
REMARK   13  A    between atoms: C_28  and  N_20 
REMARK   14  A    between atoms: C_29  and  N_21 
REMARK   15  A    between atoms: C_31  and  N_22 
REMARK   16  A    between atoms: C_32  and  N_23 
REMARK   17  A    between atoms: C_30  and  N_24 
REMARK   18  A    between atoms: C_34  and  N_25 
REMARK   19  A    between atoms: C_40  and  N_27 
REMARK   20  A    between atoms: C_28  and  C_58 
REMARK   21  A    between atoms: C_29  and  C_57 
REMARK   22  A    between atoms: C_30  and  C_56 
REMARK   23  A    between atoms: C_31  and  C_60 
REMARK   24  A    between atoms: C_32  and  C_64 
REMARK       I    between atoms: C_33  and  N_41 
REMARK       I    between atoms: N_70  and  C_33 
REMARK   25  A    between atoms: C_34  and  C_100 
REMARK   26  A    between atoms: C_35  and  N_37 
REMARK   27  A    between atoms: C_35  and  C_45 
REMARK   28  A    between atoms: C_36  and  C_40 
REMARK       I    between atoms: N_72  and  C_36 
REMARK       I    between atoms: C_39  and  N_37 
REMARK   29  A    between atoms: N_38  and  C_69 
REMARK   30  A    between atoms: N_41  and  C_74 
REMARK   31  A    between atoms: C_59  and  C_45 
REMARK   32  A    between atoms: C_77  and  C_56 
REMARK   33  A    between atoms: C_76  and  C_57 
REMARK   34  A    between atoms: C_75  and  C_58 
REMARK   35  A    between atoms: C_80  and  C_60 
REMARK   36  A    between atoms: C_101  and  C_64 
REMARK   37  A    between atoms: N_81  and  C_107 
REMARK   38  A    between atoms: C_104  and  N_81 
REMARK   39  A    between atoms: O_97  and  C_83 
REMARK   40  A    between atoms: C_110  and  C_100 
REMARK   41  A    between atoms: C_107  and  C_111 
REMARK   42  A    between atoms: C_111  and  C_110 
ROOT
HETATM    1  C   UNK N   1      29.967  11.170   2.859  0.00  0.00     0.180 C 
ENDROOT
BRANCH   1   2
HETATM    2  N   UNK N   1      29.624   9.793   3.152  0.00  0.00    -0.346 N 
HETATM    3  C   UNK N   1      30.451   8.869   3.691  0.00  0.00     0.243 C 
HETATM    4  O   UNK N   1      30.002   7.778   4.000  0.00  0.00    -0.271 OA
HETATM    5  H   UNK N   1      28.708   9.502   2.937  0.00  0.00     0.163 HD
BRANCH   3   6
HETATM    6  C   UNK N   1      31.911   9.111   3.812  0.00  0.00     0.200 C 
BRANCH   6   7
HETATM    7  N   UNK N   1      32.165   9.043   5.218  0.00  0.00    -0.344 N 
HETATM    8  C   UNK N   1      33.285   9.332   5.923  0.00  0.00     0.241 C 
HETATM    9  O   UNK N   1      34.220   9.937   5.420  0.00  0.00    -0.271 OA
HETATM   10  H   UNK N   1      31.403   8.738   5.761  0.00  0.00     0.163 HD
BRANCH   8  11
HETATM   11  C   UNK N   1      33.353   8.839   7.345  0.00  0.00     0.180 C 
BRANCH  11  12
HETATM   12  N   UNK N   1      32.470   9.650   8.167  0.00  0.00    -0.346 N 
HETATM   13  C   UNK N   1      32.918  10.590   9.029  0.00  0.00     0.241 C 
HETATM   14  O   UNK N   1      32.115  11.249   9.670  0.00  0.00    -0.271 OA
HETATM   15  H   UNK N   1      31.499   9.507   8.094  0.00  0.00     0.163 HD
BRANCH  13  16
HETATM   16  C   UNK N   1      34.373  10.658   9.344  0.00  0.00     0.180 C 
BRANCH  16  17
HETATM   17  N   UNK N   1      34.428  10.188  10.699  0.00  0.00    -0.346 N 
HETATM   18  C   UNK N   1      34.825   8.997  11.171  0.00  0.00     0.241 C 
HETATM   19  O   UNK N   1      34.964   8.031  10.435  0.00  0.00    -0.271 OA
HETATM   20  H   UNK N   1      34.131  10.833  11.381  0.00  0.00     0.163 HD
BRANCH  18  21
HETATM   21  C   UNK N   1      35.239   8.950  12.609  0.00  0.00     0.180 C 
BRANCH  21  22
HETATM   22  N   UNK N   1      36.664   9.158  12.725  0.00  0.00    -0.348 N 
HETATM   23  C   UNK N   1      37.495   8.212  13.225  0.00  0.00     0.214 C 
HETATM   24  O   UNK N   1      37.062   7.134  13.604  0.00  0.00    -0.274 OA
HETATM   25  C   UNK N   1      38.950   8.497  13.326  0.00  0.00     0.117 C 
HETATM   26  H   UNK N   1      37.043  10.017  12.429  0.00  0.00     0.163 HD
ENDBRANCH  21  22
BRANCH  21  27
HETATM   27  C   UNK N   1      34.515  10.100  13.339  0.00  0.00     0.073 C 
BRANCH  27  28
HETATM   28  C   UNK N   1      34.789  10.352  14.799  0.00  0.00    -0.055 A 
HETATM   29  C   UNK N   1      34.754  11.680  15.237  0.00  0.00     0.019 A 
HETATM   30  C   UNK N   1      34.956  11.992  16.582  0.00  0.00    -0.025 A 
HETATM   31  C   UNK N   1      34.929  13.324  17.002  0.00  0.00     0.012 A 
HETATM   32  C   UNK N   1      35.186  10.961  17.518  0.00  0.00    -0.026 A 
HETATM   33  C   UNK N   1      35.126  13.636  18.351  0.00  0.00     0.001 A 
HETATM   34  C   UNK N   1      35.347  12.614  19.282  0.00  0.00     0.001 A 
HETATM   35  C   UNK N   1      35.378  11.277  18.867  0.00  0.00     0.012 A 
HETATM   36  C   UNK N   1      35.224   9.631  17.085  0.00  0.00     0.013 A 
HETATM   37  C   UNK N   1      35.030   9.329  15.730  0.00  0.00     0.008 A 
ENDBRANCH  27  28
ENDBRANCH  21  27
ENDBRANCH  18  21
ENDBRANCH  16  17
BRANCH  16  38
HETATM   38  C   UNK N   1      34.969  12.038   9.051  0.00  0.00     0.073 C 
BRANCH  38  39
HETATM   39  C   UNK N   1      35.413  12.679  10.324  0.00  0.00    -0.056 A 
HETATM   40  C   UNK N   1      34.577  13.582  10.992  0.00  0.00     0.009 A 
HETATM   41  C   UNK N   1      34.986  14.154  12.200  0.00  0.00     0.024 A 
HETATM   42  C   UNK N   1      36.229  13.821  12.745  0.00  0.00     0.034 A 
HETATM   43  C   UNK N   1      37.070  12.928  12.076  0.00  0.00     0.024 A 
HETATM   44 Cl   UNK N   1      36.728  14.521  14.270  0.00  0.00    -0.084 Cl
HETATM   45  C   UNK N   1      36.664  12.359  10.865  0.00  0.00     0.009 A 
ENDBRANCH  38  39
ENDBRANCH  16  38
ENDBRANCH  13  16
ENDBRANCH  11  12
BRANCH  11  46
HETATM   46  C   UNK N   1      33.004   7.336   7.456  0.00  0.00     0.074 C 
BRANCH  46  47
HETATM   47  C   UNK N   1      31.806   6.857   8.259  0.00  0.00    -0.040 A 
HETATM   48  C   UNK N   1      31.839   6.632   9.644  0.00  0.00     0.094 A 
HETATM   49  N   UNK N   1      30.743   6.163  10.299  0.00  0.00    -0.375 N 
HETATM   50  C   UNK N   1      29.585   5.902   9.640  0.00  0.00     0.087 A 
ATOM     51  HN  UNK N   1      30.793   6.005  11.305  1.00  0.00     0.164 HD
HETATM   52  C   UNK N   1      29.500   6.115   8.264  0.00  0.00     0.018 A 
HETATM   53  C   UNK N   1      30.617   6.592   7.575  0.00  0.00     0.010 A 
ENDBRANCH  46  47
ENDBRANCH  11  46
ENDBRANCH   8  11
ENDBRANCH   6   7
BRANCH   6  54
HETATM   54  C   UNK N   1      32.791   8.243   2.927  0.00  0.00     0.199 C 
BRANCH  54  55
HETATM   55  O   UNK N   1      33.942   8.955   2.591  0.00  0.00    -0.398 OA
HETATM   56  H   UNK N   1      34.665   9.288   3.145  0.00  0.00     0.209 HD
ENDBRANCH  54  55
ENDBRANCH   6  54
ENDBRANCH   3   6
ENDBRANCH   1   2
BRANCH   1  57
HETATM   57  C   UNK N   1      29.248  11.652   1.637  0.00  0.00     0.241 C 
HETATM   58  N   UNK N   1      28.569  12.826   1.605  0.00  0.00    -0.346 N 
HETATM   59  H   UNK N   1      28.206  13.111   0.736  0.00  0.00     0.163 HD
HETATM   60  O   UNK N   1      29.287  10.964   0.629  0.00  0.00    -0.271 OA
BRANCH  58  61
HETATM   61  C   UNK N   1      28.328  13.704   2.746  0.00  0.00     0.180 C 
BRANCH  61  62
HETATM   62  C   UNK N   1      26.890  13.593   3.081  0.00  0.00     0.241 C 
HETATM   63  N   UNK N   1      26.021  14.296   2.314  0.00  0.00    -0.346 N 
HETATM   64  H   UNK N   1      26.186  14.380   1.347  0.00  0.00     0.163 HD
HETATM   65  O   UNK N   1      26.533  13.094   4.141  0.00  0.00    -0.271 OA
BRANCH  63  66
HETATM   66  C   UNK N   1      24.860  14.918   2.890  0.00  0.00     0.177 C 
BRANCH  66  67
HETATM   67  C   UNK N   1      23.717  14.566   1.927  0.00  0.00     0.241 C 
HETATM   68  N   UNK N   1      22.402  14.757   2.189  0.00  0.00    -0.346 N 
HETATM   69  H   UNK N   1      21.769  14.683   1.438  0.00  0.00     0.163 HD
HETATM   70  O   UNK N   1      24.022  14.137   0.824  0.00  0.00    -0.271 OA
BRANCH  68  71
HETATM   71  C   UNK N   1      21.864  15.058   3.487  0.00  0.00     0.176 C 
BRANCH  71  72
HETATM   72  C   UNK N   1      21.223  13.788   4.036  0.00  0.00     0.243 C 
HETATM   73  N   UNK N   1      21.749  13.050   5.051  0.00  0.00    -0.337 N 
HETATM   74  C   UNK N   1      23.036  13.280   5.639  0.00  0.00     0.179 C 
HETATM   75  C   UNK N   1      21.192  11.768   5.387  0.00  0.00     0.127 C 
HETATM   76  C   UNK N   1      23.610  11.874   5.626  0.00  0.00     0.037 C 
HETATM   77  C   UNK N   1      22.395  10.961   5.854  0.00  0.00     0.022 C 
HETATM   78  O   UNK N   1      20.196  13.393   3.497  0.00  0.00    -0.271 OA
BRANCH  74  79
HETATM   79  C   UNK N   1      22.903  13.672   7.091  0.00  0.00     0.241 C 
HETATM   80  N   UNK N   1      23.728  13.092   8.000  0.00  0.00    -0.346 N 
HETATM   81  H   UNK N   1      24.551  12.661   7.674  0.00  0.00     0.163 HD
HETATM   82  O   UNK N   1      21.995  14.412   7.454  0.00  0.00    -0.271 OA
BRANCH  80  83
HETATM   83  C   UNK N   1      23.463  13.074   9.423  0.00  0.00     0.172 C 
HETATM   84  C   UNK N   1      22.534  11.930   9.823  0.00  0.00     0.042 C 
BRANCH  83  85
HETATM   85  C   UNK N   1      24.784  13.079  10.153  0.00  0.00     0.237 C 
HETATM   86  O   UNK N   1      25.641  13.888   9.832  0.00  0.00    -0.271 OA
HETATM   87  N   UNK N   1      25.049  12.182  11.124  0.00  0.00    -0.368 N 
HETATM   88  H   UNK N   1      24.997  11.342  11.635  0.00  0.00     0.159 HD
HETATM   89  H   UNK N   1      25.711  12.679  11.658  0.00  0.00     0.159 HD
ENDBRANCH  83  85
ENDBRANCH  80  83
ENDBRANCH  74  79
ENDBRANCH  71  72
BRANCH  71  90
HETATM   90  C   UNK N   1      21.013  16.323   3.418  0.00  0.00     0.035 C 
BRANCH  90  91
HETATM   91  C   UNK N   1      20.421  16.648   4.773  0.00  0.00     0.004 C 
BRANCH  91  92
HETATM   92  C   UNK N   1      21.126  17.842   5.372  0.00  0.00     0.019 C 
BRANCH  92  93
HETATM   93  C   UNK N   1      21.002  17.787   6.885  0.00  0.00     0.114 C 
BRANCH  93  94
HETATM   94  N   UNK N   1      20.149  16.676   7.284  0.00  0.00    -0.418 N 
HETATM   95  H   UNK N   1      19.994  15.817   6.756  0.00  0.00     0.153 HD
BRANCH  94  96
HETATM   96  C   UNK N   1      19.558  17.010   8.569  0.00  0.00     0.068 C 
HETATM   97  C   UNK N   1      18.057  16.868   8.478  0.00  0.00     0.031 C 
HETATM   98  C   UNK N   1      19.909  18.436   8.952  0.00  0.00     0.031 C 
ENDBRANCH  94  96
ENDBRANCH  93  94
ENDBRANCH  92  93
ENDBRANCH  91  92
ENDBRANCH  90  91
ENDBRANCH  71  90
ENDBRANCH  68  71
ENDBRANCH  66  67
BRANCH  66  99
HETATM   99  C   UNK N   1      25.142  16.392   3.187  0.00  0.00     0.038 C 
BRANCH  99 100
HETATM  100  C   UNK N   1      24.663  16.764   4.572  0.00  0.00    -0.020 C 
HETATM  101  C   UNK N   1      25.533  16.082   5.607  0.00  0.00     0.009 C 
HETATM  102  C   UNK N   1      24.790  18.264   4.723  0.00  0.00     0.009 C 
ENDBRANCH  99 100
ENDBRANCH  66  99
ENDBRANCH  63  66
ENDBRANCH  61  62
BRANCH  61 103
HETATM  103  C   UNK N   1      28.775  15.135   2.414  0.00  0.00     0.073 C 
BRANCH 103 104
HETATM  104  C   UNK N   1      28.958  15.927   3.665  0.00  0.00    -0.056 A 
HETATM  105  C   UNK N   1      29.382  15.310   4.848  0.00  0.00     0.009 A 
HETATM  106  C   UNK N   1      29.418  16.032   6.039  0.00  0.00     0.030 A 
HETATM  107  C   UNK N   1      29.031  17.375   6.056  0.00  0.00     0.036 A 
HETATM  108  C   UNK N   1      28.600  17.985   4.867  0.00  0.00     0.030 A 
HETATM  109  C   UNK N   1      28.558  17.261   3.680  0.00  0.00     0.009 A 
BRANCH 107 110
HETATM  110  N   UNK N   1      29.078  18.088   7.285  0.00  0.00    -0.309 N 
HETATM  111  C   UNK N   1      28.335  17.802   8.387  0.00  0.00     0.318 C 
HETATM  112  O   UNK N   1      27.495  16.915   8.371  0.00  0.00    -0.247 OA
HETATM  113  N   UNK N   1      28.502  18.531   9.506  0.00  0.00    -0.352 N 
HETATM  114  H   UNK N   1      28.299  18.266  10.431  0.00  0.00     0.160 HD
HETATM  115  H   UNK N   1      28.871  19.435   9.383  0.00  0.00     0.160 HD
HETATM  116  H   UNK N   1      29.699  18.849   7.344  0.00  0.00     0.170 HD
ENDBRANCH 107 110
ENDBRANCH 103 104
ENDBRANCH  61 103
ENDBRANCH  58  61
ENDBRANCH   1  57
BRANCH   1 117
HETATM  117  C   UNK N   1      31.480  11.405   2.701  0.00  0.00     0.073 C 
BRANCH 117 118
HETATM  118  C   UNK N   1      31.961  12.645   3.387  0.00  0.00    -0.056 A 
HETATM  119  C   UNK N   1      32.194  12.699   4.770  0.00  0.00     0.009 A 
HETATM  120  C   UNK N   1      32.719  13.878   5.331  0.00  0.00     0.030 A 
HETATM  121  C   UNK N   1      32.977  14.995   4.507  0.00  0.00     0.034 A 
HETATM  122  C   UNK N   1      32.705  14.924   3.155  0.00  0.00     0.030 A 
HETATM  123  C   UNK N   1      32.227  13.762   2.602  0.00  0.00     0.009 A 
BRANCH 121 124
HETATM  124  N   UNK N   1      33.611  16.180   4.946  0.00  0.00    -0.325 N 
HETATM  125  C   UNK N   1      33.964  16.492   6.212  0.00  0.00     0.245 C 
HETATM  126  O   UNK N   1      34.639  17.494   6.391  0.00  0.00    -0.271 OA
HETATM  127  H   UNK N   1      33.817  16.849   4.255  0.00  0.00     0.169 HD
BRANCH 125 128
HETATM  128  C   UNK N   1      33.634  15.600   7.391  0.00  0.00     0.187 C 
HETATM  129  N   UNK N   1      34.662  15.718   8.410  0.00  0.00    -0.329 N 
HETATM  130  C   UNK N   1      34.687  16.786   9.255  0.00  0.00     0.323 C 
HETATM  131  H   UNK N   1      35.350  15.019   8.491  0.00  0.00     0.165 HD
HETATM  132  O   UNK N   1      35.652  16.966   9.974  0.00  0.00    -0.247 OA
HETATM  133  N   UNK N   1      33.648  17.663   9.279  0.00  0.00    -0.279 N 
HETATM  134  C   UNK N   1      32.495  17.398   8.614  0.00  0.00     0.228 C 
HETATM  135  H   UNK N   1      33.733  18.503   9.785  0.00  0.00     0.173 HD
HETATM  136  C   UNK N   1      32.295  16.051   7.974  0.00  0.00     0.138 C 
HETATM  137  O   UNK N   1      31.619  18.243   8.547  0.00  0.00    -0.273 OA
ENDBRANCH 125 128
ENDBRANCH 121 124
ENDBRANCH 117 118
ENDBRANCH   1 117
TORSDOF 42
ENDMDL
MODEL 2
REMARK VINA RESULT:      -8.3      2.357      5.154
REMARK WARNING: 32 MAX_TORS EXCEEDED!!!
REMARK  42 active torsions:
REMARK  status: ('A' for Active; 'I' for Inactive)
REMARK       I    between atoms: C_3  and  N_1 
REMARK    1  A    between atoms: C_34  and  C_3 
REMARK    2  A    between atoms: C_9  and  C_5 
REMARK       I    between atoms: N_27  and  C_5 
REMARK       I    between atoms: C_8  and  N_20 
REMARK    3  A    between atoms: C_19  and  C_8 
REMARK    4  A    between atoms: C_10  and  C_17 
REMARK       I    between atoms: C_11  and  N_18 
REMARK    5  A    between atoms: C_31  and  C_11 
REMARK       I    between atoms: C_12  and  N_25 
REMARK    6  A    between atoms: C_32  and  C_12 
REMARK       I    between atoms: C_13  and  N_23 
REMARK    7  A    between atoms: C_29  and  C_13 
REMARK       I    between atoms: C_14  and  N_22 
REMARK    8  A    between atoms: C_30  and  C_14 
REMARK       I    between atoms: C_15  and  N_21 
REMARK    9  A    between atoms: C_28  and  C_15 
REMARK       I    between atoms: C_16  and  N_24 
REMARK   10  A    between atoms: C_35  and  C_16 
REMARK       I    between atoms: C_17  and  N_38 
REMARK   11  A    between atoms: C_19  and  N_18 
REMARK   12  A    between atoms: C_19  and  C_83 
REMARK   13  A    between atoms: C_28  and  N_20 
REMARK   14  A    between atoms: C_29  and  N_21 
REMARK   15  A    between atoms: C_31  and  N_22 
REMARK   16  A    between atoms: C_32  and  N_23 
REMARK   17  A    between atoms: C_30  and  N_24 
REMARK   18  A    between atoms: C_34  and  N_25 
REMARK   19  A    between atoms: C_40  and  N_27 
REMARK   20  A    between atoms: C_28  and  C_58 
REMARK   21  A    between atoms: C_29  and  C_57 
REMARK   22  A    between atoms: C_30  and  C_56 
REMARK   23  A    between atoms: C_31  and  C_60 
REMARK   24  A    between atoms: C_32  and  C_64 
REMARK       I    between atoms: C_33  and  N_41 
REMARK       I    between atoms: N_70  and  C_33 
REMARK   25  A    between atoms: C_34  and  C_100 
REMARK   26  A    between atoms: C_35  and  N_37 
REMARK   27  A    between atoms: C_35  and  C_45 
REMARK   28  A    between atoms: C_36  and  C_40 
REMARK       I    between atoms: N_72  and  C_36 
REMARK       I    between atoms: C_39  and  N_37 
REMARK   29  A    between atoms: N_38  and  C_69 
REMARK   30  A    between atoms: N_41  and  C_74 
REMARK   31  A    between atoms: C_59  and  C_45 
REMARK   32  A    between atoms: C_77  and  C_56 
REMARK   33  A    between atoms: C_76  and  C_57 
REMARK   34  A    between atoms: C_75  and  C_58 
REMARK   35  A    between atoms: C_80  and  C_60 
REMARK   36  A    between atoms: C_101  and  C_64 
REMARK   37  A    between atoms: N_81  and  C_107 
REMARK   38  A    between atoms: C_104  and  N_81 
REMARK   39  A    between atoms: O_97  and  C_83 
REMARK   40  A    between atoms: C_110  and  C_100 
REMARK   41  A    between atoms: C_107  and  C_111 
REMARK   42  A    between atoms: C_111  and  C_110 
ROOT
HETATM    1  C   UNK N   1      29.042  13.049   2.217  0.00  0.00     0.180 C 
ENDROOT
BRANCH   1   2
HETATM    2  N   UNK N   1      30.254  12.765   1.473  0.00  0.00    -0.346 N 
HETATM    3  C   UNK N   1      31.450  12.432   2.007  0.00  0.00     0.243 C 
HETATM    4  O   UNK N   1      32.360  12.100   1.266  0.00  0.00    -0.271 OA
HETATM    5  H   UNK N   1      30.202  12.823   0.491  0.00  0.00     0.163 HD
BRANCH   3   6
HETATM    6  C   UNK N   1      31.716  12.569   3.461  0.00  0.00     0.200 C 
BRANCH   6   7
HETATM    7  N   UNK N   1      31.749  11.223   3.944  0.00  0.00    -0.344 N 
HETATM    8  C   UNK N   1      30.951  10.590   4.836  0.00  0.00     0.241 C 
HETATM    9  O   UNK N   1      29.892  11.074   5.206  0.00  0.00    -0.271 OA
HETATM   10  H   UNK N   1      32.467  10.667   3.564  0.00  0.00     0.163 HD
BRANCH   8  11
HETATM   11  C   UNK N   1      31.441   9.278   5.392  0.00  0.00     0.180 C 
BRANCH  11  12
HETATM   12  N   UNK N   1      30.875   9.086   6.717  0.00  0.00    -0.346 N 
HETATM   13  C   UNK N   1      31.537   9.389   7.855  0.00  0.00     0.241 C 
HETATM   14  O   UNK N   1      30.987   9.223   8.933  0.00  0.00    -0.271 OA
HETATM   15  H   UNK N   1      29.965   8.717   6.788  0.00  0.00     0.163 HD
BRANCH  13  16
HETATM   16  C   UNK N   1      32.991   9.711   7.792  0.00  0.00     0.180 C 
BRANCH  16  17
HETATM   17  N   UNK N   1      33.441   9.410   9.120  0.00  0.00    -0.346 N 
HETATM   18  C   UNK N   1      34.451   8.622   9.519  0.00  0.00     0.241 C 
HETATM   19  O   UNK N   1      34.982   7.828   8.756  0.00  0.00    -0.271 OA
HETATM   20  H   UNK N   1      32.937   9.845   9.845  0.00  0.00     0.163 HD
BRANCH  18  21
HETATM   21  C   UNK N   1      34.997   8.873  10.890  0.00  0.00     0.180 C 
BRANCH  21  22
HETATM   22  N   UNK N   1      36.382   8.470  10.958  0.00  0.00    -0.348 N 
HETATM   23  C   UNK N   1      36.915   7.889  12.059  0.00  0.00     0.214 C 
HETATM   24  O   UNK N   1      36.232   7.684  13.052  0.00  0.00    -0.274 OA
HETATM   25  C   UNK N   1      38.351   7.510  12.064  0.00  0.00     0.117 C 
HETATM   26  H   UNK N   1      36.959   8.624  10.174  0.00  0.00     0.163 HD
ENDBRANCH  21  22
BRANCH  21  27
HETATM   27  C   UNK N   1      34.914  10.391  11.153  0.00  0.00     0.073 C 
BRANCH  27  28
HETATM   28  C   UNK N   1      34.835  10.904  12.567  0.00  0.00    -0.055 A 
HETATM   29  C   UNK N   1      35.737  11.908  12.936  0.00  0.00     0.019 A 
HETATM   30  C   UNK N   1      35.700  12.465  14.214  0.00  0.00    -0.025 A 
HETATM   31  C   UNK N   1      36.614  13.459  14.571  0.00  0.00     0.012 A 
HETATM   32  C   UNK N   1      34.735  12.025  15.147  0.00  0.00    -0.026 A 
HETATM   33  C   UNK N   1      36.572  14.020  15.851  0.00  0.00     0.001 A 
HETATM   34  C   UNK N   1      35.613  13.591  16.774  0.00  0.00     0.001 A 
HETATM   35  C   UNK N   1      34.694  12.593  16.424  0.00  0.00     0.012 A 
HETATM   36  C   UNK N   1      33.831  11.021  14.784  0.00  0.00     0.013 A 
HETATM   37  C   UNK N   1      33.884  10.460  13.501  0.00  0.00     0.008 A 
ENDBRANCH  27  28
ENDBRANCH  21  27
ENDBRANCH  18  21
ENDBRANCH  16  17
BRANCH  16  38
HETATM   38  C   UNK N   1      33.252  11.122   7.260  0.00  0.00     0.073 C 
BRANCH  38  39
HETATM   39  C   UNK N   1      34.679  11.496   7.494  0.00  0.00    -0.056 A 
HETATM   40  C   UNK N   1      35.005  12.526   8.385  0.00  0.00     0.009 A 
HETATM   41  C   UNK N   1      36.344  12.848   8.624  0.00  0.00     0.024 A 
HETATM   42  C   UNK N   1      37.360  12.140   7.976  0.00  0.00     0.034 A 
HETATM   43  C   UNK N   1      37.037  11.118   7.079  0.00  0.00     0.024 A 
HETATM   44 Cl   UNK N   1      39.036  12.530   8.296  0.00  0.00    -0.084 Cl
HETATM   45  C   UNK N   1      35.698  10.798   6.836  0.00  0.00     0.009 A 
ENDBRANCH  38  39
ENDBRANCH  16  38
ENDBRANCH  13  16
ENDBRANCH  11  12
BRANCH  11  46
HETATM   46  C   UNK N   1      31.108   8.090   4.459  0.00  0.00     0.074 C 
BRANCH  46  47
HETATM   47  C   UNK N   1      29.865   8.092   3.584  0.00  0.00    -0.040 A 
HETATM   48  C   UNK N   1      29.864   8.492   2.239  0.00  0.00     0.094 A 
HETATM   49  N   UNK N   1      28.709   8.510   1.519  0.00  0.00    -0.375 N 
HETATM   50  C   UNK N   1      27.526   8.140   2.074  0.00  0.00     0.087 A 
ATOM     51  HN  UNK N   1      28.733   8.807   0.544  1.00  0.00     0.164 HD
HETATM   52  C   UNK N   1      27.477   7.729   3.406  0.00  0.00     0.018 A 
HETATM   53  C   UNK N   1      28.652   7.709   4.160  0.00  0.00     0.010 A 
ENDBRANCH  46  47
ENDBRANCH  11  46
ENDBRANCH   8  11
ENDBRANCH   6   7
BRANCH   6  54
HETATM   54  C   UNK N   1      32.905  13.443   3.828  0.00  0.00     0.199 C 
BRANCH  54  55
HETATM   55  O   UNK N   1      32.592  14.775   3.558  0.00  0.00    -0.398 OA
HETATM   56  H   UNK N   1      32.965  15.394   2.911  0.00  0.00     0.209 HD
ENDBRANCH  54  55
ENDBRANCH   6  54
ENDBRANCH   3   6
ENDBRANCH   1   2
BRANCH   1  57
HETATM   57  C   UNK N   1      27.903  12.214   1.720  0.00  0.00     0.241 C 
HETATM   58  N   UNK N   1      26.673  12.246   2.291  0.00  0.00    -0.346 N 
HETATM   59  H   UNK N   1      25.957  11.739   1.843  0.00  0.00     0.163 HD
HETATM   60  O   UNK N   1      28.089  11.488   0.757  0.00  0.00    -0.271 OA
BRANCH  58  61
HETATM   61  C   UNK N   1      26.314  12.965   3.509  0.00  0.00     0.180 C 
BRANCH  61  62
HETATM   62  C   UNK N   1      25.918  11.949   4.511  0.00  0.00     0.241 C 
HETATM   63  N   UNK N   1      24.699  12.092   5.086  0.00  0.00    -0.346 N 
HETATM   64  H   UNK N   1      23.943  12.417   4.546  0.00  0.00     0.163 HD
HETATM   65  O   UNK N   1      26.743  11.171   4.970  0.00  0.00    -0.271 OA
BRANCH  63  66
HETATM   66  C   UNK N   1      24.492  11.775   6.473  0.00  0.00     0.177 C 
BRANCH  66  67
HETATM   67  C   UNK N   1      23.378  10.718   6.463  0.00  0.00     0.241 C 
HETATM   68  N   UNK N   1      22.292  10.752   5.654  0.00  0.00    -0.346 N 
HETATM   69  H   UNK N   1      21.744   9.936   5.587  0.00  0.00     0.163 HD
HETATM   70  O   UNK N   1      23.511   9.752   7.198  0.00  0.00    -0.271 OA
BRANCH  68  71
HETATM   71  C   UNK N   1      21.882  11.895   4.885  0.00  0.00     0.176 C 
BRANCH  71  72
HETATM   72  C   UNK N   1      21.100  12.825   5.809  0.00  0.00     0.243 C 
HETATM   73  N   UNK N   1      20.960  14.162   5.597  0.00  0.00    -0.337 N 
HETATM   74  C   UNK N   1      21.640  14.896   4.571  0.00  0.00     0.179 C 
HETATM   75  C   UNK N   1      20.373  15.002   6.604  0.00  0.00     0.127 C 
HETATM   76  C   UNK N   1      22.176  16.071   5.370  0.00  0.00     0.037 C 
HETATM   77  C   UNK N   1      21.105  16.327   6.442  0.00  0.00     0.022 C 
HETATM   78  O   UNK N   1      20.608  12.338   6.820  0.00  0.00    -0.271 OA
BRANCH  74  79
HETATM   79  C   UNK N   1      20.658  15.469   3.578  0.00  0.00     0.241 C 
HETATM   80  N   UNK N   1      21.014  16.575   2.875  0.00  0.00    -0.346 N 
HETATM   81  H   UNK N   1      21.970  16.804   2.819  0.00  0.00     0.163 HD
HETATM   82  O   UNK N   1      19.523  15.014   3.492  0.00  0.00    -0.271 OA
BRANCH  80  83
HETATM   83  C   UNK N   1      20.063  17.436   2.203  0.00  0.00     0.172 C 
HETATM   84  C   UNK N   1      20.457  18.908   2.289  0.00  0.00     0.042 C 
BRANCH  83  85
HETATM   85  C   UNK N   1      19.876  16.929   0.794  0.00  0.00     0.237 C 
HETATM   86  O   UNK N   1      20.484  17.463  -0.120  0.00  0.00    -0.271 OA
HETATM   87  N   UNK N   1      19.018  15.924   0.522  0.00  0.00    -0.368 N 
HETATM   88  H   UNK N   1      18.242  15.327   0.628  0.00  0.00     0.159 HD
HETATM   89  H   UNK N   1      19.421  15.557  -0.298  0.00  0.00     0.159 HD
ENDBRANCH  83  85
ENDBRANCH  80  83
ENDBRANCH  74  79
ENDBRANCH  71  72
BRANCH  71  90
HETATM   90  C   UNK N   1      21.216  11.440   3.589  0.00  0.00     0.035 C 
BRANCH  90  91
HETATM   91  C   UNK N   1      22.197  10.682   2.719  0.00  0.00     0.004 C 
BRANCH  91  92
HETATM   92  C   UNK N   1      22.024  11.085   1.273  0.00  0.00     0.019 C 
BRANCH  92  93
HETATM   93  C   UNK N   1      23.238  11.881   0.829  0.00  0.00     0.114 C 
BRANCH  93  94
HETATM   94  N   UNK N   1      23.647  11.477  -0.510  0.00  0.00    -0.418 N 
HETATM   95  H   UNK N   1      23.880  12.101  -1.282  0.00  0.00     0.153 HD
BRANCH  94  96
HETATM   96  C   UNK N   1      23.664  10.024  -0.548  0.00  0.00     0.068 C 
HETATM   97  C   UNK N   1      25.010   9.530  -0.069  0.00  0.00     0.031 C 
HETATM   98  C   UNK N   1      23.421   9.534  -1.964  0.00  0.00     0.031 C 
ENDBRANCH  94  96
ENDBRANCH  93  94
ENDBRANCH  92  93
ENDBRANCH  91  92
ENDBRANCH  90  91
ENDBRANCH  71  90
ENDBRANCH  68  71
ENDBRANCH  66  67
BRANCH  66  99
HETATM   99  C   UNK N   1      24.282  13.054   7.284  0.00  0.00     0.038 C 
BRANCH  99 100
HETATM  100  C   UNK N   1      24.041  12.735   8.742  0.00  0.00    -0.020 C 
HETATM  101  C   UNK N   1      25.163  13.314   9.579  0.00  0.00     0.009 C 
HETATM  102  C   UNK N   1      22.732  13.374   9.151  0.00  0.00     0.009 C 
ENDBRANCH  99 100
ENDBRANCH  66  99
ENDBRANCH  63  66
ENDBRANCH  61  62
BRANCH  61 103
HETATM  103  C   UNK N   1      25.217  13.997   3.210  0.00  0.00     0.073 C 
BRANCH 103 104
HETATM  104  C   UNK N   1      25.571  15.320   3.802  0.00  0.00    -0.056 A 
HETATM  105  C   UNK N   1      25.926  15.428   5.151  0.00  0.00     0.009 A 
HETATM  106  C   UNK N   1      26.121  16.684   5.724  0.00  0.00     0.030 A 
HETATM  107  C   UNK N   1      25.963  17.838   4.953  0.00  0.00     0.036 A 
HETATM  108  C   UNK N   1      25.599  17.721   3.602  0.00  0.00     0.030 A 
HETATM  109  C   UNK N   1      25.398  16.467   3.033  0.00  0.00     0.009 A 
BRANCH 107 110
HETATM  110  N   UNK N   1      26.168  19.105   5.563  0.00  0.00    -0.309 N 
HETATM  111  C   UNK N   1      26.977  20.086   5.081  0.00  0.00     0.318 C 
HETATM  112  O   UNK N   1      27.659  19.911   4.083  0.00  0.00    -0.247 OA
HETATM  113  N   UNK N   1      27.055  21.260   5.734  0.00  0.00    -0.352 N 
HETATM  114  H   UNK N   1      27.317  22.135   5.368  0.00  0.00     0.160 HD
HETATM  115  H   UNK N   1      26.822  21.241   6.690  0.00  0.00     0.160 HD
HETATM  116  H   UNK N   1      25.686  19.288   6.401  0.00  0.00     0.170 HD
ENDBRANCH 107 110
ENDBRANCH 103 104
ENDBRANCH  61 103
ENDBRANCH  58  61
ENDBRANCH   1  57
BRANCH   1 117
HETATM  117  C   UNK N   1      28.647  14.536   2.202  0.00  0.00     0.073 C 
BRANCH 117 118
HETATM  118  C   UNK N   1      29.125  15.288   3.404  0.00  0.00    -0.056 A 
HETATM  119  C   UNK N   1      29.379  16.668   3.378  0.00  0.00     0.009 A 
HETATM  120  C   UNK N   1      29.752  17.319   4.569  0.00  0.00     0.030 A 
HETATM  121  C   UNK N   1      29.892  16.577   5.762  0.00  0.00     0.034 A 
HETATM  122  C   UNK N   1      29.668  15.214   5.749  0.00  0.00     0.030 A 
HETATM  123  C   UNK N   1      29.270  14.586   4.595  0.00  0.00     0.009 A 
BRANCH 121 124
HETATM  124  N   UNK N   1      30.145  17.148   7.030  0.00  0.00    -0.325 N 
HETATM  125  C   UNK N   1      31.352  17.364   7.598  0.00  0.00     0.245 C 
HETATM  126  O   UNK N   1      31.393  18.005   8.636  0.00  0.00    -0.271 OA
HETATM  127  H   UNK N   1      29.358  17.417   7.555  0.00  0.00     0.169 HD
BRANCH 125 128
HETATM  128  C   UNK N   1      32.646  16.923   6.947  0.00  0.00     0.187 C 
HETATM  129  N   UNK N   1      33.651  17.965   7.077  0.00  0.00    -0.329 N 
HETATM  130  C   UNK N   1      34.325  18.141   8.246  0.00  0.00     0.323 C 
HETATM  131  H   UNK N   1      33.845  18.552   6.311  0.00  0.00     0.165 HD
HETATM  132  O   UNK N   1      35.022  19.126   8.401  0.00  0.00    -0.247 OA
HETATM  133  N   UNK N   1      34.203  17.231   9.250  0.00  0.00    -0.279 N 
HETATM  134  C   UNK N   1      33.570  16.049   9.047  0.00  0.00     0.228 C 
HETATM  135  H   UNK N   1      34.579  17.434  10.137  0.00  0.00     0.173 HD
HETATM  136  C   UNK N   1      33.137  15.663   7.658  0.00  0.00     0.138 C 
HETATM  137  O   UNK N   1      33.364  15.296   9.983  0.00  0.00    -0.273 OA
ENDBRANCH 125 128
ENDBRANCH 121 124
ENDBRANCH 117 118
ENDBRANCH   1 117
TORSDOF 42
ENDMDL
MODEL 3
REMARK VINA RESULT:      -8.2      3.435     10.057
REMARK WARNING: 32 MAX_TORS EXCEEDED!!!
REMARK  42 active torsions:
REMARK  status: ('A' for Active; 'I' for Inactive)
REMARK       I    between atoms: C_3  and  N_1 
REMARK    1  A    between atoms: C_34  and  C_3 
REMARK    2  A    between atoms: C_9  and  C_5 
REMARK       I    between atoms: N_27  and  C_5 
REMARK       I    between atoms: C_8  and  N_20 
REMARK    3  A    between atoms: C_19  and  C_8 
REMARK    4  A    between atoms: C_10  and  C_17 
REMARK       I    between atoms: C_11  and  N_18 
REMARK    5  A    between atoms: C_31  and  C_11 
REMARK       I    between atoms: C_12  and  N_25 
REMARK    6  A    between atoms: C_32  and  C_12 
REMARK       I    between atoms: C_13  and  N_23 
REMARK    7  A    between atoms: C_29  and  C_13 
REMARK       I    between atoms: C_14  and  N_22 
REMARK    8  A    between atoms: C_30  and  C_14 
REMARK       I    between atoms: C_15  and  N_21 
REMARK    9  A    between atoms: C_28  and  C_15 
REMARK       I    between atoms: C_16  and  N_24 
REMARK   10  A    between atoms: C_35  and  C_16 
REMARK       I    between atoms: C_17  and  N_38 
REMARK   11  A    between atoms: C_19  and  N_18 
REMARK   12  A    between atoms: C_19  and  C_83 
REMARK   13  A    between atoms: C_28  and  N_20 
REMARK   14  A    between atoms: C_29  and  N_21 
REMARK   15  A    between atoms: C_31  and  N_22 
REMARK   16  A    between atoms: C_32  and  N_23 
REMARK   17  A    between atoms: C_30  and  N_24 
REMARK   18  A    between atoms: C_34  and  N_25 
REMARK   19  A    between atoms: C_40  and  N_27 
REMARK   20  A    between atoms: C_28  and  C_58 
REMARK   21  A    between atoms: C_29  and  C_57 
REMARK   22  A    between atoms: C_30  and  C_56 
REMARK   23  A    between atoms: C_31  and  C_60 
REMARK   24  A    between atoms: C_32  and  C_64 
REMARK       I    between atoms: C_33  and  N_41 
REMARK       I    between atoms: N_70  and  C_33 
REMARK   25  A    between atoms: C_34  and  C_100 
REMARK   26  A    between atoms: C_35  and  N_37 
REMARK   27  A    between atoms: C_35  and  C_45 
REMARK   28  A    between atoms: C_36  and  C_40 
REMARK       I    between atoms: N_72  and  C_36 
REMARK       I    between atoms: C_39  and  N_37 
REMARK   29  A    between atoms: N_38  and  C_69 
REMARK   30  A    between atoms: N_41  and  C_74 
REMARK   31  A    between atoms: C_59  and  C_45 
REMARK   32  A    between atoms: C_77  and  C_56 
REMARK   33  A    between atoms: C_76  and  C_57 
REMARK   34  A    between atoms: C_75  and  C_58 
REMARK   35  A    between atoms: C_80  and  C_60 
REMARK   36  A    between atoms: C_101  and  C_64 
REMARK   37  A    between atoms: N_81  and  C_107 
REMARK   38  A    between atoms: C_104  and  N_81 
REMARK   39  A    between atoms: O_97  and  C_83 
REMARK   40  A    between atoms: C_110  and  C_100 
REMARK   41  A    between atoms: C_107  and  C_111 
REMARK   42  A    between atoms: C_111  and  C_110 
ROOT
HETATM    1  C   UNK N   1      33.756  13.203   3.717  0.00  0.00     0.180 C 
ENDROOT
BRANCH   1   2
HETATM    2  N   UNK N   1      34.089  11.841   3.351  0.00  0.00    -0.346 N 
HETATM    3  C   UNK N   1      33.457  10.728   3.785  0.00  0.00     0.243 C 
HETATM    4  O   UNK N   1      33.759   9.648   3.305  0.00  0.00    -0.271 OA
HETATM    5  H   UNK N   1      34.845  11.714   2.731  0.00  0.00     0.163 HD
BRANCH   3   6
HETATM    6  C   UNK N   1      32.489  10.775   4.910  0.00  0.00     0.200 C 
BRANCH   6   7
HETATM    7  N   UNK N   1      31.221  10.966   4.276  0.00  0.00    -0.344 N 
HETATM    8  C   UNK N   1      30.464  10.110   3.549  0.00  0.00     0.241 C 
HETATM    9  O   UNK N   1      30.697   8.911   3.525  0.00  0.00    -0.271 OA
HETATM   10  H   UNK N   1      30.835  11.864   4.388  0.00  0.00     0.163 HD
BRANCH   8  11
HETATM   11  C   UNK N   1      29.345  10.701   2.731  0.00  0.00     0.180 C 
BRANCH  11  12
HETATM   12  N   UNK N   1      28.410  11.366   3.623  0.00  0.00    -0.346 N 
HETATM   13  C   UNK N   1      27.336  10.749   4.163  0.00  0.00     0.241 C 
HETATM   14  O   UNK N   1      26.606  11.366   4.923  0.00  0.00    -0.271 OA
HETATM   15  H   UNK N   1      28.566  12.312   3.844  0.00  0.00     0.163 HD
BRANCH  13  16
HETATM   16  C   UNK N   1      26.934   9.405   3.658  0.00  0.00     0.180 C 
BRANCH  16  17
HETATM   17  N   UNK N   1      25.707   9.678   2.966  0.00  0.00    -0.346 N 
HETATM   18  C   UNK N   1      25.459   9.700   1.648  0.00  0.00     0.241 C 
HETATM   19  O   UNK N   1      26.365   9.730   0.827  0.00  0.00    -0.271 OA
HETATM   20  H   UNK N   1      24.935   9.879   3.542  0.00  0.00     0.163 HD
BRANCH  18  21
HETATM   21  C   UNK N   1      24.032   9.526   1.231  0.00  0.00     0.180 C 
BRANCH  21  22
HETATM   22  N   UNK N   1      23.148   9.901   2.310  0.00  0.00    -0.348 N 
HETATM   23  C   UNK N   1      22.036   9.191   2.616  0.00  0.00     0.214 C 
HETATM   24  O   UNK N   1      21.735   8.192   1.978  0.00  0.00    -0.274 OA
HETATM   25  C   UNK N   1      21.165   9.640   3.732  0.00  0.00     0.117 C 
HETATM   26  H   UNK N   1      23.362  10.703   2.841  0.00  0.00     0.163 HD
ENDBRANCH  21  22
BRANCH  21  27
HETATM   27  C   UNK N   1      23.778  10.469   0.037  0.00  0.00     0.073 C 
BRANCH  27  28
HETATM   28  C   UNK N   1      23.121  11.806   0.264  0.00  0.00    -0.055 A 
HETATM   29  C   UNK N   1      21.722  11.834   0.297  0.00  0.00     0.019 A 
HETATM   30  C   UNK N   1      21.040  13.026   0.544  0.00  0.00    -0.025 A 
HETATM   31  C   UNK N   1      19.643  13.041   0.563  0.00  0.00     0.012 A 
HETATM   32  C   UNK N   1      21.763  14.216   0.777  0.00  0.00    -0.026 A 
HETATM   33  C   UNK N   1      18.961  14.234   0.815  0.00  0.00     0.001 A 
HETATM   34  C   UNK N   1      19.675  15.414   1.054  0.00  0.00     0.001 A 
HETATM   35  C   UNK N   1      21.075  15.407   1.034  0.00  0.00     0.012 A 
HETATM   36  C   UNK N   1      23.160  14.194   0.744  0.00  0.00     0.013 A 
HETATM   37  C   UNK N   1      23.836  12.993   0.484  0.00  0.00     0.008 A 
ENDBRANCH  27  28
ENDBRANCH  21  27
ENDBRANCH  18  21
ENDBRANCH  16  17
BRANCH  16  38
HETATM   38  C   UNK N   1      26.900   8.352   4.768  0.00  0.00     0.073 C 
BRANCH  38  39
HETATM   39  C   UNK N   1      25.503   7.857   4.955  0.00  0.00    -0.056 A 
HETATM   40  C   UNK N   1      24.998   6.836   4.141  0.00  0.00     0.009 A 
HETATM   41  C   UNK N   1      23.702   6.355   4.343  0.00  0.00     0.024 A 
HETATM   42  C   UNK N   1      22.909   6.890   5.362  0.00  0.00     0.034 A 
HETATM   43  C   UNK N   1      23.406   7.916   6.170  0.00  0.00     0.024 A 
HETATM   44 Cl   UNK N   1      21.294   6.269   5.627  0.00  0.00    -0.084 Cl
HETATM   45  C   UNK N   1      24.701   8.401   5.965  0.00  0.00     0.009 A 
ENDBRANCH  38  39
ENDBRANCH  16  38
ENDBRANCH  13  16
ENDBRANCH  11  12
BRANCH  11  46
HETATM   46  C   UNK N   1      29.868  11.666   1.641  0.00  0.00     0.074 C 
BRANCH  46  47
HETATM   47  C   UNK N   1      29.975  11.238   0.187  0.00  0.00    -0.040 A 
HETATM   48  C   UNK N   1      30.362  12.102  -0.850  0.00  0.00     0.094 A 
HETATM   49  N   UNK N   1      30.400  11.669  -2.139  0.00  0.00    -0.375 N 
HETATM   50  C   UNK N   1      30.069  10.393  -2.465  0.00  0.00     0.087 A 
ATOM     51  HN  UNK N   1      30.682  12.316  -2.875  1.00  0.00     0.164 HD
HETATM   52  C   UNK N   1      29.683   9.495  -1.469  0.00  0.00     0.018 A 
HETATM   53  C   UNK N   1      29.636   9.924  -0.141  0.00  0.00     0.010 A 
ENDBRANCH  46  47
ENDBRANCH  11  46
ENDBRANCH   8  11
ENDBRANCH   6   7
BRANCH   6  54
HETATM   54  C   UNK N   1      32.579   9.622   5.898  0.00  0.00     0.199 C 
BRANCH  54  55
HETATM   55  O   UNK N   1      31.946   9.988   7.084  0.00  0.00    -0.398 OA
HETATM   56  H   UNK N   1      32.117  10.725   7.692  0.00  0.00     0.209 HD
ENDBRANCH  54  55
ENDBRANCH   6  54
ENDBRANCH   3   6
ENDBRANCH   1   2
BRANCH   1  57
HETATM   57  C   UNK N   1      32.840  13.820   2.706  0.00  0.00     0.241 C 
HETATM   58  N   UNK N   1      31.742  14.536   3.057  0.00  0.00    -0.346 N 
HETATM   59  H   UNK N   1      31.250  14.986   2.332  0.00  0.00     0.163 HD
HETATM   60  O   UNK N   1      33.102  13.681   1.522  0.00  0.00    -0.271 OA
BRANCH  58  61
HETATM   61  C   UNK N   1      31.226  14.699   4.412  0.00  0.00     0.180 C 
BRANCH  61  62
HETATM   62  C   UNK N   1      29.817  14.245   4.396  0.00  0.00     0.241 C 
HETATM   63  N   UNK N   1      28.953  14.938   3.614  0.00  0.00    -0.346 N 
HETATM   64  H   UNK N   1      29.258  15.284   2.744  0.00  0.00     0.163 HD
HETATM   65  O   UNK N   1      29.409  13.447   5.230  0.00  0.00    -0.271 OA
BRANCH  63  66
HETATM   66  C   UNK N   1      27.600  15.176   4.036  0.00  0.00     0.177 C 
BRANCH  66  67
HETATM   67  C   UNK N   1      26.741  14.413   3.017  0.00  0.00     0.241 C 
HETATM   68  N   UNK N   1      25.406  14.213   3.131  0.00  0.00    -0.346 N 
HETATM   69  H   UNK N   1      24.922  13.887   2.337  0.00  0.00     0.163 HD
HETATM   70  O   UNK N   1      27.293  14.007   2.006  0.00  0.00    -0.271 OA
BRANCH  68  71
HETATM   71  C   UNK N   1      24.646  14.443   4.328  0.00  0.00     0.176 C 
BRANCH  71  72
HETATM   72  C   UNK N   1      23.914  13.150   4.675  0.00  0.00     0.243 C 
HETATM   73  N   UNK N   1      23.345  12.902   5.886  0.00  0.00    -0.337 N 
HETATM   74  C   UNK N   1      23.478  13.749   7.034  0.00  0.00     0.179 C 
HETATM   75  C   UNK N   1      22.840  11.594   6.201  0.00  0.00     0.127 C 
HETATM   76  C   UNK N   1      23.853  12.731   8.097  0.00  0.00     0.037 C 
HETATM   77  C   UNK N   1      23.089  11.459   7.696  0.00  0.00     0.022 C 
HETATM   78  O   UNK N   1      23.878  12.272   3.821  0.00  0.00    -0.271 OA
BRANCH  74  79
HETATM   79  C   UNK N   1      22.141  14.318   7.442  0.00  0.00     0.241 C 
HETATM   80  N   UNK N   1      21.330  14.829   6.480  0.00  0.00    -0.346 N 
HETATM   81  H   UNK N   1      21.497  14.571   5.545  0.00  0.00     0.163 HD
HETATM   82  O   UNK N   1      21.845  14.421   8.627  0.00  0.00    -0.271 OA
BRANCH  80  83
HETATM   83  C   UNK N   1      20.233  15.733   6.756  0.00  0.00     0.172 C 
HETATM   84  C   UNK N   1      20.705  17.173   6.941  0.00  0.00     0.042 C 
BRANCH  83  85
HETATM   85  C   UNK N   1      19.191  15.559   5.678  0.00  0.00     0.237 C 
HETATM   86  O   UNK N   1      18.062  15.986   5.863  0.00  0.00    -0.271 OA
HETATM   87  N   UNK N   1      19.473  14.905   4.533  0.00  0.00    -0.368 N 
HETATM   88  H   UNK N   1      19.922  14.273   3.925  0.00  0.00     0.159 HD
HETATM   89  H   UNK N   1      18.823  15.318   3.921  0.00  0.00     0.159 HD
ENDBRANCH  83  85
ENDBRANCH  80  83
ENDBRANCH  74  79
ENDBRANCH  71  72
BRANCH  71  90
HETATM   90  C   UNK N   1      23.822  15.721   4.186  0.00  0.00     0.035 C 
BRANCH  90  91
HETATM   91  C   UNK N   1      24.125  16.684   5.314  0.00  0.00     0.004 C 
BRANCH  91  92
HETATM   92  C   UNK N   1      23.754  18.091   4.907  0.00  0.00     0.019 C 
BRANCH  92  93
HETATM   93  C   UNK N   1      22.611  18.036   3.908  0.00  0.00     0.114 C 
BRANCH  93  94
HETATM   94  N   UNK N   1      22.416  19.340   3.289  0.00  0.00    -0.418 N 
HETATM   95  H   UNK N   1      23.132  19.898   2.824  0.00  0.00     0.153 HD
BRANCH  94  96
HETATM   96  C   UNK N   1      21.018  19.704   3.453  0.00  0.00     0.068 C 
HETATM   97  C   UNK N   1      20.153  18.512   3.116  0.00  0.00     0.031 C 
HETATM   98  C   UNK N   1      20.667  20.860   2.534  0.00  0.00     0.031 C 
ENDBRANCH  94  96
ENDBRANCH  93  94
ENDBRANCH  92  93
ENDBRANCH  91  92
ENDBRANCH  90  91
ENDBRANCH  71  90
ENDBRANCH  68  71
ENDBRANCH  66  67
BRANCH  66  99
HETATM   99  C   UNK N   1      27.358  16.675   4.221  0.00  0.00     0.038 C 
BRANCH  99 100
HETATM  100  C   UNK N   1      27.926  17.153   5.539  0.00  0.00    -0.020 C 
HETATM  101  C   UNK N   1      27.458  18.568   5.807  0.00  0.00     0.009 C 
HETATM  102  C   UNK N   1      27.409  16.241   6.630  0.00  0.00     0.009 C 
ENDBRANCH  99 100
ENDBRANCH  66  99
ENDBRANCH  63  66
ENDBRANCH  61  62
BRANCH  61 103
HETATM  103  C   UNK N   1      31.400  16.153   4.872  0.00  0.00     0.073 C 
BRANCH 103 104
HETATM  104  C   UNK N   1      31.931  16.200   6.265  0.00  0.00    -0.056 A 
HETATM  105  C   UNK N   1      32.637  17.317   6.725  0.00  0.00     0.009 A 
HETATM  106  C   UNK N   1      33.243  17.292   7.980  0.00  0.00     0.030 A 
HETATM  107  C   UNK N   1      33.146  16.152   8.783  0.00  0.00     0.036 A 
HETATM  108  C   UNK N   1      32.441  15.033   8.311  0.00  0.00     0.030 A 
HETATM  109  C   UNK N   1      31.842  15.057   7.055  0.00  0.00     0.009 A 
BRANCH 107 110
HETATM  110  N   UNK N   1      33.774  16.155  10.059  0.00  0.00    -0.309 N 
HETATM  111  C   UNK N   1      34.876  16.878  10.389  0.00  0.00     0.318 C 
HETATM  112  O   UNK N   1      35.464  17.553   9.557  0.00  0.00    -0.247 OA
HETATM  113  N   UNK N   1      35.351  16.824  11.647  0.00  0.00    -0.352 N 
HETATM  114  H   UNK N   1      35.904  17.493  12.110  0.00  0.00     0.160 HD
HETATM  115  H   UNK N   1      35.118  16.020  12.164  0.00  0.00     0.160 HD
HETATM  116  H   UNK N   1      33.378  15.589  10.760  0.00  0.00     0.170 HD
ENDBRANCH 107 110
ENDBRANCH 103 104
ENDBRANCH  61 103
ENDBRANCH  58  61
ENDBRANCH   1  57
BRANCH   1 117
HETATM  117  C   UNK N   1      34.988  14.102   3.924  0.00  0.00     0.073 C 
BRANCH 117 118
HETATM  118  C   UNK N   1      35.670  13.879   5.237  0.00  0.00    -0.056 A 
HETATM  119  C   UNK N   1      36.650  12.892   5.419  0.00  0.00     0.009 A 
HETATM  120  C   UNK N   1      37.302  12.793   6.663  0.00  0.00     0.030 A 
HETATM  121  C   UNK N   1      36.945  13.665   7.714  0.00  0.00     0.034 A 
HETATM  122  C   UNK N   1      35.952  14.604   7.516  0.00  0.00     0.030 A 
HETATM  123  C   UNK N   1      35.343  14.724   6.292  0.00  0.00     0.009 A 
BRANCH 121 124
HETATM  124  N   UNK N   1      37.614  13.729   8.957  0.00  0.00    -0.325 N 
HETATM  125  C   UNK N   1      37.390  12.956  10.042  0.00  0.00     0.245 C 
HETATM  126  O   UNK N   1      38.163  13.046  10.983  0.00  0.00    -0.271 OA
HETATM  127  H   UNK N   1      38.319  14.411   9.042  0.00  0.00     0.169 HD
BRANCH 125 128
HETATM  128  C   UNK N   1      36.282  11.925  10.089  0.00  0.00     0.187 C 
HETATM  129  N   UNK N   1      36.602  10.892  11.060  0.00  0.00    -0.329 N 
HETATM  130  C   UNK N   1      36.426  11.109  12.393  0.00  0.00     0.323 C 
HETATM  131  H   UNK N   1      36.951  10.025  10.751  0.00  0.00     0.165 HD
HETATM  132  O   UNK N   1      36.869  10.313  13.199  0.00  0.00    -0.247 OA
HETATM  133  N   UNK N   1      35.778  12.224  12.824  0.00  0.00    -0.279 N 
HETATM  134  C   UNK N   1      35.133  13.039  11.952  0.00  0.00     0.228 C 
HETATM  135  H   UNK N   1      35.778  12.444  13.784  0.00  0.00     0.173 HD
HETATM  136  C   UNK N   1      34.992  12.626  10.511  0.00  0.00     0.138 C 
HETATM  137  O   UNK N   1      34.659  14.093  12.335  0.00  0.00    -0.273 OA
ENDBRANCH 125 128
ENDBRANCH 121 124
ENDBRANCH 117 118
ENDBRANCH   1 117
TORSDOF 42
ENDMDL
MODEL 4
REMARK VINA RESULT:      -8.2      1.251      2.127
REMARK WARNING: 32 MAX_TORS EXCEEDED!!!
REMARK  42 active torsions:
REMARK  status: ('A' for Active; 'I' for Inactive)
REMARK       I    between atoms: C_3  and  N_1 
REMARK    1  A    between atoms: C_34  and  C_3 
REMARK    2  A    between atoms: C_9  and  C_5 
REMARK       I    between atoms: N_27  and  C_5 
REMARK       I    between atoms: C_8  and  N_20 
REMARK    3  A    between atoms: C_19  and  C_8 
REMARK    4  A    between atoms: C_10  and  C_17 
REMARK       I    between atoms: C_11  and  N_18 
REMARK    5  A    between atoms: C_31  and  C_11 
REMARK       I    between atoms: C_12  and  N_25 
REMARK    6  A    between atoms: C_32  and  C_12 
REMARK       I    between atoms: C_13  and  N_23 
REMARK    7  A    between atoms: C_29  and  C_13 
REMARK       I    between atoms: C_14  and  N_22 
REMARK    8  A    between atoms: C_30  and  C_14 
REMARK       I    between atoms: C_15  and  N_21 
REMARK    9  A    between atoms: C_28  and  C_15 
REMARK       I    between atoms: C_16  and  N_24 
REMARK   10  A    between atoms: C_35  and  C_16 
REMARK       I    between atoms: C_17  and  N_38 
REMARK   11  A    between atoms: C_19  and  N_18 
REMARK   12  A    between atoms: C_19  and  C_83 
REMARK   13  A    between atoms: C_28  and  N_20 
REMARK   14  A    between atoms: C_29  and  N_21 
REMARK   15  A    between atoms: C_31  and  N_22 
REMARK   16  A    between atoms: C_32  and  N_23 
REMARK   17  A    between atoms: C_30  and  N_24 
REMARK   18  A    between atoms: C_34  and  N_25 
REMARK   19  A    between atoms: C_40  and  N_27 
REMARK   20  A    between atoms: C_28  and  C_58 
REMARK   21  A    between atoms: C_29  and  C_57 
REMARK   22  A    between atoms: C_30  and  C_56 
REMARK   23  A    between atoms: C_31  and  C_60 
REMARK   24  A    between atoms: C_32  and  C_64 
REMARK       I    between atoms: C_33  and  N_41 
REMARK       I    between atoms: N_70  and  C_33 
REMARK   25  A    between atoms: C_34  and  C_100 
REMARK   26  A    between atoms: C_35  and  N_37 
REMARK   27  A    between atoms: C_35  and  C_45 
REMARK   28  A    between atoms: C_36  and  C_40 
REMARK       I    between atoms: N_72  and  C_36 
REMARK       I    between atoms: C_39  and  N_37 
REMARK   29  A    between atoms: N_38  and  C_69 
REMARK   30  A    between atoms: N_41  and  C_74 
REMARK   31  A    between atoms: C_59  and  C_45 
REMARK   32  A    between atoms: C_77  and  C_56 
REMARK   33  A    between atoms: C_76  and  C_57 
REMARK   34  A    between atoms: C_75  and  C_58 
REMARK   35  A    between atoms: C_80  and  C_60 
REMARK   36  A    between atoms: C_101  and  C_64 
REMARK   37  A    between atoms: N_81  and  C_107 
REMARK   38  A    between atoms: C_104  and  N_81 
REMARK   39  A    between atoms: O_97  and  C_83 
REMARK   40  A    between atoms: C_110  and  C_100 
REMARK   41  A    between atoms: C_107  and  C_111 
REMARK   42  A    between atoms: C_111  and  C_110 
ROOT
HETATM    1  C   UNK N   1      30.488  11.181   2.460  0.00  0.00     0.180 C 
ENDROOT
BRANCH   1   2
HETATM    2  N   UNK N   1      30.124   9.813   2.769  0.00  0.00    -0.346 N 
HETATM    3  C   UNK N   1      30.870   8.937   3.479  0.00  0.00     0.243 C 
HETATM    4  O   UNK N   1      30.395   7.852   3.771  0.00  0.00    -0.271 OA
HETATM    5  H   UNK N   1      29.257   9.490   2.430  0.00  0.00     0.163 HD
BRANCH   3   6
HETATM    6  C   UNK N   1      32.289   9.218   3.812  0.00  0.00     0.200 C 
BRANCH   6   7
HETATM    7  N   UNK N   1      32.354   9.075   5.233  0.00  0.00    -0.344 N 
HETATM    8  C   UNK N   1      33.376   9.300   6.093  0.00  0.00     0.241 C 
HETATM    9  O   UNK N   1      34.381   9.904   5.750  0.00  0.00    -0.271 OA
HETATM   10  H   UNK N   1      31.521   8.763   5.655  0.00  0.00     0.163 HD
BRANCH   8  11
HETATM   11  C   UNK N   1      33.245   8.736   7.484  0.00  0.00     0.180 C 
BRANCH  11  12
HETATM   12  N   UNK N   1      32.406   9.621   8.274  0.00  0.00    -0.346 N 
HETATM   13  C   UNK N   1      32.900  10.588   9.078  0.00  0.00     0.241 C 
HETATM   14  O   UNK N   1      32.132  11.310   9.694  0.00  0.00    -0.271 OA
HETATM   15  H   UNK N   1      31.429   9.510   8.222  0.00  0.00     0.163 HD
BRANCH  13  16
HETATM   16  C   UNK N   1      34.362  10.620   9.369  0.00  0.00     0.180 C 
BRANCH  16  17
HETATM   17  N   UNK N   1      34.426  10.165  10.728  0.00  0.00    -0.346 N 
HETATM   18  C   UNK N   1      34.822   8.977  11.210  0.00  0.00     0.241 C 
HETATM   19  O   UNK N   1      34.950   8.002  10.484  0.00  0.00    -0.271 OA
HETATM   20  H   UNK N   1      34.138  10.818  11.405  0.00  0.00     0.163 HD
BRANCH  18  21
HETATM   21  C   UNK N   1      35.248   8.944  12.645  0.00  0.00     0.180 C 
BRANCH  21  22
HETATM   22  N   UNK N   1      36.676   9.134  12.745  0.00  0.00    -0.348 N 
HETATM   23  C   UNK N   1      37.505   8.170  13.212  0.00  0.00     0.214 C 
HETATM   24  O   UNK N   1      37.066   7.087  13.572  0.00  0.00    -0.274 OA
HETATM   25  C   UNK N   1      38.963   8.437  13.299  0.00  0.00     0.117 C 
HETATM   26  H   UNK N   1      37.060   9.997  12.465  0.00  0.00     0.163 HD
ENDBRANCH  21  22
BRANCH  21  27
HETATM   27  C   UNK N   1      34.545  10.112  13.366  0.00  0.00     0.073 C 
BRANCH  27  28
HETATM   28  C   UNK N   1      34.814  10.363  14.827  0.00  0.00    -0.055 A 
HETATM   29  C   UNK N   1      34.772  11.691  15.267  0.00  0.00     0.019 A 
HETATM   30  C   UNK N   1      34.969  12.001  16.613  0.00  0.00    -0.025 A 
HETATM   31  C   UNK N   1      34.936  13.332  17.035  0.00  0.00     0.012 A 
HETATM   32  C   UNK N   1      35.200  10.969  17.548  0.00  0.00    -0.026 A 
HETATM   33  C   UNK N   1      35.128  13.642  18.385  0.00  0.00     0.001 A 
HETATM   34  C   UNK N   1      35.349  12.620  19.315  0.00  0.00     0.001 A 
HETATM   35  C   UNK N   1      35.386  11.283  18.898  0.00  0.00     0.012 A 
HETATM   36  C   UNK N   1      35.244   9.640  17.113  0.00  0.00     0.013 A 
HETATM   37  C   UNK N   1      35.056   9.340  15.757  0.00  0.00     0.008 A 
ENDBRANCH  27  28
ENDBRANCH  21  27
ENDBRANCH  18  21
ENDBRANCH  16  17
BRANCH  16  38
HETATM   38  C   UNK N   1      34.990  11.979   9.049  0.00  0.00     0.073 C 
BRANCH  38  39
HETATM   39  C   UNK N   1      35.429  12.645  10.312  0.00  0.00    -0.056 A 
HETATM   40  C   UNK N   1      34.605  13.586  10.939  0.00  0.00     0.009 A 
HETATM   41  C   UNK N   1      35.006  14.181  12.138  0.00  0.00     0.024 A 
HETATM   42  C   UNK N   1      36.231  13.833  12.715  0.00  0.00     0.034 A 
HETATM   43  C   UNK N   1      37.061  12.901  12.086  0.00  0.00     0.024 A 
HETATM   44 Cl   UNK N   1      36.721  14.563  14.229  0.00  0.00    -0.084 Cl
HETATM   45  C   UNK N   1      36.661  12.309  10.885  0.00  0.00     0.009 A 
ENDBRANCH  38  39
ENDBRANCH  16  38
ENDBRANCH  13  16
ENDBRANCH  11  12
BRANCH  11  46
HETATM   46  C   UNK N   1      32.691   7.292   7.476  0.00  0.00     0.074 C 
BRANCH  46  47
HETATM   47  C   UNK N   1      31.437   6.919   8.248  0.00  0.00    -0.040 A 
HETATM   48  C   UNK N   1      30.216   6.593   7.636  0.00  0.00     0.094 A 
HETATM   49  N   UNK N   1      29.117   6.306   8.384  0.00  0.00    -0.375 N 
HETATM   50  C   UNK N   1      29.163   6.322   9.741  0.00  0.00     0.087 A 
ATOM     51  HN  UNK N   1      28.241   6.074   7.916  1.00  0.00     0.164 HD
HETATM   52  C   UNK N   1      30.354   6.635  10.396  0.00  0.00     0.018 A 
HETATM   53  C   UNK N   1      31.491   6.935   9.644  0.00  0.00     0.010 A 
ENDBRANCH  46  47
ENDBRANCH  11  46
ENDBRANCH   8  11
ENDBRANCH   6   7
BRANCH   6  54
HETATM   54  C   UNK N   1      33.316   8.434   3.009  0.00  0.00     0.199 C 
BRANCH  54  55
HETATM   55  O   UNK N   1      32.745   7.234   2.589  0.00  0.00    -0.398 OA
HETATM   56  H   UNK N   1      33.156   6.414   2.273  0.00  0.00     0.209 HD
ENDBRANCH  54  55
ENDBRANCH   6  54
ENDBRANCH   3   6
ENDBRANCH   1   2
BRANCH   1  57
HETATM   57  C   UNK N   1      29.958  11.586   1.119  0.00  0.00     0.241 C 
HETATM   58  N   UNK N   1      29.126  12.644   0.952  0.00  0.00    -0.346 N 
HETATM   59  H   UNK N   1      28.903  12.897   0.028  0.00  0.00     0.163 HD
HETATM   60  O   UNK N   1      30.300  10.942   0.140  0.00  0.00    -0.271 OA
BRANCH  58  61
HETATM   61  C   UNK N   1      28.533  13.441   2.022  0.00  0.00     0.180 C 
BRANCH  61  62
HETATM   62  C   UNK N   1      27.066  13.258   1.935  0.00  0.00     0.241 C 
HETATM   63  N   UNK N   1      26.290  14.290   2.347  0.00  0.00    -0.346 N 
HETATM   64  H   UNK N   1      26.575  15.214   2.164  0.00  0.00     0.163 HD
HETATM   65  O   UNK N   1      26.587  12.149   1.738  0.00  0.00    -0.271 OA
BRANCH  63  66
HETATM   66  C   UNK N   1      25.055  14.055   3.046  0.00  0.00     0.177 C 
BRANCH  66  67
HETATM   67  C   UNK N   1      23.984  14.716   2.166  0.00  0.00     0.241 C 
HETATM   68  N   UNK N   1      23.110  15.658   2.594  0.00  0.00    -0.346 N 
HETATM   69  H   UNK N   1      22.601  16.155   1.912  0.00  0.00     0.163 HD
HETATM   70  O   UNK N   1      23.959  14.411   0.983  0.00  0.00    -0.271 OA
BRANCH  68  71
HETATM   71  C   UNK N   1      22.871  15.984   3.973  0.00  0.00     0.176 C 
BRANCH  71  72
HETATM   72  C   UNK N   1      21.501  15.432   4.354  0.00  0.00     0.243 C 
HETATM   73  N   UNK N   1      21.300  14.515   5.339  0.00  0.00    -0.337 N 
HETATM   74  C   UNK N   1      22.348  13.840   6.046  0.00  0.00     0.179 C 
HETATM   75  C   UNK N   1      20.011  13.903   5.515  0.00  0.00     0.127 C 
HETATM   76  C   UNK N   1      21.873  12.401   5.955  0.00  0.00     0.037 C 
HETATM   77  C   UNK N   1      20.340  12.499   6.003  0.00  0.00     0.022 C 
HETATM   78  O   UNK N   1      20.535  15.812   3.703  0.00  0.00    -0.271 OA
BRANCH  74  79
HETATM   79  C   UNK N   1      22.331  14.203   7.511  0.00  0.00     0.241 C 
HETATM   80  N   UNK N   1      22.812  13.305   8.410  0.00  0.00    -0.346 N 
HETATM   81  H   UNK N   1      23.399  12.587   8.081  0.00  0.00     0.163 HD
HETATM   82  O   UNK N   1      21.790  15.236   7.890  0.00  0.00    -0.271 OA
BRANCH  80  83
HETATM   83  C   UNK N   1      22.507  13.348   9.825  0.00  0.00     0.172 C 
HETATM   84  C   UNK N   1      21.093  12.859  10.125  0.00  0.00     0.042 C 
BRANCH  83  85
HETATM   85  C   UNK N   1      23.589  12.602  10.567  0.00  0.00     0.237 C 
HETATM   86  O   UNK N   1      23.289  11.631  11.244  0.00  0.00    -0.271 OA
HETATM   87  N   UNK N   1      24.873  13.012  10.528  0.00  0.00    -0.368 N 
HETATM   88  H   UNK N   1      25.636  13.628  10.437  0.00  0.00     0.159 HD
HETATM   89  H   UNK N   1      25.342  12.163  10.697  0.00  0.00     0.159 HD
ENDBRANCH  83  85
ENDBRANCH  80  83
ENDBRANCH  74  79
ENDBRANCH  71  72
BRANCH  71  90
HETATM   90  C   UNK N   1      23.143  17.466   4.213  0.00  0.00     0.035 C 
BRANCH  90  91
HETATM   91  C   UNK N   1      24.571  17.684   4.668  0.00  0.00     0.004 C 
BRANCH  91  92
HETATM   92  C   UNK N   1      25.367  18.354   3.573  0.00  0.00     0.019 C 
BRANCH  92  93
HETATM   93  C   UNK N   1      25.967  19.642   4.108  0.00  0.00     0.114 C 
BRANCH  93  94
HETATM   94  N   UNK N   1      25.799  19.717   5.554  0.00  0.00    -0.418 N 
HETATM   95  H   UNK N   1      25.290  19.051   6.136  0.00  0.00     0.153 HD
BRANCH  94  96
HETATM   96  C   UNK N   1      26.486  20.911   6.018  0.00  0.00     0.068 C 
HETATM   97  C   UNK N   1      27.967  20.625   6.115  0.00  0.00     0.031 C 
HETATM   98  C   UNK N   1      25.960  21.321   7.381  0.00  0.00     0.031 C 
ENDBRANCH  94  96
ENDBRANCH  93  94
ENDBRANCH  92  93
ENDBRANCH  91  92
ENDBRANCH  90  91
ENDBRANCH  71  90
ENDBRANCH  68  71
ENDBRANCH  66  67
BRANCH  66  99
HETATM   99  C   UNK N   1      25.180  14.497   4.505  0.00  0.00     0.038 C 
BRANCH  99 100
HETATM  100  C   UNK N   1      26.016  13.516   5.295  0.00  0.00    -0.020 C 
HETATM  101  C   UNK N   1      25.936  13.854   6.769  0.00  0.00     0.009 C 
HETATM  102  C   UNK N   1      25.451  12.130   5.069  0.00  0.00     0.009 C 
ENDBRANCH  99 100
ENDBRANCH  66  99
ENDBRANCH  63  66
ENDBRANCH  61  62
BRANCH  61 103
HETATM  103  C   UNK N   1      28.980  14.905   1.899  0.00  0.00     0.073 C 
BRANCH 103 104
HETATM  104  C   UNK N   1      29.138  15.517   3.250  0.00  0.00    -0.056 A 
HETATM  105  C   UNK N   1      29.387  14.719   4.372  0.00  0.00     0.009 A 
HETATM  106  C   UNK N   1      29.398  15.287   5.645  0.00  0.00     0.030 A 
HETATM  107  C   UNK N   1      29.161  16.655   5.804  0.00  0.00     0.036 A 
HETATM  108  C   UNK N   1      28.905  17.447   4.673  0.00  0.00     0.030 A 
HETATM  109  C   UNK N   1      28.888  16.878   3.404  0.00  0.00     0.009 A 
BRANCH 107 110
HETATM  110  N   UNK N   1      29.178  17.207   7.114  0.00  0.00    -0.309 N 
HETATM  111  C   UNK N   1      28.114  17.258   7.958  0.00  0.00     0.318 C 
HETATM  112  O   UNK N   1      27.009  16.874   7.608  0.00  0.00    -0.247 OA
HETATM  113  N   UNK N   1      28.272  17.773   9.191  0.00  0.00    -0.352 N 
HETATM  114  H   UNK N   1      27.726  17.595   9.991  0.00  0.00     0.160 HD
HETATM  115  H   UNK N   1      29.021  18.400   9.307  0.00  0.00     0.160 HD
HETATM  116  H   UNK N   1      30.030  17.582   7.436  0.00  0.00     0.170 HD
ENDBRANCH 107 110
ENDBRANCH 103 104
ENDBRANCH  61 103
ENDBRANCH  58  61
ENDBRANCH   1  57
BRANCH   1 117
HETATM  117  C   UNK N   1      32.003  11.443   2.524  0.00  0.00     0.073 C 
BRANCH 117 118
HETATM  118  C   UNK N   1      32.356  12.706   3.245  0.00  0.00    -0.056 A 
HETATM  119  C   UNK N   1      32.530  12.756   4.637  0.00  0.00     0.009 A 
HETATM  120  C   UNK N   1      32.937  13.963   5.234  0.00  0.00     0.030 A 
HETATM  121  C   UNK N   1      33.136  15.110   4.436  0.00  0.00     0.034 A 
HETATM  122  C   UNK N   1      32.923  15.040   3.073  0.00  0.00     0.030 A 
HETATM  123  C   UNK N   1      32.561  13.853   2.486  0.00  0.00     0.009 A 
BRANCH 121 124
HETATM  124  N   UNK N   1      33.655  16.335   4.915  0.00  0.00    -0.325 N 
HETATM  125  C   UNK N   1      33.981  16.635   6.191  0.00  0.00     0.245 C 
HETATM  126  O   UNK N   1      34.558  17.690   6.405  0.00  0.00    -0.271 OA
HETATM  127  H   UNK N   1      33.794  17.044   4.248  0.00  0.00     0.169 HD
BRANCH 125 128
HETATM  128  C   UNK N   1      33.741  15.676   7.338  0.00  0.00     0.187 C 
HETATM  129  N   UNK N   1      34.745  15.871   8.371  0.00  0.00    -0.329 N 
HETATM  130  C   UNK N   1      34.650  16.908   9.248  0.00  0.00     0.323 C 
HETATM  131  H   UNK N   1      35.503  15.247   8.436  0.00  0.00     0.165 HD
HETATM  132  O   UNK N   1      35.586  17.168   9.981  0.00  0.00    -0.247 OA
HETATM  133  N   UNK N   1      33.523  17.667   9.290  0.00  0.00    -0.279 N 
HETATM  134  C   UNK N   1      32.409  17.303   8.606  0.00  0.00     0.228 C 
HETATM  135  H   UNK N   1      33.515  18.495   9.823  0.00  0.00     0.173 HD
HETATM  136  C   UNK N   1      32.359  15.962   7.923  0.00  0.00     0.138 C 
HETATM  137  O   UNK N   1      31.448  18.050   8.557  0.00  0.00    -0.273 OA
ENDBRANCH 125 128
ENDBRANCH 121 124
ENDBRANCH 117 118
ENDBRANCH   1 117
TORSDOF 42
ENDMDL
MODEL 5
REMARK VINA RESULT:      -8.2      2.182      3.282
REMARK WARNING: 32 MAX_TORS EXCEEDED!!!
REMARK  42 active torsions:
REMARK  status: ('A' for Active; 'I' for Inactive)
REMARK       I    between atoms: C_3  and  N_1 
REMARK    1  A    between atoms: C_34  and  C_3 
REMARK    2  A    between atoms: C_9  and  C_5 
REMARK       I    between atoms: N_27  and  C_5 
REMARK       I    between atoms: C_8  and  N_20 
REMARK    3  A    between atoms: C_19  and  C_8 
REMARK    4  A    between atoms: C_10  and  C_17 
REMARK       I    between atoms: C_11  and  N_18 
REMARK    5  A    between atoms: C_31  and  C_11 
REMARK       I    between atoms: C_12  and  N_25 
REMARK    6  A    between atoms: C_32  and  C_12 
REMARK       I    between atoms: C_13  and  N_23 
REMARK    7  A    between atoms: C_29  and  C_13 
REMARK       I    between atoms: C_14  and  N_22 
REMARK    8  A    between atoms: C_30  and  C_14 
REMARK       I    between atoms: C_15  and  N_21 
REMARK    9  A    between atoms: C_28  and  C_15 
REMARK       I    between atoms: C_16  and  N_24 
REMARK   10  A    between atoms: C_35  and  C_16 
REMARK       I    between atoms: C_17  and  N_38 
REMARK   11  A    between atoms: C_19  and  N_18 
REMARK   12  A    between atoms: C_19  and  C_83 
REMARK   13  A    between atoms: C_28  and  N_20 
REMARK   14  A    between atoms: C_29  and  N_21 
REMARK   15  A    between atoms: C_31  and  N_22 
REMARK   16  A    between atoms: C_32  and  N_23 
REMARK   17  A    between atoms: C_30  and  N_24 
REMARK   18  A    between atoms: C_34  and  N_25 
REMARK   19  A    between atoms: C_40  and  N_27 
REMARK   20  A    between atoms: C_28  and  C_58 
REMARK   21  A    between atoms: C_29  and  C_57 
REMARK   22  A    between atoms: C_30  and  C_56 
REMARK   23  A    between atoms: C_31  and  C_60 
REMARK   24  A    between atoms: C_32  and  C_64 
REMARK       I    between atoms: C_33  and  N_41 
REMARK       I    between atoms: N_70  and  C_33 
REMARK   25  A    between atoms: C_34  and  C_100 
REMARK   26  A    between atoms: C_35  and  N_37 
REMARK   27  A    between atoms: C_35  and  C_45 
REMARK   28  A    between atoms: C_36  and  C_40 
REMARK       I    between atoms: N_72  and  C_36 
REMARK       I    between atoms: C_39  and  N_37 
REMARK   29  A    between atoms: N_38  and  C_69 
REMARK   30  A    between atoms: N_41  and  C_74 
REMARK   31  A    between atoms: C_59  and  C_45 
REMARK   32  A    between atoms: C_77  and  C_56 
REMARK   33  A    between atoms: C_76  and  C_57 
REMARK   34  A    between atoms: C_75  and  C_58 
REMARK   35  A    between atoms: C_80  and  C_60 
REMARK   36  A    between atoms: C_101  and  C_64 
REMARK   37  A    between atoms: N_81  and  C_107 
REMARK   38  A    between atoms: C_104  and  N_81 
REMARK   39  A    between atoms: O_97  and  C_83 
REMARK   40  A    between atoms: C_110  and  C_100 
REMARK   41  A    between atoms: C_107  and  C_111 
REMARK   42  A    between atoms: C_111  and  C_110 
ROOT
HETATM    1  C   UNK N   1      29.040  12.476   3.367  0.00  0.00     0.180 C 
ENDROOT
BRANCH   1   2
HETATM    2  N   UNK N   1      28.721  11.285   4.129  0.00  0.00    -0.346 N 
HETATM    3  C   UNK N   1      29.606  10.352   4.547  0.00  0.00     0.243 C 
HETATM    4  O   UNK N   1      29.224   9.459   5.285  0.00  0.00    -0.271 OA
HETATM    5  H   UNK N   1      27.775  11.141   4.363  0.00  0.00     0.163 HD
BRANCH   3   6
HETATM    6  C   UNK N   1      31.000  10.323   4.038  0.00  0.00     0.200 C 
BRANCH   6   7
HETATM    7  N   UNK N   1      31.799  10.116   5.207  0.00  0.00    -0.344 N 
HETATM    8  C   UNK N   1      33.034  10.574   5.519  0.00  0.00     0.241 C 
HETATM    9  O   UNK N   1      33.569  11.465   4.877  0.00  0.00    -0.271 OA
HETATM   10  H   UNK N   1      31.382   9.549   5.896  0.00  0.00     0.163 HD
BRANCH   8  11
HETATM   11  C   UNK N   1      33.746   9.910   6.669  0.00  0.00     0.180 C 
BRANCH  11  12
HETATM   12  N   UNK N   1      32.785   9.635   7.724  0.00  0.00    -0.346 N 
HETATM   13  C   UNK N   1      32.972  10.005   9.010  0.00  0.00     0.241 C 
HETATM   14  O   UNK N   1      32.109   9.761   9.838  0.00  0.00    -0.271 OA
HETATM   15  H   UNK N   1      31.958   9.156   7.491  0.00  0.00     0.163 HD
BRANCH  13  16
HETATM   16  C   UNK N   1      34.309  10.505   9.440  0.00  0.00     0.180 C 
BRANCH  16  17
HETATM   17  N   UNK N   1      34.532   9.801  10.670  0.00  0.00    -0.346 N 
HETATM   18  C   UNK N   1      35.688   9.453  11.255  0.00  0.00     0.241 C 
HETATM   19  O   UNK N   1      36.747   9.485  10.646  0.00  0.00    -0.271 OA
HETATM   20  H   UNK N   1      33.718   9.535  11.156  0.00  0.00     0.163 HD
BRANCH  18  21
HETATM   21  C   UNK N   1      35.640   9.178  12.725  0.00  0.00     0.180 C 
BRANCH  21  22
HETATM   22  N   UNK N   1      36.833   9.679  13.366  0.00  0.00    -0.348 N 
HETATM   23  C   UNK N   1      37.727   8.862  13.973  0.00  0.00     0.214 C 
HETATM   24  O   UNK N   1      37.552   7.653  14.002  0.00  0.00    -0.274 OA
HETATM   25  C   UNK N   1      38.928   9.446  14.623  0.00  0.00     0.117 C 
HETATM   26  H   UNK N   1      37.002  10.650  13.362  0.00  0.00     0.163 HD
ENDBRANCH  21  22
BRANCH  21  27
HETATM   27  C   UNK N   1      34.421   9.931  13.299  0.00  0.00     0.073 C 
BRANCH  27  28
HETATM   28  C   UNK N   1      34.584  10.806  14.514  0.00  0.00    -0.055 A 
HETATM   29  C   UNK N   1      34.732  10.167  15.750  0.00  0.00     0.019 A 
HETATM   30  C   UNK N   1      34.930  10.907  16.916  0.00  0.00    -0.025 A 
HETATM   31  C   UNK N   1      35.065  10.254  18.143  0.00  0.00     0.012 A 
HETATM   32  C   UNK N   1      34.997  12.316  16.853  0.00  0.00    -0.026 A 
HETATM   33  C   UNK N   1      35.269  10.996  19.311  0.00  0.00     0.001 A 
HETATM   34  C   UNK N   1      35.342  12.393  19.250  0.00  0.00     0.001 A 
HETATM   35  C   UNK N   1      35.206  13.053  18.023  0.00  0.00     0.012 A 
HETATM   36  C   UNK N   1      34.848  12.961  15.622  0.00  0.00     0.013 A 
HETATM   37  C   UNK N   1      34.639  12.208  14.457  0.00  0.00     0.008 A 
ENDBRANCH  27  28
ENDBRANCH  21  27
ENDBRANCH  18  21
ENDBRANCH  16  17
BRANCH  16  38
HETATM   38  C   UNK N   1      34.374  12.034   9.480  0.00  0.00     0.073 C 
BRANCH  38  39
HETATM   39  C   UNK N   1      35.697  12.499   8.968  0.00  0.00    -0.056 A 
HETATM   40  C   UNK N   1      36.437  13.453   9.678  0.00  0.00     0.009 A 
HETATM   41  C   UNK N   1      37.690  13.859   9.211  0.00  0.00     0.024 A 
HETATM   42  C   UNK N   1      38.209  13.310   8.035  0.00  0.00     0.034 A 
HETATM   43  C   UNK N   1      37.469  12.365   7.318  0.00  0.00     0.024 A 
HETATM   44 Cl   UNK N   1      39.788  13.803   7.465  0.00  0.00    -0.084 Cl
HETATM   45  C   UNK N   1      36.214  11.962   7.783  0.00  0.00     0.009 A 
ENDBRANCH  38  39
ENDBRANCH  16  38
ENDBRANCH  13  16
ENDBRANCH  11  12
BRANCH  11  46
HETATM   46  C   UNK N   1      34.485   8.624   6.231  0.00  0.00     0.074 C 
BRANCH  46  47
HETATM   47  C   UNK N   1      35.725   8.133   6.959  0.00  0.00    -0.040 A 
HETATM   48  C   UNK N   1      35.684   7.300   8.088  0.00  0.00     0.094 A 
HETATM   49  N   UNK N   1      36.829   6.927   8.720  0.00  0.00    -0.375 N 
HETATM   50  C   UNK N   1      38.045   7.343   8.281  0.00  0.00     0.087 A 
ATOM     51  HN  UNK N   1      36.773   6.324   9.540  1.00  0.00     0.164 HD
HETATM   52  C   UNK N   1      38.139   8.167   7.159  0.00  0.00     0.018 A 
HETATM   53  C   UNK N   1      36.973   8.562   6.501  0.00  0.00     0.010 A 
ENDBRANCH  46  47
ENDBRANCH  11  46
ENDBRANCH   8  11
ENDBRANCH   6   7
BRANCH   6  54
HETATM   54  C   UNK N   1      31.252   9.376   2.876  0.00  0.00     0.199 C 
BRANCH  54  55
HETATM   55  O   UNK N   1      30.037   9.077   2.261  0.00  0.00    -0.398 OA
HETATM   56  H   UNK N   1      29.557   9.533   1.551  0.00  0.00     0.209 HD
ENDBRANCH  54  55
ENDBRANCH   6  54
ENDBRANCH   3   6
ENDBRANCH   1   2
BRANCH   1  57
HETATM   57  C   UNK N   1      28.372  12.449   2.028  0.00  0.00     0.241 C 
HETATM   58  N   UNK N   1      27.495  13.404   1.630  0.00  0.00    -0.346 N 
HETATM   59  H   UNK N   1      27.176  13.361   0.700  0.00  0.00     0.163 HD
HETATM   60  O   UNK N   1      28.638  11.536   1.263  0.00  0.00    -0.271 OA
BRANCH  58  61
HETATM   61  C   UNK N   1      26.983  14.491   2.459  0.00  0.00     0.180 C 
BRANCH  61  62
HETATM   62  C   UNK N   1      25.670  14.882   1.898  0.00  0.00     0.241 C 
HETATM   63  N   UNK N   1      24.581  14.213   2.350  0.00  0.00    -0.346 N 
HETATM   64  H   UNK N   1      24.533  13.949   3.298  0.00  0.00     0.163 HD
HETATM   65  O   UNK N   1      25.603  15.594   0.904  0.00  0.00    -0.271 OA
BRANCH  63  66
HETATM   66  C   UNK N   1      23.494  13.883   1.468  0.00  0.00     0.177 C 
BRANCH  66  67
HETATM   67  C   UNK N   1      22.352  14.813   1.903  0.00  0.00     0.241 C 
HETATM   68  N   UNK N   1      22.023  15.079   3.190  0.00  0.00    -0.346 N 
HETATM   69  H   UNK N   1      21.411  15.832   3.361  0.00  0.00     0.163 HD
HETATM   70  O   UNK N   1      21.734  15.395   1.025  0.00  0.00    -0.271 OA
BRANCH  68  71
HETATM   71  C   UNK N   1      22.505  14.341   4.325  0.00  0.00     0.176 C 
BRANCH  71  72
HETATM   72  C   UNK N   1      21.365  13.462   4.830  0.00  0.00     0.243 C 
HETATM   73  N   UNK N   1      21.537  12.204   5.320  0.00  0.00    -0.337 N 
HETATM   74  C   UNK N   1      22.776  11.485   5.293  0.00  0.00     0.179 C 
HETATM   75  C   UNK N   1      20.402  11.368   5.600  0.00  0.00     0.127 C 
HETATM   76  C   UNK N   1      22.319  10.150   4.731  0.00  0.00     0.037 C 
HETATM   77  C   UNK N   1      20.901   9.963   5.293  0.00  0.00     0.022 C 
HETATM   78  O   UNK N   1      20.226  13.907   4.749  0.00  0.00    -0.271 OA
BRANCH  74  79
HETATM   79  C   UNK N   1      23.272  11.211   6.692  0.00  0.00     0.241 C 
HETATM   80  N   UNK N   1      23.068  12.152   7.650  0.00  0.00    -0.346 N 
HETATM   81  H   UNK N   1      22.380  12.838   7.490  0.00  0.00     0.163 HD
HETATM   82  O   UNK N   1      23.943  10.214   6.930  0.00  0.00    -0.271 OA
BRANCH  80  83
HETATM   83  C   UNK N   1      23.808  12.200   8.894  0.00  0.00     0.172 C 
HETATM   84  C   UNK N   1      24.890  13.276   8.881  0.00  0.00     0.042 C 
BRANCH  83  85
HETATM   85  C   UNK N   1      22.821  12.331  10.029  0.00  0.00     0.237 C 
HETATM   86  O   UNK N   1      22.125  13.331  10.103  0.00  0.00    -0.271 OA
HETATM   87  N   UNK N   1      22.724  11.383  10.983  0.00  0.00    -0.368 N 
HETATM   88  H   UNK N   1      23.001  10.644  11.572  0.00  0.00     0.159 HD
HETATM   89  H   UNK N   1      21.792  11.510  11.274  0.00  0.00     0.159 HD
ENDBRANCH  83  85
ENDBRANCH  80  83
ENDBRANCH  74  79
ENDBRANCH  71  72
BRANCH  71  90
HETATM   90  C   UNK N   1      23.179  15.287   5.315  0.00  0.00     0.035 C 
BRANCH  90  91
HETATM   91  C   UNK N   1      22.793  16.724   5.032  0.00  0.00     0.004 C 
BRANCH  91  92
HETATM   92  C   UNK N   1      24.034  17.564   4.838  0.00  0.00     0.019 C 
BRANCH  92  93
HETATM   93  C   UNK N   1      23.778  18.586   3.745  0.00  0.00     0.114 C 
BRANCH  93  94
HETATM   94  N   UNK N   1      24.301  19.889   4.137  0.00  0.00    -0.418 N 
HETATM   95  H   UNK N   1      23.773  20.760   4.180  0.00  0.00     0.153 HD
BRANCH  94  96
HETATM   96  C   UNK N   1      25.710  19.723   4.455  0.00  0.00     0.068 C 
HETATM   97  C   UNK N   1      26.035  20.520   5.697  0.00  0.00     0.031 C 
HETATM   98  C   UNK N   1      26.567  20.211   3.302  0.00  0.00     0.031 C 
ENDBRANCH  94  96
ENDBRANCH  93  94
ENDBRANCH  92  93
ENDBRANCH  91  92
ENDBRANCH  90  91
ENDBRANCH  71  90
ENDBRANCH  68  71
ENDBRANCH  66  67
BRANCH  66  99
HETATM   99  C   UNK N   1      23.252  12.374   1.468  0.00  0.00     0.038 C 
BRANCH  99 100
HETATM  100  C   UNK N   1      24.303  11.659   0.650  0.00  0.00    -0.020 C 
HETATM  101  C   UNK N   1      25.058  10.688   1.533  0.00  0.00     0.009 C 
HETATM  102  C   UNK N   1      23.601  10.892  -0.449  0.00  0.00     0.009 C 
ENDBRANCH  99 100
ENDBRANCH  66  99
ENDBRANCH  63  66
ENDBRANCH  61  62
BRANCH  61 103
HETATM  103  C   UNK N   1      27.999  15.641   2.508  0.00  0.00     0.073 C 
BRANCH 103 104
HETATM  104  C   UNK N   1      28.077  16.209   3.886  0.00  0.00    -0.056 A 
HETATM  105  C   UNK N   1      27.316  15.668   4.927  0.00  0.00     0.009 A 
HETATM  106  C   UNK N   1      27.295  16.291   6.174  0.00  0.00     0.030 A 
HETATM  107  C   UNK N   1      28.034  17.457   6.388  0.00  0.00     0.036 A 
HETATM  108  C   UNK N   1      28.790  17.997   5.335  0.00  0.00     0.030 A 
HETATM  109  C   UNK N   1      28.805  17.379   4.089  0.00  0.00     0.009 A 
BRANCH 107 110
HETATM  110  N   UNK N   1      27.995  18.071   7.669  0.00  0.00    -0.309 N 
HETATM  111  C   UNK N   1      28.961  17.966   8.620  0.00  0.00     0.318 C 
HETATM  112  O   UNK N   1      29.940  17.255   8.452  0.00  0.00    -0.247 OA
HETATM  113  N   UNK N   1      28.822  18.630   9.781  0.00  0.00    -0.352 N 
HETATM  114  H   UNK N   1      29.532  18.911  10.402  0.00  0.00     0.160 HD
HETATM  115  H   UNK N   1      27.901  18.862  10.040  0.00  0.00     0.160 HD
HETATM  116  H   UNK N   1      27.204  18.616   7.886  0.00  0.00     0.170 HD
ENDBRANCH 107 110
ENDBRANCH 103 104
ENDBRANCH  61 103
ENDBRANCH  58  61
ENDBRANCH   1  57
BRANCH   1 117
HETATM  117  C   UNK N   1      30.552  12.705   3.192  0.00  0.00     0.073 C 
BRANCH 117 118
HETATM  118  C   UNK N   1      31.069  13.871   3.974  0.00  0.00    -0.056 A 
HETATM  119  C   UNK N   1      31.926  14.832   3.417  0.00  0.00     0.009 A 
HETATM  120  C   UNK N   1      32.308  15.943   4.193  0.00  0.00     0.030 A 
HETATM  121  C   UNK N   1      31.850  16.062   5.523  0.00  0.00     0.034 A 
HETATM  122  C   UNK N   1      31.036  15.082   6.056  0.00  0.00     0.030 A 
HETATM  123  C   UNK N   1      30.634  14.018   5.287  0.00  0.00     0.009 A 
BRANCH 121 124
HETATM  124  N   UNK N   1      32.076  17.189   6.346  0.00  0.00    -0.325 N 
HETATM  125  C   UNK N   1      33.123  17.393   7.175  0.00  0.00     0.245 C 
HETATM  126  O   UNK N   1      33.237  18.491   7.699  0.00  0.00    -0.271 OA
HETATM  127  H   UNK N   1      31.399  17.902   6.310  0.00  0.00     0.169 HD
BRANCH 125 128
HETATM  128  C   UNK N   1      34.198  16.350   7.399  0.00  0.00     0.187 C 
HETATM  129  N   UNK N   1      35.176  16.838   8.357  0.00  0.00    -0.329 N 
HETATM  130  C   UNK N   1      34.912  16.820   9.692  0.00  0.00     0.323 C 
HETATM  131  H   UNK N   1      36.038  17.186   8.036  0.00  0.00     0.165 HD
HETATM  132  O   UNK N   1      35.655  17.398  10.463  0.00  0.00    -0.247 OA
HETATM  133  N   UNK N   1      33.809  16.179  10.163  0.00  0.00    -0.279 N 
HETATM  134  C   UNK N   1      33.059  15.392   9.351  0.00  0.00     0.228 C 
HETATM  135  H   UNK N   1      33.550  16.288  11.107  0.00  0.00     0.173 HD
HETATM  136  C   UNK N   1      33.536  15.090   7.956  0.00  0.00     0.138 C 
HETATM  137  O   UNK N   1      32.011  14.920   9.755  0.00  0.00    -0.273 OA
ENDBRANCH 125 128
ENDBRANCH 121 124
ENDBRANCH 117 118
ENDBRANCH   1 117
TORSDOF 42
ENDMDL
MODEL 6
REMARK VINA RESULT:      -8.1      3.435     13.616
REMARK WARNING: 32 MAX_TORS EXCEEDED!!!
REMARK  42 active torsions:
REMARK  status: ('A' for Active; 'I' for Inactive)
REMARK       I    between atoms: C_3  and  N_1 
REMARK    1  A    between atoms: C_34  and  C_3 
REMARK    2  A    between atoms: C_9  and  C_5 
REMARK       I    between atoms: N_27  and  C_5 
REMARK       I    between atoms: C_8  and  N_20 
REMARK    3  A    between atoms: C_19  and  C_8 
REMARK    4  A    between atoms: C_10  and  C_17 
REMARK       I    between atoms: C_11  and  N_18 
REMARK    5  A    between atoms: C_31  and  C_11 
REMARK       I    between atoms: C_12  and  N_25 
REMARK    6  A    between atoms: C_32  and  C_12 
REMARK       I    between atoms: C_13  and  N_23 
REMARK    7  A    between atoms: C_29  and  C_13 
REMARK       I    between atoms: C_14  and  N_22 
REMARK    8  A    between atoms: C_30  and  C_14 
REMARK       I    between atoms: C_15  and  N_21 
REMARK    9  A    between atoms: C_28  and  C_15 
REMARK       I    between atoms: C_16  and  N_24 
REMARK   10  A    between atoms: C_35  and  C_16 
REMARK       I    between atoms: C_17  and  N_38 
REMARK   11  A    between atoms: C_19  and  N_18 
REMARK   12  A    between atoms: C_19  and  C_83 
REMARK   13  A    between atoms: C_28  and  N_20 
REMARK   14  A    between atoms: C_29  and  N_21 
REMARK   15  A    between atoms: C_31  and  N_22 
REMARK   16  A    between atoms: C_32  and  N_23 
REMARK   17  A    between atoms: C_30  and  N_24 
REMARK   18  A    between atoms: C_34  and  N_25 
REMARK   19  A    between atoms: C_40  and  N_27 
REMARK   20  A    between atoms: C_28  and  C_58 
REMARK   21  A    between atoms: C_29  and  C_57 
REMARK   22  A    between atoms: C_30  and  C_56 
REMARK   23  A    between atoms: C_31  and  C_60 
REMARK   24  A    between atoms: C_32  and  C_64 
REMARK       I    between atoms: C_33  and  N_41 
REMARK       I    between atoms: N_70  and  C_33 
REMARK   25  A    between atoms: C_34  and  C_100 
REMARK   26  A    between atoms: C_35  and  N_37 
REMARK   27  A    between atoms: C_35  and  C_45 
REMARK   28  A    between atoms: C_36  and  C_40 
REMARK       I    between atoms: N_72  and  C_36 
REMARK       I    between atoms: C_39  and  N_37 
REMARK   29  A    between atoms: N_38  and  C_69 
REMARK   30  A    between atoms: N_41  and  C_74 
REMARK   31  A    between atoms: C_59  and  C_45 
REMARK   32  A    between atoms: C_77  and  C_56 
REMARK   33  A    between atoms: C_76  and  C_57 
REMARK   34  A    between atoms: C_75  and  C_58 
REMARK   35  A    between atoms: C_80  and  C_60 
REMARK   36  A    between atoms: C_101  and  C_64 
REMARK   37  A    between atoms: N_81  and  C_107 
REMARK   38  A    between atoms: C_104  and  N_81 
REMARK   39  A    between atoms: O_97  and  C_83 
REMARK   40  A    between atoms: C_110  and  C_100 
REMARK   41  A    between atoms: C_107  and  C_111 
REMARK   42  A    between atoms: C_111  and  C_110 
ROOT
HETATM    1  C   UNK N   1      29.141  17.010   6.612  0.00  0.00     0.180 C 
ENDROOT
BRANCH   1   2
HETATM    2  N   UNK N   1      27.912  16.325   6.266  0.00  0.00    -0.346 N 
HETATM    3  C   UNK N   1      27.818  15.179   5.555  0.00  0.00     0.243 C 
HETATM    4  O   UNK N   1      26.730  14.641   5.436  0.00  0.00    -0.271 OA
HETATM    5  H   UNK N   1      27.069  16.731   6.574  0.00  0.00     0.163 HD
BRANCH   3   6
HETATM    6  C   UNK N   1      28.984  14.623   4.823  0.00  0.00     0.200 C 
BRANCH   6   7
HETATM    7  N   UNK N   1      28.597  13.282   4.508  0.00  0.00    -0.344 N 
HETATM    8  C   UNK N   1      29.323  12.139   4.495  0.00  0.00     0.241 C 
HETATM    9  O   UNK N   1      30.435  12.080   4.996  0.00  0.00    -0.271 OA
HETATM   10  H   UNK N   1      27.650  13.173   4.264  0.00  0.00     0.163 HD
BRANCH   8  11
HETATM   11  C   UNK N   1      28.721  10.947   3.796  0.00  0.00     0.180 C 
BRANCH  11  12
HETATM   12  N   UNK N   1      29.099  10.983   2.393  0.00  0.00    -0.346 N 
HETATM   13  C   UNK N   1      28.225  11.247   1.398  0.00  0.00     0.241 C 
HETATM   14  O   UNK N   1      28.620  11.283   0.243  0.00  0.00    -0.271 OA
HETATM   15  H   UNK N   1      30.038  10.804   2.156  0.00  0.00     0.163 HD
BRANCH  13  16
HETATM   16  C   UNK N   1      26.764  11.274   1.695  0.00  0.00     0.180 C 
BRANCH  16  17
HETATM   17  N   UNK N   1      26.192  10.648   0.539  0.00  0.00    -0.346 N 
HETATM   18  C   UNK N   1      25.604   9.447   0.423  0.00  0.00     0.241 C 
HETATM   19  O   UNK N   1      25.713   8.595   1.293  0.00  0.00    -0.271 OA
HETATM   20  H   UNK N   1      26.237  11.175  -0.291  0.00  0.00     0.163 HD
BRANCH  18  21
HETATM   21  C   UNK N   1      24.682   9.261  -0.742  0.00  0.00     0.180 C 
BRANCH  21  22
HETATM   22  N   UNK N   1      24.841   7.938  -1.297  0.00  0.00    -0.348 N 
HETATM   23  C   UNK N   1      24.794   7.701  -2.630  0.00  0.00     0.214 C 
HETATM   24  O   UNK N   1      24.610   8.613  -3.423  0.00  0.00    -0.274 OA
HETATM   25  C   UNK N   1      24.954   6.312  -3.132  0.00  0.00     0.117 C 
HETATM   26  H   UNK N   1      24.989   7.181  -0.684  0.00  0.00     0.163 HD
ENDBRANCH  21  22
BRANCH  21  27
HETATM   27  C   UNK N   1      23.238   9.404  -0.219  0.00  0.00     0.073 C 
BRANCH  27  28
HETATM   28  C   UNK N   1      22.686  10.771   0.095  0.00  0.00    -0.055 A 
HETATM   29  C   UNK N   1      21.547  10.831   0.904  0.00  0.00     0.019 A 
HETATM   30  C   UNK N   1      21.000  12.060   1.274  0.00  0.00    -0.025 A 
HETATM   31  C   UNK N   1      19.855  12.103   2.074  0.00  0.00     0.012 A 
HETATM   32  C   UNK N   1      21.606  13.259   0.843  0.00  0.00    -0.026 A 
HETATM   33  C   UNK N   1      19.311  13.335   2.449  0.00  0.00     0.001 A 
HETATM   34  C   UNK N   1      19.914  14.526   2.028  0.00  0.00     0.001 A 
HETATM   35  C   UNK N   1      21.060  14.489   1.225  0.00  0.00     0.012 A 
HETATM   36  C   UNK N   1      22.744  13.206   0.032  0.00  0.00     0.013 A 
HETATM   37  C   UNK N   1      23.279  11.966  -0.343  0.00  0.00     0.008 A 
ENDBRANCH  27  28
ENDBRANCH  21  27
ENDBRANCH  18  21
ENDBRANCH  16  17
BRANCH  16  38
HETATM   38  C   UNK N   1      26.270  12.677   2.057  0.00  0.00     0.073 C 
BRANCH  38  39
HETATM   39  C   UNK N   1      25.028  12.580   2.880  0.00  0.00    -0.056 A 
HETATM   40  C   UNK N   1      24.537  11.330   3.278  0.00  0.00     0.009 A 
HETATM   41  C   UNK N   1      23.393  11.248   4.076  0.00  0.00     0.024 A 
HETATM   42  C   UNK N   1      22.739  12.414   4.482  0.00  0.00     0.034 A 
HETATM   43  C   UNK N   1      23.220  13.663   4.079  0.00  0.00     0.024 A 
HETATM   44 Cl   UNK N   1      21.320  12.309   5.502  0.00  0.00    -0.084 Cl
HETATM   45  C   UNK N   1      24.362  13.745   3.277  0.00  0.00     0.009 A 
ENDBRANCH  38  39
ENDBRANCH  16  38
ENDBRANCH  13  16
ENDBRANCH  11  12
BRANCH  11  46
HETATM   46  C   UNK N   1      29.139   9.613   4.459  0.00  0.00     0.074 C 
BRANCH  46  47
HETATM   47  C   UNK N   1      28.113   8.555   4.828  0.00  0.00    -0.040 A 
HETATM   48  C   UNK N   1      28.450   7.285   5.322  0.00  0.00     0.094 A 
HETATM   49  N   UNK N   1      27.486   6.366   5.597  0.00  0.00    -0.375 N 
HETATM   50  C   UNK N   1      26.170   6.645   5.406  0.00  0.00     0.087 A 
ATOM     51  HN  UNK N   1      27.756   5.450   5.953  1.00  0.00     0.164 HD
HETATM   52  C   UNK N   1      25.784   7.896   4.923  0.00  0.00     0.018 A 
HETATM   53  C   UNK N   1      26.761   8.849   4.632  0.00  0.00     0.010 A 
ENDBRANCH  46  47
ENDBRANCH  11  46
ENDBRANCH   8  11
ENDBRANCH   6   7
BRANCH   6  54
HETATM   54  C   UNK N   1      29.488  15.466   3.662  0.00  0.00     0.199 C 
BRANCH  54  55
HETATM   55  O   UNK N   1      28.860  15.050   2.489  0.00  0.00    -0.398 OA
HETATM   56  H   UNK N   1      29.214  14.912   1.596  0.00  0.00     0.209 HD
ENDBRANCH  54  55
ENDBRANCH   6  54
ENDBRANCH   3   6
ENDBRANCH   1   2
BRANCH   1  57
HETATM   57  C   UNK N   1      29.220  17.253   8.088  0.00  0.00     0.241 C 
HETATM   58  N   UNK N   1      30.333  16.982   8.814  0.00  0.00    -0.346 N 
HETATM   59  H   UNK N   1      30.332  17.261   9.758  0.00  0.00     0.163 HD
HETATM   60  O   UNK N   1      28.246  17.725   8.653  0.00  0.00    -0.271 OA
BRANCH  58  61
HETATM   61  C   UNK N   1      31.533  16.313   8.319  0.00  0.00     0.180 C 
BRANCH  61  62
HETATM   62  C   UNK N   1      32.241  15.766   9.499  0.00  0.00     0.241 C 
HETATM   63  N   UNK N   1      33.565  16.037   9.606  0.00  0.00    -0.346 N 
HETATM   64  H   UNK N   1      33.903  16.919   9.327  0.00  0.00     0.163 HD
HETATM   65  O   UNK N   1      31.714  14.914  10.202  0.00  0.00    -0.271 OA
BRANCH  63  66
HETATM   66  C   UNK N   1      34.482  15.057  10.121  0.00  0.00     0.177 C 
BRANCH  66  67
HETATM   67  C   UNK N   1      35.567  15.882  10.828  0.00  0.00     0.241 C 
HETATM   68  N   UNK N   1      36.404  15.401  11.779  0.00  0.00    -0.346 N 
HETATM   69  H   UNK N   1      37.183  15.950  12.024  0.00  0.00     0.163 HD
HETATM   70  O   UNK N   1      35.722  17.038  10.466  0.00  0.00    -0.271 OA
BRANCH  68  71
HETATM   71  C   UNK N   1      36.233  14.145  12.456  0.00  0.00     0.176 C 
BRANCH  71  72
HETATM   72  C   UNK N   1      36.385  14.394  13.953  0.00  0.00     0.243 C 
HETATM   73  N   UNK N   1      36.057  13.484  14.910  0.00  0.00    -0.337 N 
HETATM   74  C   UNK N   1      35.395  12.239  14.654  0.00  0.00     0.179 C 
HETATM   75  C   UNK N   1      36.049  13.857  16.299  0.00  0.00     0.127 C 
HETATM   76  C   UNK N   1      34.296  12.280  15.701  0.00  0.00     0.037 C 
HETATM   77  C   UNK N   1      34.929  13.015  16.893  0.00  0.00     0.022 C 
HETATM   78  O   UNK N   1      36.788  15.496  14.306  0.00  0.00    -0.271 OA
BRANCH  74  79
HETATM   79  C   UNK N   1      36.283  11.073  15.014  0.00  0.00     0.241 C 
HETATM   80  N   UNK N   1      35.748  10.039  15.714  0.00  0.00    -0.346 N 
HETATM   81  H   UNK N   1      34.768   9.942  15.725  0.00  0.00     0.163 HD
HETATM   82  O   UNK N   1      37.485  11.111  14.779  0.00  0.00    -0.271 OA
BRANCH  80  83
HETATM   83  C   UNK N   1      36.540   9.073  16.445  0.00  0.00     0.172 C 
HETATM   84  C   UNK N   1      36.603   9.389  17.937  0.00  0.00     0.042 C 
BRANCH  83  85
HETATM   85  C   UNK N   1      36.019   7.693  16.129  0.00  0.00     0.237 C 
HETATM   86  O   UNK N   1      35.368   7.092  16.970  0.00  0.00    -0.271 OA
HETATM   87  N   UNK N   1      36.292   7.096  14.951  0.00  0.00    -0.368 N 
HETATM   88  H   UNK N   1      36.779   6.886  14.121  0.00  0.00     0.159 HD
HETATM   89  H   UNK N   1      35.521   6.489  14.870  0.00  0.00     0.159 HD
ENDBRANCH  83  85
ENDBRANCH  80  83
ENDBRANCH  74  79
ENDBRANCH  71  72
BRANCH  71  90
HETATM   90  C   UNK N   1      37.116  13.080  11.809  0.00  0.00     0.035 C 
BRANCH  90  91
HETATM   91  C   UNK N   1      36.295  11.872  11.409  0.00  0.00     0.004 C 
BRANCH  91  92
HETATM   92  C   UNK N   1      37.196  10.799  10.845  0.00  0.00     0.019 C 
BRANCH  92  93
HETATM   93  C   UNK N   1      36.462   9.470  10.862  0.00  0.00     0.114 C 
BRANCH  93  94
HETATM   94  N   UNK N   1      35.851   9.245  12.166  0.00  0.00    -0.418 N 
HETATM   95  H   UNK N   1      36.224   9.550  13.065  0.00  0.00     0.153 HD
BRANCH  94  96
HETATM   96  C   UNK N   1      34.618   8.505  11.955  0.00  0.00     0.068 C 
HETATM   97  C   UNK N   1      34.944   7.148  11.377  0.00  0.00     0.031 C 
HETATM   98  C   UNK N   1      33.713   9.259  10.998  0.00  0.00     0.031 C 
ENDBRANCH  94  96
ENDBRANCH  93  94
ENDBRANCH  92  93
ENDBRANCH  91  92
ENDBRANCH  90  91
ENDBRANCH  71  90
ENDBRANCH  68  71
ENDBRANCH  66  67
BRANCH  66  99
HETATM   99  C   UNK N   1      34.902  14.091   9.013  0.00  0.00     0.038 C 
BRANCH  99 100
HETATM  100  C   UNK N   1      36.134  14.595   8.296  0.00  0.00    -0.020 C 
HETATM  101  C   UNK N   1      37.201  13.519   8.306  0.00  0.00     0.009 C 
HETATM  102  C   UNK N   1      35.750  14.905   6.866  0.00  0.00     0.009 C 
ENDBRANCH  99 100
ENDBRANCH  66  99
ENDBRANCH  63  66
ENDBRANCH  61  62
BRANCH  61 103
HETATM  103  C   UNK N   1      32.379  17.292   7.492  0.00  0.00     0.073 C 
BRANCH 103 104
HETATM  104  C   UNK N   1      32.753  16.680   6.184  0.00  0.00    -0.056 A 
HETATM  105  C   UNK N   1      33.186  17.477   5.118  0.00  0.00     0.009 A 
HETATM  106  C   UNK N   1      33.401  16.910   3.863  0.00  0.00     0.030 A 
HETATM  107  C   UNK N   1      33.186  15.543   3.666  0.00  0.00     0.036 A 
HETATM  108  C   UNK N   1      32.745  14.752   4.739  0.00  0.00     0.030 A 
HETATM  109  C   UNK N   1      32.524  15.320   5.989  0.00  0.00     0.009 A 
BRANCH 107 110
HETATM  110  N   UNK N   1      33.414  14.991   2.376  0.00  0.00    -0.309 N 
HETATM  111  C   UNK N   1      34.406  14.117   2.061  0.00  0.00     0.318 C 
HETATM  112  O   UNK N   1      35.242  13.782   2.887  0.00  0.00    -0.247 OA
HETATM  113  N   UNK N   1      34.491  13.635   0.807  0.00  0.00    -0.352 N 
HETATM  114  H   UNK N   1      34.916  12.798   0.512  0.00  0.00     0.160 HD
HETATM  115  H   UNK N   1      34.079  14.186   0.103  0.00  0.00     0.160 HD
HETATM  116  H   UNK N   1      32.805  15.263   1.652  0.00  0.00     0.170 HD
ENDBRANCH 107 110
ENDBRANCH 103 104
ENDBRANCH  61 103
ENDBRANCH  58  61
ENDBRANCH   1  57
BRANCH   1 117
HETATM  117  C   UNK N   1      29.341  18.334   5.853  0.00  0.00     0.073 C 
BRANCH 117 118
HETATM  118  C   UNK N   1      28.103  18.812   5.162  0.00  0.00    -0.056 A 
HETATM  119  C   UNK N   1      27.735  18.368   3.882  0.00  0.00     0.009 A 
HETATM  120  C   UNK N   1      26.517  18.804   3.329  0.00  0.00     0.030 A 
HETATM  121  C   UNK N   1      25.698  19.699   4.050  0.00  0.00     0.034 A 
HETATM  122  C   UNK N   1      26.103  20.146   5.293  0.00  0.00     0.030 A 
HETATM  123  C   UNK N   1      27.274  19.692   5.847  0.00  0.00     0.009 A 
BRANCH 121 124
HETATM  124  N   UNK N   1      24.407  20.105   3.641  0.00  0.00    -0.325 N 
HETATM  125  C   UNK N   1      23.253  19.421   3.795  0.00  0.00     0.245 C 
HETATM  126  O   UNK N   1      22.207  19.987   3.517  0.00  0.00    -0.271 OA
HETATM  127  H   UNK N   1      24.343  20.980   3.196  0.00  0.00     0.169 HD
BRANCH 125 128
HETATM  128  C   UNK N   1      23.208  18.026   4.382  0.00  0.00     0.187 C 
HETATM  129  N   UNK N   1      22.773  18.081   5.768  0.00  0.00    -0.329 N 
HETATM  130  C   UNK N   1      21.456  18.230   6.080  0.00  0.00     0.323 C 
HETATM  131  H   UNK N   1      23.439  18.011   6.490  0.00  0.00     0.165 HD
HETATM  132  O   UNK N   1      21.129  18.462   7.229  0.00  0.00    -0.247 OA
HETATM  133  N   UNK N   1      20.510  18.146   5.107  0.00  0.00    -0.279 N 
HETATM  134  C   UNK N   1      20.828  17.728   3.856  0.00  0.00     0.228 C 
HETATM  135  H   UNK N   1      19.578  18.392   5.314  0.00  0.00     0.173 HD
HETATM  136  C   UNK N   1      22.209  17.197   3.577  0.00  0.00     0.138 C 
HETATM  137  O   UNK N   1      19.997  17.769   2.967  0.00  0.00    -0.273 OA
ENDBRANCH 125 128
ENDBRANCH 121 124
ENDBRANCH 117 118
ENDBRANCH   1 117
TORSDOF 42
ENDMDL
MODEL 7
REMARK VINA RESULT:      -8.1      2.367      4.709
REMARK WARNING: 32 MAX_TORS EXCEEDED!!!
REMARK  42 active torsions:
REMARK  status: ('A' for Active; 'I' for Inactive)
REMARK       I    between atoms: C_3  and  N_1 
REMARK    1  A    between atoms: C_34  and  C_3 
REMARK    2  A    between atoms: C_9  and  C_5 
REMARK       I    between atoms: N_27  and  C_5 
REMARK       I    between atoms: C_8  and  N_20 
REMARK    3  A    between atoms: C_19  and  C_8 
REMARK    4  A    between atoms: C_10  and  C_17 
REMARK       I    between atoms: C_11  and  N_18 
REMARK    5  A    between atoms: C_31  and  C_11 
REMARK       I    between atoms: C_12  and  N_25 
REMARK    6  A    between atoms: C_32  and  C_12 
REMARK       I    between atoms: C_13  and  N_23 
REMARK    7  A    between atoms: C_29  and  C_13 
REMARK       I    between atoms: C_14  and  N_22 
REMARK    8  A    between atoms: C_30  and  C_14 
REMARK       I    between atoms: C_15  and  N_21 
REMARK    9  A    between atoms: C_28  and  C_15 
REMARK       I    between atoms: C_16  and  N_24 
REMARK   10  A    between atoms: C_35  and  C_16 
REMARK       I    between atoms: C_17  and  N_38 
REMARK   11  A    between atoms: C_19  and  N_18 
REMARK   12  A    between atoms: C_19  and  C_83 
REMARK   13  A    between atoms: C_28  and  N_20 
REMARK   14  A    between atoms: C_29  and  N_21 
REMARK   15  A    between atoms: C_31  and  N_22 
REMARK   16  A    between atoms: C_32  and  N_23 
REMARK   17  A    between atoms: C_30  and  N_24 
REMARK   18  A    between atoms: C_34  and  N_25 
REMARK   19  A    between atoms: C_40  and  N_27 
REMARK   20  A    between atoms: C_28  and  C_58 
REMARK   21  A    between atoms: C_29  and  C_57 
REMARK   22  A    between atoms: C_30  and  C_56 
REMARK   23  A    between atoms: C_31  and  C_60 
REMARK   24  A    between atoms: C_32  and  C_64 
REMARK       I    between atoms: C_33  and  N_41 
REMARK       I    between atoms: N_70  and  C_33 
REMARK   25  A    between atoms: C_34  and  C_100 
REMARK   26  A    between atoms: C_35  and  N_37 
REMARK   27  A    between atoms: C_35  and  C_45 
REMARK   28  A    between atoms: C_36  and  C_40 
REMARK       I    between atoms: N_72  and  C_36 
REMARK       I    between atoms: C_39  and  N_37 
REMARK   29  A    between atoms: N_38  and  C_69 
REMARK   30  A    between atoms: N_41  and  C_74 
REMARK   31  A    between atoms: C_59  and  C_45 
REMARK   32  A    between atoms: C_77  and  C_56 
REMARK   33  A    between atoms: C_76  and  C_57 
REMARK   34  A    between atoms: C_75  and  C_58 
REMARK   35  A    between atoms: C_80  and  C_60 
REMARK   36  A    between atoms: C_101  and  C_64 
REMARK   37  A    between atoms: N_81  and  C_107 
REMARK   38  A    between atoms: C_104  and  N_81 
REMARK   39  A    between atoms: O_97  and  C_83 
REMARK   40  A    between atoms: C_110  and  C_100 
REMARK   41  A    between atoms: C_107  and  C_111 
REMARK   42  A    between atoms: C_111  and  C_110 
ROOT
HETATM    1  C   UNK N   1      29.741  13.234   2.230  0.00  0.00     0.180 C 
ENDROOT
BRANCH   1   2
HETATM    2  N   UNK N   1      31.036  12.944   1.646  0.00  0.00    -0.346 N 
HETATM    3  C   UNK N   1      32.206  12.860   2.318  0.00  0.00     0.243 C 
HETATM    4  O   UNK N   1      33.206  12.490   1.726  0.00  0.00    -0.271 OA
HETATM    5  H   UNK N   1      31.067  12.798   0.673  0.00  0.00     0.163 HD
BRANCH   3   6
HETATM    6  C   UNK N   1      32.325  13.315   3.727  0.00  0.00     0.200 C 
BRANCH   6   7
HETATM    7  N   UNK N   1      32.752  12.150   4.439  0.00  0.00    -0.344 N 
HETATM    8  C   UNK N   1      32.035  11.228   5.124  0.00  0.00     0.241 C 
HETATM    9  O   UNK N   1      30.819  11.161   5.028  0.00  0.00    -0.271 OA
HETATM   10  H   UNK N   1      33.724  11.993   4.428  0.00  0.00     0.163 HD
BRANCH   8  11
HETATM   11  C   UNK N   1      32.793  10.311   6.048  0.00  0.00     0.180 C 
BRANCH  11  12
HETATM   12  N   UNK N   1      31.848   9.628   6.915  0.00  0.00    -0.346 N 
HETATM   13  C   UNK N   1      31.962   9.603   8.261  0.00  0.00     0.241 C 
HETATM   14  O   UNK N   1      31.115   9.028   8.927  0.00  0.00    -0.271 OA
HETATM   15  H   UNK N   1      31.087   9.159   6.502  0.00  0.00     0.163 HD
BRANCH  13  16
HETATM   16  C   UNK N   1      33.222  10.083   8.897  0.00  0.00     0.180 C 
BRANCH  16  17
HETATM   17  N   UNK N   1      33.528   9.037   9.829  0.00  0.00    -0.346 N 
HETATM   18  C   UNK N   1      34.697   8.425  10.069  0.00  0.00     0.241 C 
HETATM   19  O   UNK N   1      35.642   8.527   9.300  0.00  0.00    -0.271 OA
HETATM   20  H   UNK N   1      32.770   8.722  10.372  0.00  0.00     0.163 HD
BRANCH  18  21
HETATM   21  C   UNK N   1      34.838   7.744  11.394  0.00  0.00     0.180 C 
BRANCH  21  22
HETATM   22  N   UNK N   1      34.750   6.311  11.231  0.00  0.00    -0.348 N 
HETATM   23  C   UNK N   1      33.579   5.683  10.969  0.00  0.00     0.214 C 
HETATM   24  O   UNK N   1      32.538   6.316  10.862  0.00  0.00    -0.274 OA
HETATM   25  C   UNK N   1      33.557   4.205  10.825  0.00  0.00     0.117 C 
HETATM   26  H   UNK N   1      35.570   5.773  11.314  0.00  0.00     0.163 HD
ENDBRANCH  21  22
BRANCH  21  27
HETATM   27  C   UNK N   1      36.236   8.089  11.948  0.00  0.00     0.073 C 
BRANCH  27  28
HETATM   28  C   UNK N   1      36.431   9.342  12.763  0.00  0.00    -0.055 A 
HETATM   29  C   UNK N   1      35.316   9.846  13.441  0.00  0.00     0.019 A 
HETATM   30  C   UNK N   1      35.425  10.977  14.249  0.00  0.00    -0.025 A 
HETATM   31  C   UNK N   1      34.300  11.475  14.911  0.00  0.00     0.012 A 
HETATM   32  C   UNK N   1      36.674  11.618  14.400  0.00  0.00    -0.026 A 
HETATM   33  C   UNK N   1      34.411  12.606  15.725  0.00  0.00     0.001 A 
HETATM   34  C   UNK N   1      35.650  13.238  15.882  0.00  0.00     0.001 A 
HETATM   35  C   UNK N   1      36.781  12.746  15.220  0.00  0.00     0.012 A 
HETATM   36  C   UNK N   1      37.792  11.119  13.724  0.00  0.00     0.013 A 
HETATM   37  C   UNK N   1      37.669   9.988  12.905  0.00  0.00     0.008 A 
ENDBRANCH  27  28
ENDBRANCH  21  27
ENDBRANCH  18  21
ENDBRANCH  16  17
BRANCH  16  38
HETATM   38  C   UNK N   1      33.091  11.505   9.449  0.00  0.00     0.073 C 
BRANCH  38  39
HETATM   39  C   UNK N   1      34.439  12.142   9.535  0.00  0.00    -0.056 A 
HETATM   40  C   UNK N   1      35.060  12.320  10.777  0.00  0.00     0.009 A 
HETATM   41  C   UNK N   1      36.336  12.887  10.848  0.00  0.00     0.024 A 
HETATM   42  C   UNK N   1      36.995  13.273   9.677  0.00  0.00     0.034 A 
HETATM   43  C   UNK N   1      36.373  13.106   8.437  0.00  0.00     0.024 A 
HETATM   44 Cl   UNK N   1      38.602  13.960   9.768  0.00  0.00    -0.084 Cl
HETATM   45  C   UNK N   1      35.096  12.543   8.366  0.00  0.00     0.009 A 
ENDBRANCH  38  39
ENDBRANCH  16  38
ENDBRANCH  13  16
ENDBRANCH  11  12
BRANCH  11  46
HETATM   46  C   UNK N   1      33.676   9.304   5.273  0.00  0.00     0.074 C 
BRANCH  46  47
HETATM   47  C   UNK N   1      33.198   8.659   3.982  0.00  0.00    -0.040 A 
HETATM   48  C   UNK N   1      33.615   9.073   2.707  0.00  0.00     0.094 A 
HETATM   49  N   UNK N   1      33.119   8.480   1.587  0.00  0.00    -0.375 N 
HETATM   50  C   UNK N   1      32.212   7.473   1.664  0.00  0.00     0.087 A 
ATOM     51  HN  UNK N   1      33.436   8.800   0.672  1.00  0.00     0.164 HD
HETATM   52  C   UNK N   1      31.771   7.023   2.909  0.00  0.00     0.018 A 
HETATM   53  C   UNK N   1      32.266   7.622   4.068  0.00  0.00     0.010 A 
ENDBRANCH  46  47
ENDBRANCH  11  46
ENDBRANCH   8  11
ENDBRANCH   6   7
BRANCH   6  54
HETATM   54  C   UNK N   1      33.154  14.572   3.938  0.00  0.00     0.199 C 
BRANCH  54  55
HETATM   55  O   UNK N   1      33.174  15.309   2.755  0.00  0.00    -0.398 OA
HETATM   56  H   UNK N   1      33.659  16.116   2.519  0.00  0.00     0.209 HD
ENDBRANCH  54  55
ENDBRANCH   6  54
ENDBRANCH   3   6
ENDBRANCH   1   2
BRANCH   1  57
HETATM   57  C   UNK N   1      28.654  12.495   1.513  0.00  0.00     0.241 C 
HETATM   58  N   UNK N   1      27.358  12.534   1.913  0.00  0.00    -0.346 N 
HETATM   59  H   UNK N   1      26.696  12.098   1.330  0.00  0.00     0.163 HD
HETATM   60  O   UNK N   1      28.948  11.842   0.524  0.00  0.00    -0.271 OA
BRANCH  58  61
HETATM   61  C   UNK N   1      26.859  13.166   3.130  0.00  0.00     0.180 C 
BRANCH  61  62
HETATM   62  C   UNK N   1      26.430  12.079   4.038  0.00  0.00     0.241 C 
HETATM   63  N   UNK N   1      25.104  11.801   4.086  0.00  0.00    -0.346 N 
HETATM   64  H   UNK N   1      24.569  11.849   3.260  0.00  0.00     0.163 HD
HETATM   65  O   UNK N   1      27.198  11.628   4.878  0.00  0.00    -0.271 OA
BRANCH  63  66
HETATM   66  C   UNK N   1      24.468  11.435   5.322  0.00  0.00     0.177 C 
BRANCH  66  67
HETATM   67  C   UNK N   1      23.091  10.900   4.901  0.00  0.00     0.241 C 
HETATM   68  N   UNK N   1      22.210  11.571   4.120  0.00  0.00    -0.346 N 
HETATM   69  H   UNK N   1      21.449  11.066   3.750  0.00  0.00     0.163 HD
HETATM   70  O   UNK N   1      22.796   9.768   5.250  0.00  0.00    -0.271 OA
BRANCH  68  71
HETATM   71  C   UNK N   1      22.308  12.966   3.792  0.00  0.00     0.176 C 
BRANCH  71  72
HETATM   72  C   UNK N   1      21.307  13.723   4.660  0.00  0.00     0.243 C 
HETATM   73  N   UNK N   1      21.377  15.059   4.910  0.00  0.00    -0.337 N 
HETATM   74  C   UNK N   1      22.467  15.902   4.517  0.00  0.00     0.179 C 
HETATM   75  C   UNK N   1      20.512  15.665   5.885  0.00  0.00     0.127 C 
HETATM   76  C   UNK N   1      22.740  16.637   5.817  0.00  0.00     0.037 C 
HETATM   77  C   UNK N   1      21.358  16.786   6.472  0.00  0.00     0.022 C 
HETATM   78  O   UNK N   1      20.415  13.074   5.194  0.00  0.00    -0.271 OA
BRANCH  74  79
HETATM   79  C   UNK N   1      22.012  16.944   3.525  0.00  0.00     0.241 C 
HETATM   80  N   UNK N   1      22.462  18.218   3.667  0.00  0.00    -0.346 N 
HETATM   81  H   UNK N   1      23.264  18.370   4.217  0.00  0.00     0.163 HD
HETATM   82  O   UNK N   1      21.167  16.672   2.680  0.00  0.00    -0.271 OA
BRANCH  80  83
HETATM   83  C   UNK N   1      21.824  19.364   3.054  0.00  0.00     0.172 C 
HETATM   84  C   UNK N   1      20.529  19.753   3.762  0.00  0.00     0.042 C 
BRANCH  83  85
HETATM   85  C   UNK N   1      22.837  20.480   2.964  0.00  0.00     0.237 C 
HETATM   86  O   UNK N   1      22.457  21.615   2.721  0.00  0.00    -0.271 OA
HETATM   87  N   UNK N   1      24.156  20.239   3.108  0.00  0.00    -0.368 N 
HETATM   88  H   UNK N   1      25.003  19.737   3.094  0.00  0.00     0.159 HD
HETATM   89  H   UNK N   1      24.469  21.116   3.429  0.00  0.00     0.159 HD
ENDBRANCH  83  85
ENDBRANCH  80  83
ENDBRANCH  74  79
ENDBRANCH  71  72
BRANCH  71  90
HETATM   90  C   UNK N   1      22.235  13.153   2.279  0.00  0.00     0.035 C 
BRANCH  90  91
HETATM   91  C   UNK N   1      21.338  12.107   1.651  0.00  0.00     0.004 C 
BRANCH  91  92
HETATM   92  C   UNK N   1      20.111  12.764   1.063  0.00  0.00     0.019 C 
BRANCH  92  93
HETATM   93  C   UNK N   1      18.872  12.042   1.561  0.00  0.00     0.114 C 
BRANCH  93  94
HETATM   94  N   UNK N   1      19.244  10.951   2.452  0.00  0.00    -0.418 N 
HETATM   95  H   UNK N   1      19.973  10.258   2.282  0.00  0.00     0.153 HD
BRANCH  94  96
HETATM   96  C   UNK N   1      18.389  11.026   3.626  0.00  0.00     0.068 C 
HETATM   97  C   UNK N   1      18.799   9.953   4.608  0.00  0.00     0.031 C 
HETATM   98  C   UNK N   1      16.938  10.822   3.231  0.00  0.00     0.031 C 
ENDBRANCH  94  96
ENDBRANCH  93  94
ENDBRANCH  92  93
ENDBRANCH  91  92
ENDBRANCH  90  91
ENDBRANCH  71  90
ENDBRANCH  68  71
ENDBRANCH  66  67
BRANCH  66  99
HETATM   99  C   UNK N   1      24.531  12.597   6.314  0.00  0.00     0.038 C 
BRANCH  99 100
HETATM  100  C   UNK N   1      23.482  12.443   7.392  0.00  0.00    -0.020 C 
HETATM  101  C   UNK N   1      23.980  11.477   8.447  0.00  0.00     0.009 C 
HETATM  102  C   UNK N   1      23.257  13.799   8.023  0.00  0.00     0.009 C 
ENDBRANCH  99 100
ENDBRANCH  66  99
ENDBRANCH  63  66
ENDBRANCH  61  62
BRANCH  61 103
HETATM  103  C   UNK N   1      25.740  14.161   2.787  0.00  0.00     0.073 C 
BRANCH 103 104
HETATM  104  C   UNK N   1      25.878  15.402   3.603  0.00  0.00    -0.056 A 
HETATM  105  C   UNK N   1      25.980  16.655   2.989  0.00  0.00     0.009 A 
HETATM  106  C   UNK N   1      26.244  17.789   3.754  0.00  0.00     0.030 A 
HETATM  107  C   UNK N   1      26.408  17.679   5.138  0.00  0.00     0.036 A 
HETATM  108  C   UNK N   1      26.312  16.417   5.746  0.00  0.00     0.030 A 
HETATM  109  C   UNK N   1      26.054  15.284   4.980  0.00  0.00     0.009 A 
BRANCH 107 110
HETATM  110  N   UNK N   1      26.676  18.853   5.894  0.00  0.00    -0.309 N 
HETATM  111  C   UNK N   1      27.322  19.955   5.429  0.00  0.00     0.318 C 
HETATM  112  O   UNK N   1      27.790  19.986   4.301  0.00  0.00    -0.247 OA
HETATM  113  N   UNK N   1      27.478  21.020   6.236  0.00  0.00    -0.352 N 
HETATM  114  H   UNK N   1      27.618  21.958   5.973  0.00  0.00     0.160 HD
HETATM  115  H   UNK N   1      27.449  20.839   7.203  0.00  0.00     0.160 HD
HETATM  116  H   UNK N   1      26.370  18.869   6.829  0.00  0.00     0.170 HD
ENDBRANCH 107 110
ENDBRANCH 103 104
ENDBRANCH  61 103
ENDBRANCH  58  61
ENDBRANCH   1  57
BRANCH   1 117
HETATM  117  C   UNK N   1      29.410  14.737   2.274  0.00  0.00     0.073 C 
BRANCH 117 118
HETATM  118  C   UNK N   1      29.540  15.331   3.641  0.00  0.00    -0.056 A 
HETATM  119  C   UNK N   1      29.510  14.553   4.808  0.00  0.00     0.009 A 
HETATM  120  C   UNK N   1      29.716  15.175   6.053  0.00  0.00     0.030 A 
HETATM  121  C   UNK N   1      29.921  16.570   6.117  0.00  0.00     0.034 A 
HETATM  122  C   UNK N   1      29.911  17.316   4.954  0.00  0.00     0.030 A 
HETATM  123  C   UNK N   1      29.747  16.703   3.737  0.00  0.00     0.009 A 
BRANCH 121 124
HETATM  124  N   UNK N   1      30.253  17.273   7.297  0.00  0.00    -0.325 N 
HETATM  125  C   UNK N   1      31.493  17.553   7.755  0.00  0.00     0.245 C 
HETATM  126  O   UNK N   1      31.596  18.302   8.715  0.00  0.00    -0.271 OA
HETATM  127  H   UNK N   1      29.500  17.595   7.843  0.00  0.00     0.169 HD
BRANCH 125 128
HETATM  128  C   UNK N   1      32.745  17.050   7.069  0.00  0.00     0.187 C 
HETATM  129  N   UNK N   1      33.805  18.038   7.177  0.00  0.00    -0.329 N 
HETATM  130  C   UNK N   1      34.518  18.173   8.328  0.00  0.00     0.323 C 
HETATM  131  H   UNK N   1      34.009  18.618   6.408  0.00  0.00     0.165 HD
HETATM  132  O   UNK N   1      35.269  19.120   8.468  0.00  0.00    -0.247 OA
HETATM  133  N   UNK N   1      34.375  17.265   9.331  0.00  0.00    -0.279 N 
HETATM  134  C   UNK N   1      33.677  16.118   9.140  0.00  0.00     0.228 C 
HETATM  135  H   UNK N   1      34.784  17.444  10.209  0.00  0.00     0.173 HD
HETATM  136  C   UNK N   1      33.189  15.762   7.761  0.00  0.00     0.138 C 
HETATM  137  O   UNK N   1      33.458  15.371  10.078  0.00  0.00    -0.273 OA
ENDBRANCH 125 128
ENDBRANCH 121 124
ENDBRANCH 117 118
ENDBRANCH   1 117
TORSDOF 42
ENDMDL
MODEL 8
REMARK VINA RESULT:      -8.1      2.302      4.973
REMARK WARNING: 32 MAX_TORS EXCEEDED!!!
REMARK  42 active torsions:
REMARK  status: ('A' for Active; 'I' for Inactive)
REMARK       I    between atoms: C_3  and  N_1 
REMARK    1  A    between atoms: C_34  and  C_3 
REMARK    2  A    between atoms: C_9  and  C_5 
REMARK       I    between atoms: N_27  and  C_5 
REMARK       I    between atoms: C_8  and  N_20 
REMARK    3  A    between atoms: C_19  and  C_8 
REMARK    4  A    between atoms: C_10  and  C_17 
REMARK       I    between atoms: C_11  and  N_18 
REMARK    5  A    between atoms: C_31  and  C_11 
REMARK       I    between atoms: C_12  and  N_25 
REMARK    6  A    between atoms: C_32  and  C_12 
REMARK       I    between atoms: C_13  and  N_23 
REMARK    7  A    between atoms: C_29  and  C_13 
REMARK       I    between atoms: C_14  and  N_22 
REMARK    8  A    between atoms: C_30  and  C_14 
REMARK       I    between atoms: C_15  and  N_21 
REMARK    9  A    between atoms: C_28  and  C_15 
REMARK       I    between atoms: C_16  and  N_24 
REMARK   10  A    between atoms: C_35  and  C_16 
REMARK       I    between atoms: C_17  and  N_38 
REMARK   11  A    between atoms: C_19  and  N_18 
REMARK   12  A    between atoms: C_19  and  C_83 
REMARK   13  A    between atoms: C_28  and  N_20 
REMARK   14  A    between atoms: C_29  and  N_21 
REMARK   15  A    between atoms: C_31  and  N_22 
REMARK   16  A    between atoms: C_32  and  N_23 
REMARK   17  A    between atoms: C_30  and  N_24 
REMARK   18  A    between atoms: C_34  and  N_25 
REMARK   19  A    between atoms: C_40  and  N_27 
REMARK   20  A    between atoms: C_28  and  C_58 
REMARK   21  A    between atoms: C_29  and  C_57 
REMARK   22  A    between atoms: C_30  and  C_56 
REMARK   23  A    between atoms: C_31  and  C_60 
REMARK   24  A    between atoms: C_32  and  C_64 
REMARK       I    between atoms: C_33  and  N_41 
REMARK       I    between atoms: N_70  and  C_33 
REMARK   25  A    between atoms: C_34  and  C_100 
REMARK   26  A    between atoms: C_35  and  N_37 
REMARK   27  A    between atoms: C_35  and  C_45 
REMARK   28  A    between atoms: C_36  and  C_40 
REMARK       I    between atoms: N_72  and  C_36 
REMARK       I    between atoms: C_39  and  N_37 
REMARK   29  A    between atoms: N_38  and  C_69 
REMARK   30  A    between atoms: N_41  and  C_74 
REMARK   31  A    between atoms: C_59  and  C_45 
REMARK   32  A    between atoms: C_77  and  C_56 
REMARK   33  A    between atoms: C_76  and  C_57 
REMARK   34  A    between atoms: C_75  and  C_58 
REMARK   35  A    between atoms: C_80  and  C_60 
REMARK   36  A    between atoms: C_101  and  C_64 
REMARK   37  A    between atoms: N_81  and  C_107 
REMARK   38  A    between atoms: C_104  and  N_81 
REMARK   39  A    between atoms: O_97  and  C_83 
REMARK   40  A    between atoms: C_110  and  C_100 
REMARK   41  A    between atoms: C_107  and  C_111 
REMARK   42  A    between atoms: C_111  and  C_110 
ROOT
HETATM    1  C   UNK N   1      29.039  13.125   2.268  0.00  0.00     0.180 C 
ENDROOT
BRANCH   1   2
HETATM    2  N   UNK N   1      30.198  12.694   1.512  0.00  0.00    -0.346 N 
HETATM    3  C   UNK N   1      31.471  12.658   1.965  0.00  0.00     0.243 C 
HETATM    4  O   UNK N   1      32.337  12.160   1.267  0.00  0.00    -0.271 OA
HETATM    5  H   UNK N   1      30.046  12.403   0.583  0.00  0.00     0.163 HD
BRANCH   3   6
HETATM    6  C   UNK N   1      31.858  13.312   3.241  0.00  0.00     0.200 C 
BRANCH   6   7
HETATM    7  N   UNK N   1      32.357  12.242   4.049  0.00  0.00    -0.344 N 
HETATM    8  C   UNK N   1      31.723  11.443   4.939  0.00  0.00     0.241 C 
HETATM    9  O   UNK N   1      30.504  11.400   5.006  0.00  0.00    -0.271 OA
HETATM   10  H   UNK N   1      33.318  12.056   3.939  0.00  0.00     0.163 HD
BRANCH   8  11
HETATM   11  C   UNK N   1      32.582  10.637   5.879  0.00  0.00     0.180 C 
BRANCH  11  12
HETATM   12  N   UNK N   1      31.733   9.728   6.631  0.00  0.00    -0.346 N 
HETATM   13  C   UNK N   1      31.895   9.487   7.951  0.00  0.00     0.241 C 
HETATM   14  O   UNK N   1      31.128   8.728   8.522  0.00  0.00    -0.271 OA
HETATM   15  H   UNK N   1      31.006   9.265   6.157  0.00  0.00     0.163 HD
BRANCH  13  16
HETATM   16  C   UNK N   1      33.126   9.972   8.638  0.00  0.00     0.180 C 
BRANCH  16  17
HETATM   17  N   UNK N   1      33.330   8.986   9.660  0.00  0.00    -0.346 N 
HETATM   18  C   UNK N   1      34.477   8.518  10.175  0.00  0.00     0.241 C 
HETATM   19  O   UNK N   1      35.551   8.712   9.625  0.00  0.00    -0.271 OA
HETATM   20  H   UNK N   1      32.509   8.598  10.040  0.00  0.00     0.163 HD
BRANCH  18  21
HETATM   21  C   UNK N   1      34.395   7.885  11.529  0.00  0.00     0.180 C 
BRANCH  21  22
HETATM   22  N   UNK N   1      34.516   6.450  11.417  0.00  0.00    -0.348 N 
HETATM   23  C   UNK N   1      33.479   5.662  11.044  0.00  0.00     0.214 C 
HETATM   24  O   UNK N   1      32.386   6.145  10.787  0.00  0.00    -0.274 OA
HETATM   25  C   UNK N   1      33.671   4.191  10.960  0.00  0.00     0.117 C 
HETATM   26  H   UNK N   1      35.384   6.030  11.619  0.00  0.00     0.163 HD
ENDBRANCH  21  22
BRANCH  21  27
HETATM   27  C   UNK N   1      35.580   8.414  12.362  0.00  0.00     0.073 C 
BRANCH  27  28
HETATM   28  C   UNK N   1      35.320   9.211  13.614  0.00  0.00    -0.055 A 
HETATM   29  C   UNK N   1      36.031   8.850  14.763  0.00  0.00     0.019 A 
HETATM   30  C   UNK N   1      35.877   9.565  15.950  0.00  0.00    -0.025 A 
HETATM   31  C   UNK N   1      36.587   9.185  17.092  0.00  0.00     0.012 A 
HETATM   32  C   UNK N   1      35.007  10.675  15.996  0.00  0.00    -0.026 A 
HETATM   33  C   UNK N   1      36.436   9.906  18.281  0.00  0.00     0.001 A 
HETATM   34  C   UNK N   1      35.579  11.011  18.327  0.00  0.00     0.001 A 
HETATM   35  C   UNK N   1      34.863  11.396  17.186  0.00  0.00     0.012 A 
HETATM   36  C   UNK N   1      34.292  11.041  14.852  0.00  0.00     0.013 A 
HETATM   37  C   UNK N   1      34.445  10.308  13.666  0.00  0.00     0.008 A 
ENDBRANCH  27  28
ENDBRANCH  21  27
ENDBRANCH  18  21
ENDBRANCH  16  17
BRANCH  16  38
HETATM   38  C   UNK N   1      33.010  11.433   9.078  0.00  0.00     0.073 C 
BRANCH  38  39
HETATM   39  C   UNK N   1      34.371  12.020   9.253  0.00  0.00    -0.056 A 
HETATM   40  C   UNK N   1      35.096  12.472   8.143  0.00  0.00     0.009 A 
HETATM   41  C   UNK N   1      36.356  13.051   8.317  0.00  0.00     0.024 A 
HETATM   42  C   UNK N   1      36.893  13.184   9.601  0.00  0.00     0.034 A 
HETATM   43  C   UNK N   1      36.176  12.725  10.710  0.00  0.00     0.024 A 
HETATM   44 Cl   UNK N   1      38.461  13.931   9.817  0.00  0.00    -0.084 Cl
HETATM   45  C   UNK N   1      34.918  12.142  10.536  0.00  0.00     0.009 A 
ENDBRANCH  38  39
ENDBRANCH  16  38
ENDBRANCH  13  16
ENDBRANCH  11  12
BRANCH  11  46
HETATM   46  C   UNK N   1      33.702   9.874   5.133  0.00  0.00     0.074 C 
BRANCH  46  47
HETATM   47  C   UNK N   1      35.169  10.217   5.338  0.00  0.00    -0.040 A 
HETATM   48  C   UNK N   1      35.822  11.264   4.669  0.00  0.00     0.094 A 
HETATM   49  N   UNK N   1      37.148  11.495   4.867  0.00  0.00    -0.375 N 
HETATM   50  C   UNK N   1      37.880  10.728   5.716  0.00  0.00     0.087 A 
ATOM     51  HN  UNK N   1      37.602  12.260   4.367  1.00  0.00     0.164 HD
HETATM   52  C   UNK N   1      37.274   9.679   6.408  0.00  0.00     0.018 A 
HETATM   53  C   UNK N   1      35.915   9.425   6.215  0.00  0.00     0.010 A 
ENDBRANCH  46  47
ENDBRANCH  11  46
ENDBRANCH   8  11
ENDBRANCH   6   7
BRANCH   6  54
HETATM   54  C   UNK N   1      32.760  14.528   3.105  0.00  0.00     0.199 C 
BRANCH  54  55
HETATM   55  O   UNK N   1      33.389  14.768   4.325  0.00  0.00    -0.398 OA
HETATM   56  H   UNK N   1      34.119  15.365   4.554  0.00  0.00     0.209 HD
ENDBRANCH  54  55
ENDBRANCH   6  54
ENDBRANCH   3   6
ENDBRANCH   1   2
BRANCH   1  57
HETATM   57  C   UNK N   1      27.812  12.383   1.835  0.00  0.00     0.241 C 
HETATM   58  N   UNK N   1      26.631  12.478   2.496  0.00  0.00    -0.346 N 
HETATM   59  H   UNK N   1      25.853  12.034   2.089  0.00  0.00     0.163 HD
HETATM   60  O   UNK N   1      27.879  11.677   0.842  0.00  0.00    -0.271 OA
BRANCH  58  61
HETATM   61  C   UNK N   1      26.412  13.181   3.756  0.00  0.00     0.180 C 
BRANCH  61  62
HETATM   62  C   UNK N   1      26.178  12.149   4.792  0.00  0.00     0.241 C 
HETATM   63  N   UNK N   1      24.937  12.085   5.332  0.00  0.00    -0.346 N 
HETATM   64  H   UNK N   1      24.151  12.244   4.760  0.00  0.00     0.163 HD
HETATM   65  O   UNK N   1      27.119  11.556   5.304  0.00  0.00    -0.271 OA
BRANCH  63  66
HETATM   66  C   UNK N   1      24.749  11.790   6.726  0.00  0.00     0.177 C 
BRANCH  66  67
HETATM   67  C   UNK N   1      23.657  10.710   6.746  0.00  0.00     0.241 C 
HETATM   68  N   UNK N   1      22.557  10.714   5.956  0.00  0.00    -0.346 N 
HETATM   69  H   UNK N   1      22.025   9.886   5.907  0.00  0.00     0.163 HD
HETATM   70  O   UNK N   1      23.823   9.754   7.488  0.00  0.00    -0.271 OA
BRANCH  68  71
HETATM   71  C   UNK N   1      22.110  11.840   5.184  0.00  0.00     0.176 C 
BRANCH  71  72
HETATM   72  C   UNK N   1      21.229  12.704   6.082  0.00  0.00     0.243 C 
HETATM   73  N   UNK N   1      21.045  14.040   5.904  0.00  0.00    -0.337 N 
HETATM   74  C   UNK N   1      21.757  14.838   4.951  0.00  0.00     0.179 C 
HETATM   75  C   UNK N   1      20.356  14.820   6.896  0.00  0.00     0.127 C 
HETATM   76  C   UNK N   1      22.187  16.006   5.821  0.00  0.00     0.037 C 
HETATM   77  C   UNK N   1      21.038  16.179   6.826  0.00  0.00     0.022 C 
HETATM   78  O   UNK N   1      20.694  12.162   7.042  0.00  0.00    -0.271 OA
BRANCH  74  79
HETATM   79  C   UNK N   1      20.818  15.404   3.913  0.00  0.00     0.241 C 
HETATM   80  N   UNK N   1      21.120  16.600   3.345  0.00  0.00    -0.346 N 
HETATM   81  H   UNK N   1      22.048  16.925   3.408  0.00  0.00     0.163 HD
HETATM   82  O   UNK N   1      19.751  14.851   3.672  0.00  0.00    -0.271 OA
BRANCH  80  83
HETATM   83  C   UNK N   1      20.152  17.425   2.653  0.00  0.00     0.172 C 
HETATM   84  C   UNK N   1      20.190  18.877   3.122  0.00  0.00     0.042 C 
BRANCH  83  85
HETATM   85  C   UNK N   1      20.354  17.250   1.168  0.00  0.00     0.237 C 
HETATM   86  O   UNK N   1      20.661  16.152   0.731  0.00  0.00    -0.271 OA
HETATM   87  N   UNK N   1      20.242  18.293   0.320  0.00  0.00    -0.368 N 
HETATM   88  H   UNK N   1      20.253  19.228   0.011  0.00  0.00     0.159 HD
HETATM   89  H   UNK N   1      19.994  17.827  -0.512  0.00  0.00     0.159 HD
ENDBRANCH  83  85
ENDBRANCH  80  83
ENDBRANCH  74  79
ENDBRANCH  71  72
BRANCH  71  90
HETATM   90  C   UNK N   1      21.534  11.365   3.853  0.00  0.00     0.035 C 
BRANCH  90  91
HETATM   91  C   UNK N   1      20.676  10.133   4.048  0.00  0.00     0.004 C 
BRANCH  91  92
HETATM   92  C   UNK N   1      19.328  10.332   3.395  0.00  0.00     0.019 C 
BRANCH  92  93
HETATM   93  C   UNK N   1      19.372  11.579   2.529  0.00  0.00     0.114 C 
BRANCH  93  94
HETATM   94  N   UNK N   1      18.617  11.370   1.301  0.00  0.00    -0.418 N 
HETATM   95  H   UNK N   1      17.877  10.683   1.160  0.00  0.00     0.153 HD
BRANCH  94  96
HETATM   96  C   UNK N   1      19.109  12.316   0.313  0.00  0.00     0.068 C 
HETATM   97  C   UNK N   1      20.547  12.658   0.625  0.00  0.00     0.031 C 
HETATM   98  C   UNK N   1      18.272  13.581   0.338  0.00  0.00     0.031 C 
ENDBRANCH  94  96
ENDBRANCH  93  94
ENDBRANCH  92  93
ENDBRANCH  91  92
ENDBRANCH  90  91
ENDBRANCH  71  90
ENDBRANCH  68  71
ENDBRANCH  66  67
BRANCH  66  99
HETATM   99  C   UNK N   1      24.520  13.079   7.515  0.00  0.00     0.038 C 
BRANCH  99 100
HETATM  100  C   UNK N   1      24.216  12.777   8.965  0.00  0.00    -0.020 C 
HETATM  101  C   UNK N   1      25.290  13.382   9.845  0.00  0.00     0.009 C 
HETATM  102  C   UNK N   1      22.881  13.405   9.304  0.00  0.00     0.009 C 
ENDBRANCH  99 100
ENDBRANCH  66  99
ENDBRANCH  63  66
ENDBRANCH  61  62
BRANCH  61 103
HETATM  103  C   UNK N   1      25.255  14.179   3.609  0.00  0.00     0.073 C 
BRANCH 103 104
HETATM  104  C   UNK N   1      25.696  15.549   4.002  0.00  0.00    -0.056 A 
HETATM  105  C   UNK N   1      25.972  15.856   5.339  0.00  0.00     0.009 A 
HETATM  106  C   UNK N   1      26.250  17.170   5.711  0.00  0.00     0.030 A 
HETATM  107  C   UNK N   1      26.256  18.185   4.750  0.00  0.00     0.036 A 
HETATM  108  C   UNK N   1      25.971  17.869   3.412  0.00  0.00     0.030 A 
HETATM  109  C   UNK N   1      25.687  16.559   3.043  0.00  0.00     0.009 A 
BRANCH 107 110
HETATM  110  N   UNK N   1      26.543  19.516   5.158  0.00  0.00    -0.309 N 
HETATM  111  C   UNK N   1      27.354  19.862   6.193  0.00  0.00     0.318 C 
HETATM  112  O   UNK N   1      27.860  19.013   6.912  0.00  0.00    -0.247 OA
HETATM  113  N   UNK N   1      27.578  21.163   6.453  0.00  0.00    -0.352 N 
HETATM  114  H   UNK N   1      28.346  21.558   6.923  0.00  0.00     0.160 HD
HETATM  115  H   UNK N   1      26.892  21.792   6.135  0.00  0.00     0.160 HD
HETATM  116  H   UNK N   1      26.123  20.247   4.650  0.00  0.00     0.170 HD
ENDBRANCH 107 110
ENDBRANCH 103 104
ENDBRANCH  61 103
ENDBRANCH  58  61
ENDBRANCH   1  57
BRANCH   1 117
HETATM  117  C   UNK N   1      28.787  14.641   2.194  0.00  0.00     0.073 C 
BRANCH 117 118
HETATM  118  C   UNK N   1      29.267  15.381   3.403  0.00  0.00    -0.056 A 
HETATM  119  C   UNK N   1      29.594  16.745   3.372  0.00  0.00     0.009 A 
HETATM  120  C   UNK N   1      29.964  17.389   4.568  0.00  0.00     0.030 A 
HETATM  121  C   UNK N   1      30.029  16.654   5.771  0.00  0.00     0.034 A 
HETATM  122  C   UNK N   1      29.735  15.305   5.765  0.00  0.00     0.030 A 
HETATM  123  C   UNK N   1      29.339  14.685   4.605  0.00  0.00     0.009 A 
BRANCH 121 124
HETATM  124  N   UNK N   1      30.273  17.225   7.041  0.00  0.00    -0.325 N 
HETATM  125  C   UNK N   1      31.474  17.418   7.628  0.00  0.00     0.245 C 
HETATM  126  O   UNK N   1      31.512  18.063   8.665  0.00  0.00    -0.271 OA
HETATM  127  H   UNK N   1      29.483  17.513   7.552  0.00  0.00     0.169 HD
BRANCH 125 128
HETATM  128  C   UNK N   1      32.770  16.948   7.000  0.00  0.00     0.187 C 
HETATM  129  N   UNK N   1      33.792  17.971   7.139  0.00  0.00    -0.329 N 
HETATM  130  C   UNK N   1      34.452  18.142   8.318  0.00  0.00     0.323 C 
HETATM  131  H   UNK N   1      34.010  18.548   6.372  0.00  0.00     0.165 HD
HETATM  132  O   UNK N   1      35.165  19.114   8.476  0.00  0.00    -0.247 OA
HETATM  133  N   UNK N   1      34.296  17.242   9.325  0.00  0.00    -0.279 N 
HETATM  134  C   UNK N   1      33.643  16.070   9.121  0.00  0.00     0.228 C 
HETATM  135  H   UNK N   1      34.662  17.443  10.217  0.00  0.00     0.173 HD
HETATM  136  C   UNK N   1      33.225  15.683   7.727  0.00  0.00     0.138 C 
HETATM  137  O   UNK N   1      33.409  15.328  10.058  0.00  0.00    -0.273 OA
ENDBRANCH 125 128
ENDBRANCH 121 124
ENDBRANCH 117 118
ENDBRANCH   1 117
TORSDOF 42
ENDMDL
MODEL 9
REMARK VINA RESULT:      -8.0      3.628     12.969
REMARK WARNING: 32 MAX_TORS EXCEEDED!!!
REMARK  42 active torsions:
REMARK  status: ('A' for Active; 'I' for Inactive)
REMARK       I    between atoms: C_3  and  N_1 
REMARK    1  A    between atoms: C_34  and  C_3 
REMARK    2  A    between atoms: C_9  and  C_5 
REMARK       I    between atoms: N_27  and  C_5 
REMARK       I    between atoms: C_8  and  N_20 
REMARK    3  A    between atoms: C_19  and  C_8 
REMARK    4  A    between atoms: C_10  and  C_17 
REMARK       I    between atoms: C_11  and  N_18 
REMARK    5  A    between atoms: C_31  and  C_11 
REMARK       I    between atoms: C_12  and  N_25 
REMARK    6  A    between atoms: C_32  and  C_12 
REMARK       I    between atoms: C_13  and  N_23 
REMARK    7  A    between atoms: C_29  and  C_13 
REMARK       I    between atoms: C_14  and  N_22 
REMARK    8  A    between atoms: C_30  and  C_14 
REMARK       I    between atoms: C_15  and  N_21 
REMARK    9  A    between atoms: C_28  and  C_15 
REMARK       I    between atoms: C_16  and  N_24 
REMARK   10  A    between atoms: C_35  and  C_16 
REMARK       I    between atoms: C_17  and  N_38 
REMARK   11  A    between atoms: C_19  and  N_18 
REMARK   12  A    between atoms: C_19  and  C_83 
REMARK   13  A    between atoms: C_28  and  N_20 
REMARK   14  A    between atoms: C_29  and  N_21 
REMARK   15  A    between atoms: C_31  and  N_22 
REMARK   16  A    between atoms: C_32  and  N_23 
REMARK   17  A    between atoms: C_30  and  N_24 
REMARK   18  A    between atoms: C_34  and  N_25 
REMARK   19  A    between atoms: C_40  and  N_27 
REMARK   20  A    between atoms: C_28  and  C_58 
REMARK   21  A    between atoms: C_29  and  C_57 
REMARK   22  A    between atoms: C_30  and  C_56 
REMARK   23  A    between atoms: C_31  and  C_60 
REMARK   24  A    between atoms: C_32  and  C_64 
REMARK       I    between atoms: C_33  and  N_41 
REMARK       I    between atoms: N_70  and  C_33 
REMARK   25  A    between atoms: C_34  and  C_100 
REMARK   26  A    between atoms: C_35  and  N_37 
REMARK   27  A    between atoms: C_35  and  C_45 
REMARK   28  A    between atoms: C_36  and  C_40 
REMARK       I    between atoms: N_72  and  C_36 
REMARK       I    between atoms: C_39  and  N_37 
REMARK   29  A    between atoms: N_38  and  C_69 
REMARK   30  A    between atoms: N_41  and  C_74 
REMARK   31  A    between atoms: C_59  and  C_45 
REMARK   32  A    between atoms: C_77  and  C_56 
REMARK   33  A    between atoms: C_76  and  C_57 
REMARK   34  A    between atoms: C_75  and  C_58 
REMARK   35  A    between atoms: C_80  and  C_60 
REMARK   36  A    between atoms: C_101  and  C_64 
REMARK   37  A    between atoms: N_81  and  C_107 
REMARK   38  A    between atoms: C_104  and  N_81 
REMARK   39  A    between atoms: O_97  and  C_83 
REMARK   40  A    between atoms: C_110  and  C_100 
REMARK   41  A    between atoms: C_107  and  C_111 
REMARK   42  A    between atoms: C_111  and  C_110 
ROOT
HETATM    1  C   UNK N   1      29.544  17.276   6.333  0.00  0.00     0.180 C 
ENDROOT
BRANCH   1   2
HETATM    2  N   UNK N   1      28.227  16.678   6.432  0.00  0.00    -0.346 N 
HETATM    3  C   UNK N   1      27.925  15.384   6.188  0.00  0.00     0.243 C 
HETATM    4  O   UNK N   1      26.799  14.981   6.427  0.00  0.00    -0.271 OA
HETATM    5  H   UNK N   1      27.485  17.268   6.700  0.00  0.00     0.163 HD
BRANCH   3   6
HETATM    6  C   UNK N   1      28.896  14.471   5.532  0.00  0.00     0.200 C 
BRANCH   6   7
HETATM    7  N   UNK N   1      28.324  14.210   4.248  0.00  0.00    -0.344 N 
HETATM    8  C   UNK N   1      27.685  13.113   3.777  0.00  0.00     0.241 C 
HETATM    9  O   UNK N   1      27.306  12.223   4.523  0.00  0.00    -0.271 OA
HETATM   10  H   UNK N   1      28.406  14.949   3.602  0.00  0.00     0.163 HD
BRANCH   8  11
HETATM   11  C   UNK N   1      27.499  13.009   2.286  0.00  0.00     0.180 C 
BRANCH  11  12
HETATM   12  N   UNK N   1      26.699  14.134   1.831  0.00  0.00    -0.346 N 
HETATM   13  C   UNK N   1      25.350  14.103   1.762  0.00  0.00     0.241 C 
HETATM   14  O   UNK N   1      24.743  15.095   1.393  0.00  0.00    -0.271 OA
HETATM   15  H   UNK N   1      27.162  14.959   1.559  0.00  0.00     0.163 HD
BRANCH  13  16
HETATM   16  C   UNK N   1      24.639  12.802   1.926  0.00  0.00     0.180 C 
BRANCH  16  17
HETATM   17  N   UNK N   1      24.354  12.771   3.332  0.00  0.00    -0.346 N 
HETATM   18  C   UNK N   1      23.208  13.043   3.975  0.00  0.00     0.241 C 
HETATM   19  O   UNK N   1      22.286  13.621   3.420  0.00  0.00    -0.271 OA
HETATM   20  H   UNK N   1      25.108  12.511   3.909  0.00  0.00     0.163 HD
BRANCH  18  21
HETATM   21  C   UNK N   1      23.057  12.466   5.348  0.00  0.00     0.180 C 
BRANCH  21  22
HETATM   22  N   UNK N   1      23.957  11.350   5.522  0.00  0.00    -0.348 N 
HETATM   23  C   UNK N   1      23.524  10.122   5.896  0.00  0.00     0.214 C 
HETATM   24  O   UNK N   1      22.338   9.912   6.105  0.00  0.00    -0.274 OA
HETATM   25  C   UNK N   1      24.506   9.021   6.068  0.00  0.00     0.117 C 
HETATM   26  H   UNK N   1      24.919  11.487   5.364  0.00  0.00     0.163 HD
ENDBRANCH  21  22
BRANCH  21  27
HETATM   27  C   UNK N   1      23.438  13.567   6.359  0.00  0.00     0.073 C 
BRANCH  27  28
HETATM   28  C   UNK N   1      23.601  13.222   7.817  0.00  0.00    -0.055 A 
HETATM   29  C   UNK N   1      22.438  12.945   8.544  0.00  0.00     0.019 A 
HETATM   30  C   UNK N   1      22.509  12.578   9.888  0.00  0.00    -0.025 A 
HETATM   31  C   UNK N   1      21.338  12.315  10.603  0.00  0.00     0.012 A 
HETATM   32  C   UNK N   1      23.765  12.468  10.523  0.00  0.00    -0.026 A 
HETATM   33  C   UNK N   1      21.411  11.942  11.949  0.00  0.00     0.001 A 
HETATM   34  C   UNK N   1      22.655  11.825  12.579  0.00  0.00     0.001 A 
HETATM   35  C   UNK N   1      23.832  12.089  11.868  0.00  0.00     0.012 A 
HETATM   36  C   UNK N   1      24.931  12.745   9.802  0.00  0.00     0.013 A 
HETATM   37  C   UNK N   1      24.848  13.124   8.455  0.00  0.00     0.008 A 
ENDBRANCH  27  28
ENDBRANCH  21  27
ENDBRANCH  18  21
ENDBRANCH  16  17
BRANCH  16  38
HETATM   38  C   UNK N   1      25.427  11.629   1.339  0.00  0.00     0.073 C 
BRANCH  38  39
HETATM   39  C   UNK N   1      24.510  10.737   0.569  0.00  0.00    -0.056 A 
HETATM   40  C   UNK N   1      24.977   9.528   0.039  0.00  0.00     0.009 A 
HETATM   41  C   UNK N   1      24.106   8.682  -0.652  0.00  0.00     0.024 A 
HETATM   42  C   UNK N   1      22.764   9.040  -0.811  0.00  0.00     0.034 A 
HETATM   43  C   UNK N   1      22.297  10.251  -0.292  0.00  0.00     0.024 A 
HETATM   44 Cl   UNK N   1      21.670   7.966  -1.656  0.00  0.00    -0.084 Cl
HETATM   45  C   UNK N   1      23.169  11.099   0.395  0.00  0.00     0.009 A 
ENDBRANCH  38  39
ENDBRANCH  16  38
ENDBRANCH  13  16
ENDBRANCH  11  12
BRANCH  11  46
HETATM   46  C   UNK N   1      28.849  12.937   1.534  0.00  0.00     0.074 C 
BRANCH  46  47
HETATM   47  C   UNK N   1      29.165  11.801   0.576  0.00  0.00    -0.040 A 
HETATM   48  C   UNK N   1      28.734  10.479   0.771  0.00  0.00     0.094 A 
HETATM   49  N   UNK N   1      29.084   9.497  -0.104  0.00  0.00    -0.375 N 
HETATM   50  C   UNK N   1      29.856   9.761  -1.190  0.00  0.00     0.087 A 
ATOM     51  HN  UNK N   1      28.761   8.544   0.060  1.00  0.00     0.164 HD
HETATM   52  C   UNK N   1      30.304  11.060  -1.429  0.00  0.00     0.018 A 
HETATM   53  C   UNK N   1      29.957  12.079  -0.540  0.00  0.00     0.010 A 
ENDBRANCH  46  47
ENDBRANCH  11  46
ENDBRANCH   8  11
ENDBRANCH   6   7
BRANCH   6  54
HETATM   54  C   UNK N   1      30.342  14.942   5.541  0.00  0.00     0.199 C 
BRANCH  54  55
HETATM   55  O   UNK N   1      31.172  13.858   5.820  0.00  0.00    -0.398 OA
HETATM   56  H   UNK N   1      31.953  13.521   5.353  0.00  0.00     0.209 HD
ENDBRANCH  54  55
ENDBRANCH   6  54
ENDBRANCH   3   6
ENDBRANCH   1   2
BRANCH   1  57
HETATM   57  C   UNK N   1      29.944  17.908   7.630  0.00  0.00     0.241 C 
HETATM   58  N   UNK N   1      31.156  17.697   8.201  0.00  0.00    -0.346 N 
HETATM   59  H   UNK N   1      31.372  18.226   9.003  0.00  0.00     0.163 HD
HETATM   60  O   UNK N   1      29.149  18.649   8.186  0.00  0.00    -0.271 OA
BRANCH  58  61
HETATM   61  C   UNK N   1      32.169  16.757   7.732  0.00  0.00     0.180 C 
BRANCH  61  62
HETATM   62  C   UNK N   1      32.707  16.068   8.927  0.00  0.00     0.241 C 
HETATM   63  N   UNK N   1      34.046  16.135   9.129  0.00  0.00    -0.346 N 
HETATM   64  H   UNK N   1      34.527  16.967   8.913  0.00  0.00     0.163 HD
HETATM   65  O   UNK N   1      32.014  15.278   9.556  0.00  0.00    -0.271 OA
BRANCH  63  66
HETATM   66  C   UNK N   1      34.773  15.012   9.655  0.00  0.00     0.177 C 
BRANCH  66  67
HETATM   67  C   UNK N   1      35.861  15.640  10.539  0.00  0.00     0.241 C 
HETATM   68  N   UNK N   1      36.733  14.938  11.303  0.00  0.00    -0.346 N 
HETATM   69  H   UNK N   1      37.508  15.419  11.673  0.00  0.00     0.163 HD
HETATM   70  O   UNK N   1      35.983  16.855  10.506  0.00  0.00    -0.271 OA
BRANCH  68  71
HETATM   71  C   UNK N   1      36.606  13.540  11.610  0.00  0.00     0.176 C 
BRANCH  71  72
HETATM   72  C   UNK N   1      36.041  13.420  13.023  0.00  0.00     0.243 C 
HETATM   73  N   UNK N   1      35.573  12.259  13.556  0.00  0.00    -0.337 N 
HETATM   74  C   UNK N   1      35.411  11.037  12.826  0.00  0.00     0.179 C 
HETATM   75  C   UNK N   1      34.885  12.261  14.818  0.00  0.00     0.127 C 
HETATM   76  C   UNK N   1      33.999  10.649  13.227  0.00  0.00     0.037 C 
HETATM   77  C   UNK N   1      33.864  11.142  14.676  0.00  0.00     0.022 C 
HETATM   78  O   UNK N   1      35.971  14.443  13.694  0.00  0.00    -0.271 OA
BRANCH  74  79
HETATM   79  C   UNK N   1      36.319   9.961  13.368  0.00  0.00     0.241 C 
HETATM   80  N   UNK N   1      35.822   8.707  13.524  0.00  0.00    -0.346 N 
HETATM   81  H   UNK N   1      35.002   8.467  13.034  0.00  0.00     0.163 HD
HETATM   82  O   UNK N   1      37.445  10.239  13.766  0.00  0.00    -0.271 OA
BRANCH  80  83
HETATM   83  C   UNK N   1      36.432   7.704  14.372  0.00  0.00     0.172 C 
HETATM   84  C   UNK N   1      35.786   7.645  15.753  0.00  0.00     0.042 C 
BRANCH  83  85
HETATM   85  C   UNK N   1      36.425   6.388  13.632  0.00  0.00     0.237 C 
HETATM   86  O   UNK N   1      37.377   6.095  12.925  0.00  0.00    -0.271 OA
HETATM   87  N   UNK N   1      35.371   5.551  13.705  0.00  0.00    -0.368 N 
HETATM   88  H   UNK N   1      34.437   5.261  13.825  0.00  0.00     0.159 HD
HETATM   89  H   UNK N   1      35.809   4.688  13.524  0.00  0.00     0.159 HD
ENDBRANCH  83  85
ENDBRANCH  80  83
ENDBRANCH  74  79
ENDBRANCH  71  72
BRANCH  71  90
HETATM   90  C   UNK N   1      37.911  12.816  11.292  0.00  0.00     0.035 C 
BRANCH  90  91
HETATM   91  C   UNK N   1      38.258  12.954   9.825  0.00  0.00     0.004 C 
BRANCH  91  92
HETATM   92  C   UNK N   1      37.898  11.687   9.086  0.00  0.00     0.019 C 
BRANCH  92  93
HETATM   93  C   UNK N   1      38.341  11.809   7.639  0.00  0.00     0.114 C 
BRANCH  93  94
HETATM   94  N   UNK N   1      38.652  13.196   7.320  0.00  0.00    -0.418 N 
HETATM   95  H   UNK N   1      39.279  13.808   7.842  0.00  0.00     0.153 HD
BRANCH  94  96
HETATM   96  C   UNK N   1      37.908  13.553   6.123  0.00  0.00     0.068 C 
HETATM   97  C   UNK N   1      37.741  12.326   5.258  0.00  0.00     0.031 C 
HETATM   98  C   UNK N   1      38.650  14.624   5.345  0.00  0.00     0.031 C 
ENDBRANCH  94  96
ENDBRANCH  93  94
ENDBRANCH  92  93
ENDBRANCH  91  92
ENDBRANCH  90  91
ENDBRANCH  71  90
ENDBRANCH  68  71
ENDBRANCH  66  67
BRANCH  66  99
HETATM   99  C   UNK N   1      35.198  14.079   8.521  0.00  0.00     0.038 C 
BRANCH  99 100
HETATM  100  C   UNK N   1      34.170  12.993   8.303  0.00  0.00    -0.020 C 
HETATM  101  C   UNK N   1      34.573  12.144   7.115  0.00  0.00     0.009 C 
HETATM  102  C   UNK N   1      34.132  12.128   9.544  0.00  0.00     0.009 C 
ENDBRANCH  99 100
ENDBRANCH  66  99
ENDBRANCH  63  66
ENDBRANCH  61  62
BRANCH  61 103
HETATM  103  C   UNK N   1      33.237  17.497   6.914  0.00  0.00     0.073 C 
BRANCH 103 104
HETATM  104  C   UNK N   1      33.499  16.782   5.631  0.00  0.00    -0.056 A 
HETATM  105  C   UNK N   1      32.877  17.188   4.446  0.00  0.00     0.009 A 
HETATM  106  C   UNK N   1      33.023  16.431   3.284  0.00  0.00     0.030 A 
HETATM  107  C   UNK N   1      33.792  15.265   3.300  0.00  0.00     0.036 A 
HETATM  108  C   UNK N   1      34.407  14.860   4.496  0.00  0.00     0.030 A 
HETATM  109  C   UNK N   1      34.255  15.613   5.656  0.00  0.00     0.009 A 
BRANCH 107 110
HETATM  110  N   UNK N   1      33.924  14.512   2.101  0.00  0.00    -0.309 N 
HETATM  111  C   UNK N   1      33.207  13.401   1.790  0.00  0.00     0.318 C 
HETATM  112  O   UNK N   1      32.412  12.917   2.581  0.00  0.00    -0.247 OA
HETATM  113  N   UNK N   1      33.400  12.801   0.601  0.00  0.00    -0.352 N 
HETATM  114  H   UNK N   1      32.772  12.221   0.112  0.00  0.00     0.160 HD
HETATM  115  H   UNK N   1      34.270  12.961   0.170  0.00  0.00     0.160 HD
HETATM  116  H   UNK N   1      34.588  14.822   1.444  0.00  0.00     0.170 HD
ENDBRANCH 107 110
ENDBRANCH 103 104
ENDBRANCH  61 103
ENDBRANCH  58  61
ENDBRANCH   1  57
BRANCH   1 117
HETATM  117  C   UNK N   1      29.668  18.301   5.192  0.00  0.00     0.073 C 
BRANCH 117 118
HETATM  118  C   UNK N   1      28.350  18.686   4.597  0.00  0.00    -0.056 A 
HETATM  119  C   UNK N   1      27.662  17.864   3.691  0.00  0.00     0.009 A 
HETATM  120  C   UNK N   1      26.392  18.259   3.234  0.00  0.00     0.030 A 
HETATM  121  C   UNK N   1      25.838  19.484   3.666  0.00  0.00     0.034 A 
HETATM  122  C   UNK N   1      26.554  20.289   4.531  0.00  0.00     0.030 A 
HETATM  123  C   UNK N   1      27.777  19.886   5.005  0.00  0.00     0.009 A 
BRANCH 121 124
HETATM  124  N   UNK N   1      24.528  19.917   3.363  0.00  0.00    -0.325 N 
HETATM  125  C   UNK N   1      23.371  19.306   3.698  0.00  0.00     0.245 C 
HETATM  126  O   UNK N   1      22.324  19.897   3.485  0.00  0.00    -0.271 OA
HETATM  127  H   UNK N   1      24.449  20.755   2.853  0.00  0.00     0.169 HD
BRANCH 125 128
HETATM  128  C   UNK N   1      23.336  17.967   4.407  0.00  0.00     0.187 C 
HETATM  129  N   UNK N   1      22.847  18.135   5.765  0.00  0.00    -0.329 N 
HETATM  130  C   UNK N   1      21.516  18.276   6.014  0.00  0.00     0.323 C 
HETATM  131  H   UNK N   1      23.486  18.147   6.514  0.00  0.00     0.165 HD
HETATM  132  O   UNK N   1      21.140  18.599   7.125  0.00  0.00    -0.247 OA
HETATM  133  N   UNK N   1      20.610  18.080   5.020  0.00  0.00    -0.279 N 
HETATM  134  C   UNK N   1      20.985  17.562   3.824  0.00  0.00     0.228 C 
HETATM  135  H   UNK N   1      19.666  18.320   5.170  0.00  0.00     0.173 HD
HETATM  136  C   UNK N   1      22.387  17.044   3.643  0.00  0.00     0.138 C 
HETATM  137  O   UNK N   1      20.188  17.502   2.905  0.00  0.00    -0.273 OA
ENDBRANCH 125 128
ENDBRANCH 121 124
ENDBRANCH 117 118
ENDBRANCH   1 117
TORSDOF 42
ENDMDL
