MODEL 1
REMARK VINA RESULT:      -5.9      0.000      0.000
REMARK  7 active torsions:
REMARK  status: ('A' for Active; 'I' for Inactive)
REMARK    1  A    between atoms: C_8  and  N_1 
REMARK    2  A    between atoms: N_1  and  C_9 
REMARK    3  A    between atoms: N_1  and  C_11 
REMARK    4  A    between atoms: C_3  and  O_18 
REMARK    5  A    between atoms: C_6  and  C_8 
REMARK    6  A    between atoms: C_9  and  C_10 
REMARK    7  A    between atoms: C_10  and  N_15 
ROOT
HETATM    1  N   UNK N   1      32.529  17.099   8.034  0.00  0.00    -0.361 N 
ENDROOT
BRANCH   1   2
HETATM    2  C   UNK N   1      33.332  17.763   7.015  0.00  0.00     0.162 C 
BRANCH   2   3
HETATM    3  C   UNK N   1      33.444  17.069   5.677  0.00  0.00    -0.040 A 
HETATM    4  C   UNK N   1      32.833  17.559   4.515  0.00  0.00     0.011 A 
HETATM    5  C   UNK N   1      32.869  16.829   3.327  0.00  0.00     0.037 A 
HETATM    6  C   UNK N   1      33.530  15.592   3.280  0.00  0.00     0.068 A 
HETATM    7  C   UNK N   1      34.175  15.118   4.427  0.00  0.00     0.037 A 
HETATM    8  C   UNK N   1      34.127  15.849   5.619  0.00  0.00     0.011 A 
BRANCH   6   9
HETATM    9  O   UNK N   1      33.543  14.838   2.155  0.00  0.00    -0.356 OA
HETATM   10  C   UNK N   1      33.394  13.469   2.166  0.00  0.00     0.210 C 
ENDBRANCH   6   9
ENDBRANCH   2   3
ENDBRANCH   1   2
BRANCH   1  11
HETATM   11  C   UNK N   1      33.166  16.244   9.018  0.00  0.00     0.155 C 
BRANCH  11  12
HETATM   12  C   UNK N   1      34.532  16.827   9.411  0.00  0.00     0.291 C 
BRANCH  12  13
HETATM   13  N   UNK N   1      35.576  15.817   9.614  0.00  0.00     0.081 N 
HETATM   14  C   UNK N   1      35.055  14.497   9.304  0.00  0.00     0.309 C 
HETATM   15  C   UNK N   1      36.051  15.818  10.991  0.00  0.00     0.309 C 
ENDBRANCH  12  13
ENDBRANCH  11  12
ENDBRANCH   1  11
BRANCH   1  16
HETATM   16  C   UNK N   1      31.178  17.530   8.227  0.00  0.00     0.103 A 
HETATM   17  C   UNK N   1      30.193  17.255   7.261  0.00  0.00     0.048 A 
HETATM   18  C   UNK N   1      28.872  17.641   7.492  0.00  0.00     0.005 A 
HETATM   19  C   UNK N   1      28.539  18.296   8.676  0.00  0.00     0.017 A 
HETATM   20  C   UNK N   1      29.537  18.559   9.615  0.00  0.00     0.089 A 
HETATM   21  N   UNK N   1      30.820  18.172   9.376  0.00  0.00    -0.352 N 
ATOM     22  HN  UNK N   1      31.534  18.367  10.077  1.00  0.00     0.166 HD
ENDBRANCH   1  16
TORSDOF 7
ENDMDL
MODEL 2
REMARK VINA RESULT:      -5.8     12.826     15.561
REMARK  7 active torsions:
REMARK  status: ('A' for Active; 'I' for Inactive)
REMARK    1  A    between atoms: C_8  and  N_1 
REMARK    2  A    between atoms: N_1  and  C_9 
REMARK    3  A    between atoms: N_1  and  C_11 
REMARK    4  A    between atoms: C_3  and  O_18 
REMARK    5  A    between atoms: C_6  and  C_8 
REMARK    6  A    between atoms: C_9  and  C_10 
REMARK    7  A    between atoms: C_10  and  N_15 
ROOT
HETATM    1  N   UNK N   1      26.855  23.717  -5.584  0.00  0.00    -0.361 N 
ENDROOT
BRANCH   1   2
HETATM    2  C   UNK N   1      28.256  24.122  -5.600  0.00  0.00     0.162 C 
BRANCH   2   3
HETATM    3  C   UNK N   1      29.180  23.418  -4.633  0.00  0.00    -0.040 A 
HETATM    4  C   UNK N   1      29.195  23.695  -3.260  0.00  0.00     0.011 A 
HETATM    5  C   UNK N   1      30.140  23.103  -2.421  0.00  0.00     0.037 A 
HETATM    6  C   UNK N   1      31.085  22.208  -2.946  0.00  0.00     0.068 A 
HETATM    7  C   UNK N   1      31.048  21.898  -4.309  0.00  0.00     0.037 A 
HETATM    8  C   UNK N   1      30.106  22.504  -5.148  0.00  0.00     0.011 A 
BRANCH   6   9
HETATM    9  O   UNK N   1      32.044  21.652  -2.167  0.00  0.00    -0.356 OA
HETATM   10  C   UNK N   1      33.185  21.075  -2.677  0.00  0.00     0.210 C 
ENDBRANCH   6   9
ENDBRANCH   2   3
ENDBRANCH   1   2
BRANCH   1  11
HETATM   11  C   UNK N   1      25.890  24.474  -4.810  0.00  0.00     0.155 C 
BRANCH  11  12
HETATM   12  C   UNK N   1      25.745  25.889  -5.393  0.00  0.00     0.291 C 
BRANCH  12  13
HETATM   13  N   UNK N   1      26.297  26.945  -4.537  0.00  0.00     0.081 N 
HETATM   14  C   UNK N   1      26.509  26.435  -3.194  0.00  0.00     0.309 C 
HETATM   15  C   UNK N   1      25.397  28.088  -4.464  0.00  0.00     0.309 C 
ENDBRANCH  12  13
ENDBRANCH  11  12
ENDBRANCH   1  11
BRANCH   1  16
HETATM   16  C   UNK N   1      26.409  22.767  -6.556  0.00  0.00     0.103 A 
HETATM   17  C   UNK N   1      27.308  22.219  -7.489  0.00  0.00     0.048 A 
HETATM   18  C   UNK N   1      26.862  21.257  -8.396  0.00  0.00     0.005 A 
HETATM   19  C   UNK N   1      25.531  20.846  -8.371  0.00  0.00     0.017 A 
HETATM   20  C   UNK N   1      24.661  21.409  -7.436  0.00  0.00     0.089 A 
HETATM   21  N   UNK N   1      25.113  22.343  -6.557  0.00  0.00    -0.352 N 
ATOM     22  HN  UNK N   1      24.463  22.738  -5.877  1.00  0.00     0.166 HD
ENDBRANCH   1  16
TORSDOF 7
ENDMDL
MODEL 3
REMARK VINA RESULT:      -5.7      0.974      4.374
REMARK  7 active torsions:
REMARK  status: ('A' for Active; 'I' for Inactive)
REMARK    1  A    between atoms: C_8  and  N_1 
REMARK    2  A    between atoms: N_1  and  C_9 
REMARK    3  A    between atoms: N_1  and  C_11 
REMARK    4  A    between atoms: C_3  and  O_18 
REMARK    5  A    between atoms: C_6  and  C_8 
REMARK    6  A    between atoms: C_9  and  C_10 
REMARK    7  A    between atoms: C_10  and  N_15 
ROOT
HETATM    1  N   UNK N   1      32.787  17.211   8.024  0.00  0.00    -0.361 N 
ENDROOT
BRANCH   1   2
HETATM    2  C   UNK N   1      33.519  17.721   6.870  0.00  0.00     0.162 C 
BRANCH   2   3
HETATM    3  C   UNK N   1      33.527  16.854   5.632  0.00  0.00    -0.040 A 
HETATM    4  C   UNK N   1      34.160  15.605   5.585  0.00  0.00     0.011 A 
HETATM    5  C   UNK N   1      34.240  14.889   4.390  0.00  0.00     0.037 A 
HETATM    6  C   UNK N   1      33.673  15.411   3.216  0.00  0.00     0.068 A 
HETATM    7  C   UNK N   1      33.006  16.639   3.268  0.00  0.00     0.037 A 
HETATM    8  C   UNK N   1      32.939  17.359   4.466  0.00  0.00     0.011 A 
BRANCH   6   9
HETATM    9  O   UNK N   1      33.773  14.763   2.032  0.00  0.00    -0.356 OA
HETATM   10  C   UNK N   1      34.861  13.993   1.686  0.00  0.00     0.210 C 
ENDBRANCH   6   9
ENDBRANCH   2   3
ENDBRANCH   1   2
BRANCH   1  11
HETATM   11  C   UNK N   1      31.349  17.039   7.954  0.00  0.00     0.155 C 
BRANCH  11  12
HETATM   12  C   UNK N   1      30.653  18.085   8.840  0.00  0.00     0.291 C 
BRANCH  12  13
HETATM   13  N   UNK N   1      29.323  18.480   8.364  0.00  0.00     0.081 N 
HETATM   14  C   UNK N   1      28.306  18.011   9.289  0.00  0.00     0.309 C 
HETATM   15  C   UNK N   1      29.046  17.922   7.047  0.00  0.00     0.309 C 
ENDBRANCH  12  13
ENDBRANCH  11  12
ENDBRANCH   1  11
BRANCH   1  16
HETATM   16  C   UNK N   1      33.529  16.617   9.094  0.00  0.00     0.103 A 
HETATM   17  C   UNK N   1      33.253  15.304   9.516  0.00  0.00     0.048 A 
HETATM   18  C   UNK N   1      34.021  14.727  10.527  0.00  0.00     0.005 A 
HETATM   19  C   UNK N   1      35.056  15.455  11.112  0.00  0.00     0.017 A 
HETATM   20  C   UNK N   1      35.305  16.757  10.675  0.00  0.00     0.089 A 
HETATM   21  N   UNK N   1      34.548  17.303   9.685  0.00  0.00    -0.352 N 
ATOM     22  HN  UNK N   1      34.751  18.254   9.375  1.00  0.00     0.166 HD
ENDBRANCH   1  16
TORSDOF 7
ENDMDL
MODEL 4
REMARK VINA RESULT:      -5.6      3.880      6.395
REMARK  7 active torsions:
REMARK  status: ('A' for Active; 'I' for Inactive)
REMARK    1  A    between atoms: C_8  and  N_1 
REMARK    2  A    between atoms: N_1  and  C_9 
REMARK    3  A    between atoms: N_1  and  C_11 
REMARK    4  A    between atoms: C_3  and  O_18 
REMARK    5  A    between atoms: C_6  and  C_8 
REMARK    6  A    between atoms: C_9  and  C_10 
REMARK    7  A    between atoms: C_10  and  N_15 
ROOT
HETATM    1  N   UNK N   1      28.404  16.929   4.982  0.00  0.00    -0.361 N 
ENDROOT
BRANCH   1   2
HETATM    2  C   UNK N   1      29.627  16.679   4.228  0.00  0.00     0.162 C 
BRANCH   2   3
HETATM    3  C   UNK N   1      30.933  16.903   4.955  0.00  0.00    -0.040 A 
HETATM    4  C   UNK N   1      31.078  16.700   6.334  0.00  0.00     0.011 A 
HETATM    5  C   UNK N   1      32.269  17.026   6.983  0.00  0.00     0.037 A 
HETATM    6  C   UNK N   1      33.347  17.554   6.254  0.00  0.00     0.068 A 
HETATM    7  C   UNK N   1      33.220  17.720   4.871  0.00  0.00     0.037 A 
HETATM    8  C   UNK N   1      32.019  17.403   4.227  0.00  0.00     0.011 A 
BRANCH   6   9
HETATM    9  O   UNK N   1      34.500  17.922   6.862  0.00  0.00    -0.356 OA
HETATM   10  C   UNK N   1      34.554  18.370   8.162  0.00  0.00     0.210 C 
ENDBRANCH   6   9
ENDBRANCH   2   3
ENDBRANCH   1   2
BRANCH   1  11
HETATM   11  C   UNK N   1      27.681  15.823   5.579  0.00  0.00     0.155 C 
BRANCH  11  12
HETATM   12  C   UNK N   1      26.233  15.805   5.063  0.00  0.00     0.291 C 
BRANCH  12  13
HETATM   13  N   UNK N   1      26.063  15.100   3.787  0.00  0.00     0.081 N 
HETATM   14  C   UNK N   1      25.880  16.059   2.712  0.00  0.00     0.309 C 
HETATM   15  C   UNK N   1      24.907  14.215   3.823  0.00  0.00     0.309 C 
ENDBRANCH  12  13
ENDBRANCH  11  12
ENDBRANCH   1  11
BRANCH   1  16
HETATM   16  C   UNK N   1      28.101  18.274   5.365  0.00  0.00     0.103 A 
HETATM   17  C   UNK N   1      27.811  19.249   4.393  0.00  0.00     0.048 A 
HETATM   18  C   UNK N   1      27.470  20.541   4.791  0.00  0.00     0.005 A 
HETATM   19  C   UNK N   1      27.419  20.858   6.147  0.00  0.00     0.017 A 
HETATM   20  C   UNK N   1      27.715  19.872   7.089  0.00  0.00     0.089 A 
HETATM   21  N   UNK N   1      28.042  18.615   6.684  0.00  0.00    -0.352 N 
ATOM     22  HN  UNK N   1      28.249  17.906   7.388  1.00  0.00     0.166 HD
ENDBRANCH   1  16
TORSDOF 7
ENDMDL
MODEL 5
REMARK VINA RESULT:      -5.5     13.414     15.917
REMARK  7 active torsions:
REMARK  status: ('A' for Active; 'I' for Inactive)
REMARK    1  A    between atoms: C_8  and  N_1 
REMARK    2  A    between atoms: N_1  and  C_9 
REMARK    3  A    between atoms: N_1  and  C_11 
REMARK    4  A    between atoms: C_3  and  O_18 
REMARK    5  A    between atoms: C_6  and  C_8 
REMARK    6  A    between atoms: C_9  and  C_10 
REMARK    7  A    between atoms: C_10  and  N_15 
ROOT
HETATM    1  N   UNK N   1      26.493  25.311  -5.081  0.00  0.00    -0.361 N 
ENDROOT
BRANCH   1   2
HETATM    2  C   UNK N   1      26.539  24.440  -3.912  0.00  0.00     0.162 C 
BRANCH   2   3
HETATM    3  C   UNK N   1      27.900  23.934  -3.493  0.00  0.00    -0.040 A 
HETATM    4  C   UNK N   1      28.957  23.764  -4.397  0.00  0.00     0.011 A 
HETATM    5  C   UNK N   1      30.161  23.189  -3.989  0.00  0.00     0.037 A 
HETATM    6  C   UNK N   1      30.331  22.780  -2.657  0.00  0.00     0.068 A 
HETATM    7  C   UNK N   1      29.292  22.984  -1.742  0.00  0.00     0.037 A 
HETATM    8  C   UNK N   1      28.083  23.551  -2.159  0.00  0.00     0.011 A 
BRANCH   6   9
HETATM    9  O   UNK N   1      31.469  22.177  -2.240  0.00  0.00    -0.356 OA
HETATM   10  C   UNK N   1      32.407  21.661  -3.107  0.00  0.00     0.210 C 
ENDBRANCH   6   9
ENDBRANCH   2   3
ENDBRANCH   1   2
BRANCH   1  11
HETATM   11  C   UNK N   1      26.025  24.793  -6.353  0.00  0.00     0.155 C 
BRANCH  11  12
HETATM   12  C   UNK N   1      25.807  23.275  -6.252  0.00  0.00     0.291 C 
BRANCH  12  13
HETATM   13  N   UNK N   1      25.884  22.574  -7.538  0.00  0.00     0.081 N 
HETATM   14  C   UNK N   1      25.683  23.514  -8.627  0.00  0.00     0.309 C 
HETATM   15  C   UNK N   1      24.872  21.531  -7.632  0.00  0.00     0.309 C 
ENDBRANCH  12  13
ENDBRANCH  11  12
ENDBRANCH   1  11
BRANCH   1  16
HETATM   16  C   UNK N   1      26.628  26.722  -4.887  0.00  0.00     0.103 A 
HETATM   17  C   UNK N   1      27.319  27.511  -5.825  0.00  0.00     0.048 A 
HETATM   18  C   UNK N   1      27.397  28.892  -5.641  0.00  0.00     0.005 A 
HETATM   19  C   UNK N   1      26.790  29.479  -4.532  0.00  0.00     0.017 A 
HETATM   20  C   UNK N   1      26.114  28.671  -3.617  0.00  0.00     0.089 A 
HETATM   21  N   UNK N   1      26.045  27.326  -3.813  0.00  0.00    -0.352 N 
ATOM     22  HN  UNK N   1      25.540  26.753  -3.137  1.00  0.00     0.166 HD
ENDBRANCH   1  16
TORSDOF 7
ENDMDL
MODEL 6
REMARK VINA RESULT:      -5.3     14.765     17.216
REMARK  7 active torsions:
REMARK  status: ('A' for Active; 'I' for Inactive)
REMARK    1  A    between atoms: C_8  and  N_1 
REMARK    2  A    between atoms: N_1  and  C_9 
REMARK    3  A    between atoms: N_1  and  C_11 
REMARK    4  A    between atoms: C_3  and  O_18 
REMARK    5  A    between atoms: C_6  and  C_8 
REMARK    6  A    between atoms: C_9  and  C_10 
REMARK    7  A    between atoms: C_10  and  N_15 
ROOT
HETATM    1  N   UNK N   1      25.941  24.607  -5.322  0.00  0.00    -0.361 N 
ENDROOT
BRANCH   1   2
HETATM    2  C   UNK N   1      25.200  25.835  -5.587  0.00  0.00     0.162 C 
BRANCH   2   3
HETATM    3  C   UNK N   1      25.913  27.136  -5.299  0.00  0.00    -0.040 A 
HETATM    4  C   UNK N   1      25.618  27.931  -4.184  0.00  0.00     0.011 A 
HETATM    5  C   UNK N   1      26.221  29.178  -4.017  0.00  0.00     0.037 A 
HETATM    6  C   UNK N   1      27.143  29.649  -4.966  0.00  0.00     0.068 A 
HETATM    7  C   UNK N   1      27.469  28.841  -6.060  0.00  0.00     0.037 A 
HETATM    8  C   UNK N   1      26.853  27.596  -6.229  0.00  0.00     0.011 A 
BRANCH   6   9
HETATM    9  O   UNK N   1      27.710  30.874  -4.856  0.00  0.00    -0.356 OA
HETATM   10  C   UNK N   1      29.036  31.062  -4.539  0.00  0.00     0.210 C 
ENDBRANCH   6   9
ENDBRANCH   2   3
ENDBRANCH   1   2
BRANCH   1  11
HETATM   11  C   UNK N   1      26.315  24.264  -3.963  0.00  0.00     0.155 C 
BRANCH  11  12
HETATM   12  C   UNK N   1      27.774  24.673  -3.703  0.00  0.00     0.291 C 
BRANCH  12  13
HETATM   13  N   UNK N   1      28.746  23.600  -3.943  0.00  0.00     0.081 N 
HETATM   14  C   UNK N   1      29.310  23.152  -2.682  0.00  0.00     0.309 C 
HETATM   15  C   UNK N   1      29.830  24.053  -4.803  0.00  0.00     0.309 C 
ENDBRANCH  12  13
ENDBRANCH  11  12
ENDBRANCH   1  11
BRANCH   1  16
HETATM   16  C   UNK N   1      26.029  23.625  -6.359  0.00  0.00     0.103 A 
HETATM   17  C   UNK N   1      27.099  23.641  -7.273  0.00  0.00     0.048 A 
HETATM   18  C   UNK N   1      27.191  22.646  -8.246  0.00  0.00     0.005 A 
HETATM   19  C   UNK N   1      26.225  21.643  -8.305  0.00  0.00     0.017 A 
HETATM   20  C   UNK N   1      25.174  21.654  -7.388  0.00  0.00     0.089 A 
HETATM   21  N   UNK N   1      25.100  22.631  -6.443  0.00  0.00    -0.352 N 
ATOM     22  HN  UNK N   1      24.328  22.618  -5.777  1.00  0.00     0.166 HD
ENDBRANCH   1  16
TORSDOF 7
ENDMDL
MODEL 7
REMARK VINA RESULT:      -5.3      4.052      7.022
REMARK  7 active torsions:
REMARK  status: ('A' for Active; 'I' for Inactive)
REMARK    1  A    between atoms: C_8  and  N_1 
REMARK    2  A    between atoms: N_1  and  C_9 
REMARK    3  A    between atoms: N_1  and  C_11 
REMARK    4  A    between atoms: C_3  and  O_18 
REMARK    5  A    between atoms: C_6  and  C_8 
REMARK    6  A    between atoms: C_9  and  C_10 
REMARK    7  A    between atoms: C_10  and  N_15 
ROOT
HETATM    1  N   UNK N   1      35.984  13.360  12.243  0.00  0.00    -0.361 N 
ENDROOT
BRANCH   1   2
HETATM    2  C   UNK N   1      35.687  14.787  12.310  0.00  0.00     0.162 C 
BRANCH   2   3
HETATM    3  C   UNK N   1      34.910  15.375  11.155  0.00  0.00    -0.040 A 
HETATM    4  C   UNK N   1      33.797  14.741  10.588  0.00  0.00     0.011 A 
HETATM    5  C   UNK N   1      33.177  15.263   9.452  0.00  0.00     0.037 A 
HETATM    6  C   UNK N   1      33.660  16.445   8.867  0.00  0.00     0.068 A 
HETATM    7  C   UNK N   1      34.747  17.102   9.453  0.00  0.00     0.037 A 
HETATM    8  C   UNK N   1      35.371  16.567  10.585  0.00  0.00     0.011 A 
BRANCH   6   9
HETATM    9  O   UNK N   1      33.110  16.952   7.738  0.00  0.00    -0.356 OA
HETATM   10  C   UNK N   1      33.832  17.659   6.803  0.00  0.00     0.210 C 
ENDBRANCH   6   9
ENDBRANCH   2   3
ENDBRANCH   1   2
BRANCH   1  11
HETATM   11  C   UNK N   1      37.190  12.901  11.582  0.00  0.00     0.155 C 
BRANCH  11  12
HETATM   12  C   UNK N   1      36.857  12.421  10.160  0.00  0.00     0.291 C 
BRANCH  12  13
HETATM   13  N   UNK N   1      37.540  13.173   9.101  0.00  0.00     0.081 N 
HETATM   14  C   UNK N   1      38.405  14.181   9.689  0.00  0.00     0.309 C 
HETATM   15  C   UNK N   1      36.585  13.835   8.223  0.00  0.00     0.309 C 
ENDBRANCH  12  13
ENDBRANCH  11  12
ENDBRANCH   1  11
BRANCH   1  16
HETATM   16  C   UNK N   1      35.240  12.468  13.079  0.00  0.00     0.103 A 
HETATM   17  C   UNK N   1      35.135  12.701  14.462  0.00  0.00     0.048 A 
HETATM   18  C   UNK N   1      34.363  11.847  15.250  0.00  0.00     0.005 A 
HETATM   19  C   UNK N   1      33.703  10.770  14.661  0.00  0.00     0.017 A 
HETATM   20  C   UNK N   1      33.827  10.562  13.287  0.00  0.00     0.089 A 
HETATM   21  N   UNK N   1      34.581  11.407  12.533  0.00  0.00    -0.352 N 
ATOM     22  HN  UNK N   1      34.654  11.242  11.529  1.00  0.00     0.166 HD
ENDBRANCH   1  16
TORSDOF 7
ENDMDL
MODEL 8
REMARK VINA RESULT:      -5.3     15.035     17.644
REMARK  7 active torsions:
REMARK  status: ('A' for Active; 'I' for Inactive)
REMARK    1  A    between atoms: C_8  and  N_1 
REMARK    2  A    between atoms: N_1  and  C_9 
REMARK    3  A    between atoms: N_1  and  C_11 
REMARK    4  A    between atoms: C_3  and  O_18 
REMARK    5  A    between atoms: C_6  and  C_8 
REMARK    6  A    between atoms: C_9  and  C_10 
REMARK    7  A    between atoms: C_10  and  N_15 
ROOT
HETATM    1  N   UNK N   1      26.066  25.086  -6.243  0.00  0.00    -0.361 N 
ENDROOT
BRANCH   1   2
HETATM    2  C   UNK N   1      25.222  26.244  -5.970  0.00  0.00     0.162 C 
BRANCH   2   3
HETATM    3  C   UNK N   1      25.923  27.514  -5.547  0.00  0.00    -0.040 A 
HETATM    4  C   UNK N   1      26.972  28.082  -6.282  0.00  0.00     0.011 A 
HETATM    5  C   UNK N   1      27.665  29.191  -5.797  0.00  0.00     0.037 A 
HETATM    6  C   UNK N   1      27.309  29.761  -4.564  0.00  0.00     0.068 A 
HETATM    7  C   UNK N   1      26.237  29.221  -3.847  0.00  0.00     0.037 A 
HETATM    8  C   UNK N   1      25.553  28.101  -4.332  0.00  0.00     0.011 A 
BRANCH   6   9
HETATM    9  O   UNK N   1      27.992  30.809  -4.045  0.00  0.00    -0.356 OA
HETATM   10  C   UNK N   1      28.096  31.041  -2.692  0.00  0.00     0.210 C 
ENDBRANCH   6   9
ENDBRANCH   2   3
ENDBRANCH   1   2
BRANCH   1  11
HETATM   11  C   UNK N   1      26.197  24.587  -7.598  0.00  0.00     0.155 C 
BRANCH  11  12
HETATM   12  C   UNK N   1      25.580  23.183  -7.701  0.00  0.00     0.291 C 
BRANCH  12  13
HETATM   13  N   UNK N   1      26.260  22.300  -8.655  0.00  0.00     0.081 N 
HETATM   14  C   UNK N   1      25.719  20.956  -8.560  0.00  0.00     0.309 C 
HETATM   15  C   UNK N   1      27.692  22.245  -8.395  0.00  0.00     0.309 C 
ENDBRANCH  12  13
ENDBRANCH  11  12
ENDBRANCH   1  11
BRANCH   1  16
HETATM   16  C   UNK N   1      26.972  24.648  -5.226  0.00  0.00     0.103 A 
HETATM   17  C   UNK N   1      26.515  24.392  -3.920  0.00  0.00     0.048 A 
HETATM   18  C   UNK N   1      27.406  23.918  -2.957  0.00  0.00     0.005 A 
HETATM   19  C   UNK N   1      28.741  23.702  -3.295  0.00  0.00     0.017 A 
HETATM   20  C   UNK N   1      29.167  23.967  -4.597  0.00  0.00     0.089 A 
HETATM   21  N   UNK N   1      28.283  24.426  -5.526  0.00  0.00    -0.352 N 
ATOM     22  HN  UNK N   1      28.612  24.607  -6.474  1.00  0.00     0.166 HD
ENDBRANCH   1  16
TORSDOF 7
ENDMDL
MODEL 9
REMARK VINA RESULT:      -5.3     14.907     17.963
REMARK  7 active torsions:
REMARK  status: ('A' for Active; 'I' for Inactive)
REMARK    1  A    between atoms: C_8  and  N_1 
REMARK    2  A    between atoms: N_1  and  C_9 
REMARK    3  A    between atoms: N_1  and  C_11 
REMARK    4  A    between atoms: C_3  and  O_18 
REMARK    5  A    between atoms: C_6  and  C_8 
REMARK    6  A    between atoms: C_9  and  C_10 
REMARK    7  A    between atoms: C_10  and  N_15 
ROOT
HETATM    1  N   UNK N   1      26.922  23.260  -7.075  0.00  0.00    -0.361 N 
ENDROOT
BRANCH   1   2
HETATM    2  C   UNK N   1      25.927  23.475  -6.031  0.00  0.00     0.162 C 
BRANCH   2   3
HETATM    3  C   UNK N   1      25.973  24.801  -5.308  0.00  0.00    -0.040 A 
HETATM    4  C   UNK N   1      26.590  24.965  -4.062  0.00  0.00     0.011 A 
HETATM    5  C   UNK N   1      26.512  26.179  -3.380  0.00  0.00     0.037 A 
HETATM    6  C   UNK N   1      25.818  27.261  -3.943  0.00  0.00     0.068 A 
HETATM    7  C   UNK N   1      25.233  27.114  -5.206  0.00  0.00     0.037 A 
HETATM    8  C   UNK N   1      25.304  25.890  -5.880  0.00  0.00     0.011 A 
BRANCH   6   9
HETATM    9  O   UNK N   1      25.684  28.438  -3.286  0.00  0.00    -0.356 OA
HETATM   10  C   UNK N   1      26.458  29.544  -3.561  0.00  0.00     0.210 C 
ENDBRANCH   6   9
ENDBRANCH   2   3
ENDBRANCH   1   2
BRANCH   1  11
HETATM   11  C   UNK N   1      26.904  24.076  -8.274  0.00  0.00     0.155 C 
BRANCH  11  12
HETATM   12  C   UNK N   1      25.601  23.833  -9.052  0.00  0.00     0.291 C 
BRANCH  12  13
HETATM   13  N   UNK N   1      25.191  24.961  -9.897  0.00  0.00     0.081 N 
HETATM   14  C   UNK N   1      25.511  24.682 -11.286  0.00  0.00     0.309 C 
HETATM   15  C   UNK N   1      25.867  26.189  -9.501  0.00  0.00     0.309 C 
ENDBRANCH  12  13
ENDBRANCH  11  12
ENDBRANCH   1  11
BRANCH   1  16
HETATM   16  C   UNK N   1      28.066  22.456  -6.772  0.00  0.00     0.103 A 
HETATM   17  C   UNK N   1      28.889  22.764  -5.673  0.00  0.00     0.048 A 
HETATM   18  C   UNK N   1      29.970  21.938  -5.366  0.00  0.00     0.005 A 
HETATM   19  C   UNK N   1      30.228  20.815  -6.150  0.00  0.00     0.017 A 
HETATM   20  C   UNK N   1      29.397  20.536  -7.236  0.00  0.00     0.089 A 
HETATM   21  N   UNK N   1      28.344  21.350  -7.519  0.00  0.00    -0.352 N 
ATOM     22  HN  UNK N   1      27.745  21.125  -8.313  1.00  0.00     0.166 HD
ENDBRANCH   1  16
TORSDOF 7
ENDMDL
