REMARK  7 active torsions:
REMARK  status: ('A' for Active; 'I' for Inactive)
REMARK    1  A    between atoms: O_2  and  C_21 
REMARK    2  A    between atoms: O_2  and  C_22 
REMARK    3  A    between atoms: N_4  and  C_9 
REMARK    4  A    between atoms: N_4  and  C_11 
REMARK    5  A    between atoms: N_7  and  C_12 
REMARK       I    between atoms: N_7  and  C_21 
REMARK    6  A    between atoms: N_8  and  C_14 
REMARK    7  A    between atoms: C_9  and  C_10 
ROOT
HETATM    1  N   UNK N   1       4.194  -1.675   0.000  0.00  0.00    -0.327 N 
ATOM      2  HN  UNK N   1       4.250  -2.693  -0.000  1.00  0.00     0.169 HD
HETATM    3  C   UNK N   1       5.345  -0.939   0.000  0.00  0.00     0.102 A 
HETATM    4  C   UNK N   1       2.877   0.341   0.000  0.00  0.00     0.080 A 
HETATM    5  C   UNK N   1       5.288   0.446   0.001  0.00  0.00     0.050 A 
HETATM    6  C   UNK N   1       2.968  -1.067  -0.000  0.00  0.00     0.127 A 
HETATM    7  C   UNK N   1       4.062   1.081   0.001  0.00  0.00     0.037 A 
ENDROOT
BRANCH   3   8
HETATM    8  N   UNK N   1       6.622  -1.535   0.001  0.00  0.00    -0.372 N 
HETATM    9  H   UNK N   1       7.392  -0.923   0.001  0.00  0.00     0.161 HD
BRANCH   8  10
HETATM   10  C   UNK N   1       6.921  -2.944   0.000  0.00  0.00     0.159 C 
BRANCH  10  11
HETATM   11  C   UNK N   1       8.420  -3.112   0.000  0.00  0.00    -0.040 A 
HETATM   12  C   UNK N   1       9.268  -1.987   0.000  0.00  0.00     0.012 A 
HETATM   13  C   UNK N   1      10.653  -2.136  -0.000  0.00  0.00     0.043 A 
HETATM   14  C   UNK N   1      11.212  -3.412  -0.000  0.00  0.00     0.116 A 
HETATM   15  F   UNK N   1      12.559  -3.553  -0.000  0.00  0.00    -0.206 F 
HETATM   16  C   UNK N   1      10.383  -4.540  -0.000  0.00  0.00     0.043 A 
HETATM   17  C   UNK N   1       8.988  -4.391  -0.000  0.00  0.00     0.012 A 
ENDBRANCH  10  11
ENDBRANCH   8  10
ENDBRANCH   3   8
BRANCH   6  18
HETATM   18  N   UNK N   1       1.798  -1.855  -0.001  0.00  0.00    -0.384 N 
HETATM   19  H   UNK N   1       0.913  -1.423  -0.001  0.00  0.00     0.157 HD
HETATM   20  H   UNK N   1       1.866  -2.838  -0.001  0.00  0.00     0.157 HD
ENDBRANCH   6  18
BRANCH   4  21
HETATM   21  N   UNK N   1       1.605   0.995  -0.000  0.00  0.00    -0.299 N 
HETATM   22  C   UNK N   1       1.419   2.348  -0.000  0.00  0.00     0.365 C 
HETATM   23  O   UNK N   1       2.378   3.113   0.000  0.00  0.00    -0.238 OA
HETATM   24  H   UNK N   1       0.801   0.426  -0.000  0.00  0.00     0.171 HD
BRANCH  22  25
HETATM   25  O   UNK N   1       0.163   2.851  -0.000  0.00  0.00    -0.304 OA
BRANCH  25  26
HETATM   26  C   UNK N   1      -0.069   4.209  -0.000  0.00  0.00     0.176 C 
HETATM   27  C   UNK N   1      -1.557   4.481  -0.000  0.00  0.00     0.034 C 
ENDBRANCH  25  26
ENDBRANCH  22  25
ENDBRANCH   4  21
TORSDOF 7
