MODEL 1
REMARK VINA RESULT:      -6.1      0.000      0.000
REMARK  12 active torsions:
REMARK  status: ('A' for Active; 'I' for Inactive)
REMARK    1  A    between atoms: C_2  and  C_4 
REMARK    2  A    between atoms: C_4  and  O_6 
REMARK    3  A    between atoms: O_6  and  C_7 
REMARK    4  A    between atoms: C_8  and  C_15 
REMARK    5  A    between atoms: C_10  and  C_13 
REMARK    6  A    between atoms: C_13  and  O_14 
REMARK    7  A    between atoms: C_15  and  C_16 
REMARK    8  A    between atoms: C_15  and  C_25 
REMARK    9  A    between atoms: C_16  and  C_17 
REMARK   10  A    between atoms: C_17  and  N_18 
REMARK   11  A    between atoms: N_18  and  C_19 
REMARK   12  A    between atoms: N_18  and  C_22 
ROOT
HETATM    1  C   UNK N   1      29.868  17.352   4.732  0.00  0.00     0.056 C 
ENDROOT
BRANCH   1   2
HETATM    2  C   UNK N   1      30.291  17.402   6.212  0.00  0.00    -0.015 A 
HETATM    3  C   UNK N   1      31.664  17.489   6.591  0.00  0.00     0.086 A 
HETATM    4  C   UNK N   1      31.992  17.519   7.960  0.00  0.00     0.038 A 
HETATM    5  C   UNK N   1      31.011  17.467   8.945  0.00  0.00     0.012 A 
HETATM    6  C   UNK N   1      29.668  17.391   8.583  0.00  0.00    -0.034 A 
HETATM    7  C   UNK N   1      29.327  17.358   7.235  0.00  0.00     0.020 A 
BRANCH   3   8
HETATM    8  O   UNK N   1      32.644  17.576   5.641  0.00  0.00    -0.278 OA
BRANCH   8   9
HETATM    9  C   UNK N   1      33.654  16.665   5.440  0.00  0.00     0.267 C 
HETATM   10  O   UNK N   1      34.655  16.671   6.139  0.00  0.00    -0.264 OA
BRANCH   9  11
HETATM   11  C   UNK N   1      33.567  15.645   4.337  0.00  0.00     0.078 C 
HETATM   12  C   UNK N   1      32.733  14.455   4.776  0.00  0.00     0.020 C 
HETATM   13  C   UNK N   1      33.019  16.208   3.044  0.00  0.00     0.020 C 
ENDBRANCH   9  11
ENDBRANCH   8   9
ENDBRANCH   3   8
BRANCH   6  14
HETATM   14  C   UNK N   1      28.580  17.350   9.610  0.00  0.00     0.202 C 
BRANCH  14  15
HETATM   15  O   UNK N   1      27.511  18.181   9.267  0.00  0.00    -0.396 OA
HETATM   16  H   UNK N   1      27.205  18.225   8.348  0.00  0.00     0.209 HD
ENDBRANCH  14  15
ENDBRANCH   6  14
ENDBRANCH   1   2
BRANCH   1  17
HETATM   17  C   UNK N   1      28.855  18.485   4.461  0.00  0.00     0.044 C 
BRANCH  17  18
HETATM   18  C   UNK N   1      27.453  18.044   3.999  0.00  0.00     0.274 C 
BRANCH  18  19
HETATM   19  N   UNK N   1      26.457  18.110   5.070  0.00  0.00     0.096 N 
BRANCH  19  20
HETATM   20  C   UNK N   1      25.754  19.409   5.063  0.00  0.00     0.215 C 
HETATM   21  C   UNK N   1      26.372  20.462   5.976  0.00  0.00     0.042 C 
HETATM   22  C   UNK N   1      25.545  19.938   3.656  0.00  0.00     0.042 C 
ENDBRANCH  19  20
BRANCH  19  23
HETATM   23  C   UNK N   1      25.670  16.867   5.180  0.00  0.00     0.215 C 
HETATM   24  C   UNK N   1      25.699  16.109   3.868  0.00  0.00     0.042 C 
HETATM   25  C   UNK N   1      26.044  15.947   6.335  0.00  0.00     0.042 C 
ENDBRANCH  19  23
ENDBRANCH  18  19
ENDBRANCH  17  18
ENDBRANCH   1  17
BRANCH   1  26
HETATM   26  C   UNK N   1      29.414  16.003   4.128  0.00  0.00    -0.050 A 
HETATM   27  C   UNK N   1      29.330  15.866   2.732  0.00  0.00     0.008 A 
HETATM   28  C   UNK N   1      28.950  14.657   2.142  0.00  0.00     0.001 A 
HETATM   29  C   UNK N   1      28.656  13.553   2.941  0.00  0.00     0.000 A 
HETATM   30  C   UNK N   1      28.741  13.660   4.327  0.00  0.00     0.001 A 
HETATM   31  C   UNK N   1      29.115  14.874   4.911  0.00  0.00     0.008 A 
ENDBRANCH   1  26
TORSDOF 12
ENDMDL
MODEL 2
REMARK VINA RESULT:      -6.0     12.000     15.068
REMARK  12 active torsions:
REMARK  status: ('A' for Active; 'I' for Inactive)
REMARK    1  A    between atoms: C_2  and  C_4 
REMARK    2  A    between atoms: C_4  and  O_6 
REMARK    3  A    between atoms: O_6  and  C_7 
REMARK    4  A    between atoms: C_8  and  C_15 
REMARK    5  A    between atoms: C_10  and  C_13 
REMARK    6  A    between atoms: C_13  and  O_14 
REMARK    7  A    between atoms: C_15  and  C_16 
REMARK    8  A    between atoms: C_15  and  C_25 
REMARK    9  A    between atoms: C_16  and  C_17 
REMARK   10  A    between atoms: C_17  and  N_18 
REMARK   11  A    between atoms: N_18  and  C_19 
REMARK   12  A    between atoms: N_18  and  C_22 
ROOT
HETATM    1  C   UNK N   1      28.579  25.804  -6.150  0.00  0.00     0.056 C 
ENDROOT
BRANCH   1   2
HETATM    2  C   UNK N   1      28.684  24.900  -4.908  0.00  0.00    -0.015 A 
HETATM    3  C   UNK N   1      27.610  24.789  -3.975  0.00  0.00     0.086 A 
HETATM    4  C   UNK N   1      27.768  23.956  -2.850  0.00  0.00     0.038 A 
HETATM    5  C   UNK N   1      28.942  23.242  -2.632  0.00  0.00     0.012 A 
HETATM    6  C   UNK N   1      29.991  23.337  -3.543  0.00  0.00    -0.034 A 
HETATM    7  C   UNK N   1      29.852  24.158  -4.658  0.00  0.00     0.020 A 
BRANCH   3   8
HETATM    8  O   UNK N   1      26.433  25.454  -4.185  0.00  0.00    -0.278 OA
BRANCH   8   9
HETATM    9  C   UNK N   1      26.033  26.604  -3.546  0.00  0.00     0.267 C 
HETATM   10  O   UNK N   1      26.268  26.780  -2.362  0.00  0.00    -0.264 OA
BRANCH   9  11
HETATM   11  C   UNK N   1      25.272  27.672  -4.283  0.00  0.00     0.078 C 
HETATM   12  C   UNK N   1      25.979  29.010  -4.161  0.00  0.00     0.020 C 
HETATM   13  C   UNK N   1      25.041  27.344  -5.742  0.00  0.00     0.020 C 
ENDBRANCH   9  11
ENDBRANCH   8   9
ENDBRANCH   3   8
BRANCH   6  14
HETATM   14  C   UNK N   1      31.265  22.574  -3.356  0.00  0.00     0.202 C 
BRANCH  14  15
HETATM   15  O   UNK N   1      31.498  22.279  -2.010  0.00  0.00    -0.396 OA
HETATM   16  H   UNK N   1      31.260  21.409  -1.655  0.00  0.00     0.209 HD
ENDBRANCH  14  15
ENDBRANCH   6  14
ENDBRANCH   1   2
BRANCH   1  17
HETATM   17  C   UNK N   1      29.471  25.227  -7.269  0.00  0.00     0.044 C 
BRANCH  17  18
HETATM   18  C   UNK N   1      28.815  24.172  -8.180  0.00  0.00     0.274 C 
BRANCH  18  19
HETATM   19  N   UNK N   1      27.357  24.145  -8.058  0.00  0.00     0.096 N 
BRANCH  19  20
HETATM   20  C   UNK N   1      26.712  24.771  -9.231  0.00  0.00     0.215 C 
HETATM   21  C   UNK N   1      26.048  26.112  -8.941  0.00  0.00     0.042 C 
HETATM   22  C   UNK N   1      27.651  24.854 -10.421  0.00  0.00     0.042 C 
ENDBRANCH  19  20
BRANCH  19  23
HETATM   23  C   UNK N   1      26.859  22.844  -7.574  0.00  0.00     0.215 C 
HETATM   24  C   UNK N   1      28.016  21.970  -7.132  0.00  0.00     0.042 C 
HETATM   25  C   UNK N   1      25.793  22.905  -6.488  0.00  0.00     0.042 C 
ENDBRANCH  19  23
ENDBRANCH  18  19
ENDBRANCH  17  18
ENDBRANCH   1  17
BRANCH   1  26
HETATM   26  C   UNK N   1      28.762  27.331  -5.983  0.00  0.00    -0.050 A 
HETATM   27  C   UNK N   1      29.397  27.827  -4.833  0.00  0.00     0.008 A 
HETATM   28  C   UNK N   1      29.608  29.197  -4.653  0.00  0.00     0.001 A 
HETATM   29  C   UNK N   1      29.196  30.101  -5.631  0.00  0.00     0.000 A 
HETATM   30  C   UNK N   1      28.571  29.633  -6.786  0.00  0.00     0.001 A 
HETATM   31  C   UNK N   1      28.358  28.262  -6.956  0.00  0.00     0.008 A 
ENDBRANCH   1  26
TORSDOF 12
ENDMDL
MODEL 3
REMARK VINA RESULT:      -5.9      5.304      8.625
REMARK  12 active torsions:
REMARK  status: ('A' for Active; 'I' for Inactive)
REMARK    1  A    between atoms: C_2  and  C_4 
REMARK    2  A    between atoms: C_4  and  O_6 
REMARK    3  A    between atoms: O_6  and  C_7 
REMARK    4  A    between atoms: C_8  and  C_15 
REMARK    5  A    between atoms: C_10  and  C_13 
REMARK    6  A    between atoms: C_13  and  O_14 
REMARK    7  A    between atoms: C_15  and  C_16 
REMARK    8  A    between atoms: C_15  and  C_25 
REMARK    9  A    between atoms: C_16  and  C_17 
REMARK   10  A    between atoms: C_17  and  N_18 
REMARK   11  A    between atoms: N_18  and  C_19 
REMARK   12  A    between atoms: N_18  and  C_22 
ROOT
HETATM    1  C   UNK N   1      23.574  16.668   4.487  0.00  0.00     0.056 C 
ENDROOT
BRANCH   1   2
HETATM    2  C   UNK N   1      22.384  16.709   3.511  0.00  0.00    -0.015 A 
HETATM    3  C   UNK N   1      22.155  15.659   2.573  0.00  0.00     0.086 A 
HETATM    4  C   UNK N   1      21.057  15.756   1.696  0.00  0.00     0.038 A 
HETATM    5  C   UNK N   1      20.194  16.847   1.728  0.00  0.00     0.012 A 
HETATM    6  C   UNK N   1      20.405  17.870   2.647  0.00  0.00    -0.034 A 
HETATM    7  C   UNK N   1      21.486  17.792   3.519  0.00  0.00     0.020 A 
BRANCH   3   8
HETATM    8  O   UNK N   1      22.970  14.560   2.544  0.00  0.00    -0.278 OA
BRANCH   8   9
HETATM    9  C   UNK N   1      23.935  14.296   1.602  0.00  0.00     0.267 C 
HETATM   10  O   UNK N   1      23.637  14.098   0.435  0.00  0.00    -0.264 OA
BRANCH   9  11
HETATM   11  C   UNK N   1      25.388  14.220   1.984  0.00  0.00     0.078 C 
HETATM   12  C   UNK N   1      26.097  15.519   1.647  0.00  0.00     0.020 C 
HETATM   13  C   UNK N   1      25.606  13.879   3.442  0.00  0.00     0.020 C 
ENDBRANCH   9  11
ENDBRANCH   8   9
ENDBRANCH   3   8
BRANCH   6  14
HETATM   14  C   UNK N   1      19.492  19.054   2.726  0.00  0.00     0.202 C 
BRANCH  14  15
HETATM   15  O   UNK N   1      18.190  18.732   2.334  0.00  0.00    -0.396 OA
HETATM   16  H   UNK N   1      17.955  17.812   2.138  0.00  0.00     0.209 HD
ENDBRANCH  14  15
ENDBRANCH   6  14
ENDBRANCH   1   2
BRANCH   1  17
HETATM   17  C   UNK N   1      23.038  16.687   5.934  0.00  0.00     0.044 C 
BRANCH  17  18
HETATM   18  C   UNK N   1      22.208  15.463   6.365  0.00  0.00     0.274 C 
BRANCH  18  19
HETATM   19  N   UNK N   1      20.859  15.820   6.807  0.00  0.00     0.096 N 
BRANCH  19  20
HETATM   20  C   UNK N   1      19.839  15.002   6.119  0.00  0.00     0.215 C 
HETATM   21  C   UNK N   1      18.852  15.806   5.280  0.00  0.00     0.042 C 
HETATM   22  C   UNK N   1      20.458  13.867   5.324  0.00  0.00     0.042 C 
ENDBRANCH  19  20
BRANCH  19  23
HETATM   23  C   UNK N   1      20.777  15.989   8.270  0.00  0.00     0.215 C 
HETATM   24  C   UNK N   1      19.870  17.153   8.615  0.00  0.00     0.042 C 
HETATM   25  C   UNK N   1      20.373  14.749   9.058  0.00  0.00     0.042 C 
ENDBRANCH  19  23
ENDBRANCH  18  19
ENDBRANCH  17  18
ENDBRANCH   1  17
BRANCH   1  26
HETATM   26  C   UNK N   1      24.744  17.658   4.283  0.00  0.00    -0.050 A 
HETATM   27  C   UNK N   1      26.016  17.337   4.786  0.00  0.00     0.008 A 
HETATM   28  C   UNK N   1      27.108  18.189   4.601  0.00  0.00     0.001 A 
HETATM   29  C   UNK N   1      26.951  19.381   3.895  0.00  0.00     0.000 A 
HETATM   30  C   UNK N   1      25.702  19.719   3.377  0.00  0.00     0.001 A 
HETATM   31  C   UNK N   1      24.612  18.865   3.572  0.00  0.00     0.008 A 
ENDBRANCH   1  26
TORSDOF 12
ENDMDL
MODEL 4
REMARK VINA RESULT:      -5.8     12.198     15.342
REMARK  12 active torsions:
REMARK  status: ('A' for Active; 'I' for Inactive)
REMARK    1  A    between atoms: C_2  and  C_4 
REMARK    2  A    between atoms: C_4  and  O_6 
REMARK    3  A    between atoms: O_6  and  C_7 
REMARK    4  A    between atoms: C_8  and  C_15 
REMARK    5  A    between atoms: C_10  and  C_13 
REMARK    6  A    between atoms: C_13  and  O_14 
REMARK    7  A    between atoms: C_15  and  C_16 
REMARK    8  A    between atoms: C_15  and  C_25 
REMARK    9  A    between atoms: C_16  and  C_17 
REMARK   10  A    between atoms: C_17  and  N_18 
REMARK   11  A    between atoms: N_18  and  C_19 
REMARK   12  A    between atoms: N_18  and  C_22 
ROOT
HETATM    1  C   UNK N   1      27.765  24.703  -5.802  0.00  0.00     0.056 C 
ENDROOT
BRANCH   1   2
HETATM    2  C   UNK N   1      27.134  23.855  -6.922  0.00  0.00    -0.015 A 
HETATM    3  C   UNK N   1      27.453  24.078  -8.294  0.00  0.00     0.086 A 
HETATM    4  C   UNK N   1      26.834  23.279  -9.276  0.00  0.00     0.038 A 
HETATM    5  C   UNK N   1      25.926  22.281  -8.936  0.00  0.00     0.012 A 
HETATM    6  C   UNK N   1      25.618  22.051  -7.598  0.00  0.00    -0.034 A 
HETATM    7  C   UNK N   1      26.217  22.833  -6.616  0.00  0.00     0.020 A 
BRANCH   3   8
HETATM    8  O   UNK N   1      28.367  25.030  -8.652  0.00  0.00    -0.278 OA
BRANCH   8   9
HETATM    9  C   UNK N   1      28.112  26.370  -8.821  0.00  0.00     0.267 C 
HETATM   10  O   UNK N   1      27.127  26.750  -9.435  0.00  0.00    -0.264 OA
BRANCH   9  11
HETATM   11  C   UNK N   1      29.049  27.411  -8.273  0.00  0.00     0.078 C 
HETATM   12  C   UNK N   1      28.283  28.457  -7.483  0.00  0.00     0.020 C 
HETATM   13  C   UNK N   1      30.155  26.830  -7.420  0.00  0.00     0.020 C 
ENDBRANCH   9  11
ENDBRANCH   8   9
ENDBRANCH   3   8
BRANCH   6  14
HETATM   14  C   UNK N   1      24.659  20.977  -7.188  0.00  0.00     0.202 C 
BRANCH  14  15
HETATM   15  O   UNK N   1      23.467  21.509  -6.688  0.00  0.00    -0.396 OA
HETATM   16  H   UNK N   1      22.618  21.250  -7.078  0.00  0.00     0.209 HD
ENDBRANCH  14  15
ENDBRANCH   6  14
ENDBRANCH   1   2
BRANCH   1  17
HETATM   17  C   UNK N   1      28.307  23.763  -4.705  0.00  0.00     0.044 C 
BRANCH  17  18
HETATM   18  C   UNK N   1      29.761  23.285  -4.881  0.00  0.00     0.274 C 
BRANCH  18  19
HETATM   19  N   UNK N   1      29.859  21.839  -5.094  0.00  0.00     0.096 N 
BRANCH  19  20
HETATM   20  C   UNK N   1      30.271  21.532  -6.479  0.00  0.00     0.215 C 
HETATM   21  C   UNK N   1      29.222  20.782  -7.293  0.00  0.00     0.042 C 
HETATM   22  C   UNK N   1      30.777  22.761  -7.211  0.00  0.00     0.042 C 
ENDBRANCH  19  20
BRANCH  19  23
HETATM   23  C   UNK N   1      30.533  21.154  -3.975  0.00  0.00     0.215 C 
HETATM   24  C   UNK N   1      31.575  20.187  -4.501  0.00  0.00     0.042 C 
HETATM   25  C   UNK N   1      31.139  22.062  -2.912  0.00  0.00     0.042 C 
ENDBRANCH  19  23
ENDBRANCH  18  19
ENDBRANCH  17  18
ENDBRANCH   1  17
BRANCH   1  26
HETATM   26  C   UNK N   1      26.962  25.887  -5.216  0.00  0.00    -0.050 A 
HETATM   27  C   UNK N   1      25.784  26.305  -5.856  0.00  0.00     0.008 A 
HETATM   28  C   UNK N   1      25.012  27.353  -5.347  0.00  0.00     0.001 A 
HETATM   29  C   UNK N   1      25.400  27.999  -4.174  0.00  0.00     0.000 A 
HETATM   30  C   UNK N   1      26.560  27.598  -3.514  0.00  0.00     0.001 A 
HETATM   31  C   UNK N   1      27.331  26.553  -4.033  0.00  0.00     0.008 A 
ENDBRANCH   1  26
TORSDOF 12
ENDMDL
MODEL 5
REMARK VINA RESULT:      -5.8      5.133      9.515
REMARK  12 active torsions:
REMARK  status: ('A' for Active; 'I' for Inactive)
REMARK    1  A    between atoms: C_2  and  C_4 
REMARK    2  A    between atoms: C_4  and  O_6 
REMARK    3  A    between atoms: O_6  and  C_7 
REMARK    4  A    between atoms: C_8  and  C_15 
REMARK    5  A    between atoms: C_10  and  C_13 
REMARK    6  A    between atoms: C_13  and  O_14 
REMARK    7  A    between atoms: C_15  and  C_16 
REMARK    8  A    between atoms: C_15  and  C_25 
REMARK    9  A    between atoms: C_16  and  C_17 
REMARK   10  A    between atoms: C_17  and  N_18 
REMARK   11  A    between atoms: N_18  and  C_19 
REMARK   12  A    between atoms: N_18  and  C_22 
ROOT
HETATM    1  C   UNK N   1      22.674  17.341   5.415  0.00  0.00     0.056 C 
ENDROOT
BRANCH   1   2
HETATM    2  C   UNK N   1      21.868  17.758   4.171  0.00  0.00    -0.015 A 
HETATM    3  C   UNK N   1      21.256  16.789   3.321  0.00  0.00     0.086 A 
HETATM    4  C   UNK N   1      20.542  17.229   2.190  0.00  0.00     0.038 A 
HETATM    5  C   UNK N   1      20.418  18.581   1.888  0.00  0.00     0.012 A 
HETATM    6  C   UNK N   1      21.003  19.533   2.718  0.00  0.00    -0.034 A 
HETATM    7  C   UNK N   1      21.715  19.116   3.838  0.00  0.00     0.020 A 
BRANCH   3   8
HETATM    8  O   UNK N   1      21.335  15.455   3.615  0.00  0.00    -0.278 OA
BRANCH   8   9
HETATM    9  C   UNK N   1      20.397  14.502   3.298  0.00  0.00     0.267 C 
HETATM   10  O   UNK N   1      20.421  13.931   2.219  0.00  0.00    -0.264 OA
BRANCH   9  11
HETATM   11  C   UNK N   1      19.298  14.148   4.261  0.00  0.00     0.078 C 
HETATM   12  C   UNK N   1      19.783  13.125   5.272  0.00  0.00     0.020 C 
HETATM   13  C   UNK N   1      18.724  15.349   4.981  0.00  0.00     0.020 C 
ENDBRANCH   9  11
ENDBRANCH   8   9
ENDBRANCH   3   8
BRANCH   6  14
HETATM   14  C   UNK N   1      20.880  20.999   2.439  0.00  0.00     0.202 C 
BRANCH  14  15
HETATM   15  O   UNK N   1      22.049  21.689   2.772  0.00  0.00    -0.396 OA
HETATM   16  H   UNK N   1      22.295  21.808   3.703  0.00  0.00     0.209 HD
ENDBRANCH  14  15
ENDBRANCH   6  14
ENDBRANCH   1   2
BRANCH   1  17
HETATM   17  C   UNK N   1      23.951  16.602   4.962  0.00  0.00     0.044 C 
BRANCH  17  18
HETATM   18  C   UNK N   1      24.956  17.432   4.141  0.00  0.00     0.274 C 
BRANCH  18  19
HETATM   19  N   UNK N   1      25.735  18.356   4.966  0.00  0.00     0.096 N 
BRANCH  19  20
HETATM   20  C   UNK N   1      27.142  17.917   5.076  0.00  0.00     0.215 C 
HETATM   21  C   UNK N   1      27.432  17.038   6.288  0.00  0.00     0.042 C 
HETATM   22  C   UNK N   1      27.645  17.286   3.791  0.00  0.00     0.042 C 
ENDBRANCH  19  20
BRANCH  19  23
HETATM   23  C   UNK N   1      25.446  19.768   4.650  0.00  0.00     0.215 C 
HETATM   24  C   UNK N   1      26.511  20.669   5.243  0.00  0.00     0.042 C 
HETATM   25  C   UNK N   1      25.242  20.086   3.174  0.00  0.00     0.042 C 
ENDBRANCH  19  23
ENDBRANCH  18  19
ENDBRANCH  17  18
ENDBRANCH   1  17
BRANCH   1  26
HETATM   26  C   UNK N   1      21.948  16.605   6.566  0.00  0.00    -0.050 A 
HETATM   27  C   UNK N   1      20.849  17.216   7.191  0.00  0.00     0.008 A 
HETATM   28  C   UNK N   1      20.147  16.578   8.217  0.00  0.00     0.001 A 
HETATM   29  C   UNK N   1      20.526  15.301   8.631  0.00  0.00     0.000 A 
HETATM   30  C   UNK N   1      21.608  14.668   8.020  0.00  0.00     0.001 A 
HETATM   31  C   UNK N   1      22.309  15.317   6.999  0.00  0.00     0.008 A 
ENDBRANCH   1  26
TORSDOF 12
ENDMDL
MODEL 6
REMARK VINA RESULT:      -5.7      5.051      9.053
REMARK  12 active torsions:
REMARK  status: ('A' for Active; 'I' for Inactive)
REMARK    1  A    between atoms: C_2  and  C_4 
REMARK    2  A    between atoms: C_4  and  O_6 
REMARK    3  A    between atoms: O_6  and  C_7 
REMARK    4  A    between atoms: C_8  and  C_15 
REMARK    5  A    between atoms: C_10  and  C_13 
REMARK    6  A    between atoms: C_13  and  O_14 
REMARK    7  A    between atoms: C_15  and  C_16 
REMARK    8  A    between atoms: C_15  and  C_25 
REMARK    9  A    between atoms: C_16  and  C_17 
REMARK   10  A    between atoms: C_17  and  N_18 
REMARK   11  A    between atoms: N_18  and  C_19 
REMARK   12  A    between atoms: N_18  and  C_22 
ROOT
HETATM    1  C   UNK N   1      22.504  17.761   5.076  0.00  0.00     0.056 C 
ENDROOT
BRANCH   1   2
HETATM    2  C   UNK N   1      21.708  17.941   3.769  0.00  0.00    -0.015 A 
HETATM    3  C   UNK N   1      21.097  16.832   3.112  0.00  0.00     0.086 A 
HETATM    4  C   UNK N   1      20.392  17.054   1.914  0.00  0.00     0.038 A 
HETATM    5  C   UNK N   1      20.278  18.326   1.361  0.00  0.00     0.012 A 
HETATM    6  C   UNK N   1      20.863  19.415   2.002  0.00  0.00    -0.034 A 
HETATM    7  C   UNK N   1      21.566  19.212   3.185  0.00  0.00     0.020 A 
BRANCH   3   8
HETATM    8  O   UNK N   1      21.166  15.577   3.653  0.00  0.00    -0.278 OA
BRANCH   8   9
HETATM    9  C   UNK N   1      21.676  14.460   3.035  0.00  0.00     0.267 C 
HETATM   10  O   UNK N   1      21.041  13.419   2.994  0.00  0.00    -0.264 OA
BRANCH   9  11
HETATM   11  C   UNK N   1      23.043  14.480   2.408  0.00  0.00     0.078 C 
HETATM   12  C   UNK N   1      23.960  13.484   3.094  0.00  0.00     0.020 C 
HETATM   13  C   UNK N   1      23.021  14.216   0.918  0.00  0.00     0.020 C 
ENDBRANCH   9  11
ENDBRANCH   8   9
ENDBRANCH   3   8
BRANCH   6  14
HETATM   14  C   UNK N   1      20.752  20.802   1.451  0.00  0.00     0.202 C 
BRANCH  14  15
HETATM   15  O   UNK N   1      20.778  20.809   0.054  0.00  0.00    -0.396 OA
HETATM   16  H   UNK N   1      20.005  21.116  -0.445  0.00  0.00     0.209 HD
ENDBRANCH  14  15
ENDBRANCH   6  14
ENDBRANCH   1   2
BRANCH   1  17
HETATM   17  C   UNK N   1      23.880  17.144   4.745  0.00  0.00     0.044 C 
BRANCH  17  18
HETATM   18  C   UNK N   1      25.100  18.061   4.954  0.00  0.00     0.274 C 
BRANCH  18  19
HETATM   19  N   UNK N   1      25.857  18.286   3.721  0.00  0.00     0.096 N 
BRANCH  19  20
HETATM   20  C   UNK N   1      26.111  19.725   3.507  0.00  0.00     0.215 C 
HETATM   21  C   UNK N   1      25.076  20.421   2.629  0.00  0.00     0.042 C 
HETATM   22  C   UNK N   1      26.330  20.467   4.813  0.00  0.00     0.042 C 
ENDBRANCH  19  20
BRANCH  19  23
HETATM   23  C   UNK N   1      26.970  17.329   3.565  0.00  0.00     0.215 C 
HETATM   24  C   UNK N   1      27.520  16.937   4.922  0.00  0.00     0.042 C 
HETATM   25  C   UNK N   1      26.664  16.088   2.736  0.00  0.00     0.042 C 
ENDBRANCH  19  23
ENDBRANCH  18  19
ENDBRANCH  17  18
ENDBRANCH   1  17
BRANCH   1  26
HETATM   26  C   UNK N   1      21.824  17.066   6.278  0.00  0.00    -0.050 A 
HETATM   27  C   UNK N   1      22.298  15.817   6.711  0.00  0.00     0.008 A 
HETATM   28  C   UNK N   1      21.730  15.164   7.809  0.00  0.00     0.001 A 
HETATM   29  C   UNK N   1      20.680  15.759   8.506  0.00  0.00     0.000 A 
HETATM   30  C   UNK N   1      20.197  17.002   8.103  0.00  0.00     0.001 A 
HETATM   31  C   UNK N   1      20.765  17.646   7.000  0.00  0.00     0.008 A 
ENDBRANCH   1  26
TORSDOF 12
ENDMDL
MODEL 7
REMARK VINA RESULT:      -5.7      4.363      7.970
REMARK  12 active torsions:
REMARK  status: ('A' for Active; 'I' for Inactive)
REMARK    1  A    between atoms: C_2  and  C_4 
REMARK    2  A    between atoms: C_4  and  O_6 
REMARK    3  A    between atoms: O_6  and  C_7 
REMARK    4  A    between atoms: C_8  and  C_15 
REMARK    5  A    between atoms: C_10  and  C_13 
REMARK    6  A    between atoms: C_13  and  O_14 
REMARK    7  A    between atoms: C_15  and  C_16 
REMARK    8  A    between atoms: C_15  and  C_25 
REMARK    9  A    between atoms: C_16  and  C_17 
REMARK   10  A    between atoms: C_17  and  N_18 
REMARK   11  A    between atoms: N_18  and  C_19 
REMARK   12  A    between atoms: N_18  and  C_22 
ROOT
HETATM    1  C   UNK N   1      22.627  16.677   5.213  0.00  0.00     0.056 C 
ENDROOT
BRANCH   1   2
HETATM    2  C   UNK N   1      21.903  16.285   6.515  0.00  0.00    -0.015 A 
HETATM    3  C   UNK N   1      22.180  15.052   7.177  0.00  0.00     0.086 A 
HETATM    4  C   UNK N   1      21.478  14.740   8.358  0.00  0.00     0.038 A 
HETATM    5  C   UNK N   1      20.528  15.606   8.890  0.00  0.00     0.012 A 
HETATM    6  C   UNK N   1      20.260  16.816   8.255  0.00  0.00    -0.034 A 
HETATM    7  C   UNK N   1      20.942  17.138   7.086  0.00  0.00     0.020 A 
BRANCH   3   8
HETATM    8  O   UNK N   1      23.134  14.199   6.692  0.00  0.00    -0.278 OA
BRANCH   8   9
HETATM    9  C   UNK N   1      24.382  13.996   7.231  0.00  0.00     0.267 C 
HETATM   10  O   UNK N   1      25.293  14.780   7.019  0.00  0.00    -0.264 OA
BRANCH   9  11
HETATM   11  C   UNK N   1      24.670  12.788   8.080  0.00  0.00     0.078 C 
HETATM   12  C   UNK N   1      24.746  13.173   9.547  0.00  0.00     0.020 C 
HETATM   13  C   UNK N   1      23.666  11.672   7.893  0.00  0.00     0.020 C 
ENDBRANCH   9  11
ENDBRANCH   8   9
ENDBRANCH   3   8
BRANCH   6  14
HETATM   14  C   UNK N   1      19.257  17.783   8.801  0.00  0.00     0.202 C 
BRANCH  14  15
HETATM   15  O   UNK N   1      19.858  18.976   9.214  0.00  0.00    -0.396 OA
HETATM   16  H   UNK N   1      20.010  19.690   8.575  0.00  0.00     0.209 HD
ENDBRANCH  14  15
ENDBRANCH   6  14
ENDBRANCH   1   2
BRANCH   1  17
HETATM   17  C   UNK N   1      23.151  18.123   5.346  0.00  0.00     0.044 C 
BRANCH  17  18
HETATM   18  C   UNK N   1      24.177  18.571   4.288  0.00  0.00     0.274 C 
BRANCH  18  19
HETATM   19  N   UNK N   1      25.552  18.554   4.790  0.00  0.00     0.096 N 
BRANCH  19  20
HETATM   20  C   UNK N   1      26.175  17.230   4.589  0.00  0.00     0.215 C 
HETATM   21  C   UNK N   1      25.880  16.596   3.235  0.00  0.00     0.042 C 
HETATM   22  C   UNK N   1      27.664  17.247   4.888  0.00  0.00     0.042 C 
ENDBRANCH  19  20
BRANCH  19  23
HETATM   23  C   UNK N   1      26.302  19.766   4.409  0.00  0.00     0.215 C 
HETATM   24  C   UNK N   1      25.718  20.372   3.150  0.00  0.00     0.042 C 
HETATM   25  C   UNK N   1      26.441  20.825   5.495  0.00  0.00     0.042 C 
ENDBRANCH  19  23
ENDBRANCH  18  19
ENDBRANCH  17  18
ENDBRANCH   1  17
BRANCH   1  26
HETATM   26  C   UNK N   1      21.920  16.432   3.860  0.00  0.00    -0.050 A 
HETATM   27  C   UNK N   1      22.337  15.365   3.047  0.00  0.00     0.008 A 
HETATM   28  C   UNK N   1      21.710  15.090   1.829  0.00  0.00     0.001 A 
HETATM   29  C   UNK N   1      20.639  15.875   1.404  0.00  0.00     0.000 A 
HETATM   30  C   UNK N   1      20.199  16.934   2.196  0.00  0.00     0.001 A 
HETATM   31  C   UNK N   1      20.836  17.207   3.410  0.00  0.00     0.008 A 
ENDBRANCH   1  26
TORSDOF 12
ENDMDL
MODEL 8
REMARK VINA RESULT:      -5.7     11.962     14.787
REMARK  12 active torsions:
REMARK  status: ('A' for Active; 'I' for Inactive)
REMARK    1  A    between atoms: C_2  and  C_4 
REMARK    2  A    between atoms: C_4  and  O_6 
REMARK    3  A    between atoms: O_6  and  C_7 
REMARK    4  A    between atoms: C_8  and  C_15 
REMARK    5  A    between atoms: C_10  and  C_13 
REMARK    6  A    between atoms: C_13  and  O_14 
REMARK    7  A    between atoms: C_15  and  C_16 
REMARK    8  A    between atoms: C_15  and  C_25 
REMARK    9  A    between atoms: C_16  and  C_17 
REMARK   10  A    between atoms: C_17  and  N_18 
REMARK   11  A    between atoms: N_18  and  C_19 
REMARK   12  A    between atoms: N_18  and  C_22 
ROOT
HETATM    1  C   UNK N   1      27.480  24.363  -5.404  0.00  0.00     0.056 C 
ENDROOT
BRANCH   1   2
HETATM    2  C   UNK N   1      28.985  24.272  -5.089  0.00  0.00    -0.015 A 
HETATM    3  C   UNK N   1      29.949  25.001  -5.847  0.00  0.00     0.086 A 
HETATM    4  C   UNK N   1      31.313  24.869  -5.522  0.00  0.00     0.038 A 
HETATM    5  C   UNK N   1      31.737  24.050  -4.481  0.00  0.00     0.012 A 
HETATM    6  C   UNK N   1      30.802  23.343  -3.730  0.00  0.00    -0.034 A 
HETATM    7  C   UNK N   1      29.451  23.459  -4.040  0.00  0.00     0.020 A 
BRANCH   3   8
HETATM    8  O   UNK N   1      29.554  25.839  -6.854  0.00  0.00    -0.278 OA
BRANCH   8   9
HETATM    9  C   UNK N   1      29.665  27.209  -6.852  0.00  0.00     0.267 C 
HETATM   10  O   UNK N   1      30.549  27.768  -6.223  0.00  0.00    -0.264 OA
BRANCH   9  11
HETATM   11  C   UNK N   1      28.686  28.065  -7.608  0.00  0.00     0.078 C 
HETATM   12  C   UNK N   1      27.730  27.201  -8.411  0.00  0.00     0.020 C 
HETATM   13  C   UNK N   1      27.904  29.007  -6.718  0.00  0.00     0.020 C 
ENDBRANCH   9  11
ENDBRANCH   8   9
ENDBRANCH   3   8
BRANCH   6  14
HETATM   14  C   UNK N   1      31.214  22.462  -2.592  0.00  0.00     0.202 C 
BRANCH  14  15
HETATM   15  O   UNK N   1      30.622  22.858  -1.389  0.00  0.00    -0.396 OA
HETATM   16  H   UNK N   1      29.736  23.253  -1.391  0.00  0.00     0.209 HD
ENDBRANCH  14  15
ENDBRANCH   6  14
ENDBRANCH   1   2
BRANCH   1  17
HETATM   17  C   UNK N   1      27.244  23.917  -6.862  0.00  0.00     0.044 C 
BRANCH  17  18
HETATM   18  C   UNK N   1      26.942  22.421  -7.073  0.00  0.00     0.274 C 
BRANCH  18  19
HETATM   19  N   UNK N   1      27.828  21.798  -8.058  0.00  0.00     0.096 N 
BRANCH  19  20
HETATM   20  C   UNK N   1      28.942  21.088  -7.397  0.00  0.00     0.215 C 
HETATM   21  C   UNK N   1      29.036  19.606  -7.745  0.00  0.00     0.042 C 
HETATM   22  C   UNK N   1      30.270  21.796  -7.598  0.00  0.00     0.042 C 
ENDBRANCH  19  20
BRANCH  19  23
HETATM   23  C   UNK N   1      27.080  21.119  -9.132  0.00  0.00     0.215 C 
HETATM   24  C   UNK N   1      25.631  20.933  -8.728  0.00  0.00     0.042 C 
HETATM   25  C   UNK N   1      27.170  21.763 -10.510  0.00  0.00     0.042 C 
ENDBRANCH  19  23
ENDBRANCH  18  19
ENDBRANCH  17  18
ENDBRANCH   1  17
BRANCH   1  26
HETATM   26  C   UNK N   1      26.720  25.664  -5.058  0.00  0.00    -0.050 A 
HETATM   27  C   UNK N   1      25.581  26.016  -5.800  0.00  0.00     0.008 A 
HETATM   28  C   UNK N   1      24.848  27.168  -5.506  0.00  0.00     0.001 A 
HETATM   29  C   UNK N   1      25.236  27.990  -4.448  0.00  0.00     0.000 A 
HETATM   30  C   UNK N   1      26.357  27.659  -3.690  0.00  0.00     0.001 A 
HETATM   31  C   UNK N   1      27.089  26.507  -3.994  0.00  0.00     0.008 A 
ENDBRANCH   1  26
TORSDOF 12
ENDMDL
MODEL 9
REMARK VINA RESULT:      -5.7     12.332     15.151
REMARK  12 active torsions:
REMARK  status: ('A' for Active; 'I' for Inactive)
REMARK    1  A    between atoms: C_2  and  C_4 
REMARK    2  A    between atoms: C_4  and  O_6 
REMARK    3  A    between atoms: O_6  and  C_7 
REMARK    4  A    between atoms: C_8  and  C_15 
REMARK    5  A    between atoms: C_10  and  C_13 
REMARK    6  A    between atoms: C_13  and  O_14 
REMARK    7  A    between atoms: C_15  and  C_16 
REMARK    8  A    between atoms: C_15  and  C_25 
REMARK    9  A    between atoms: C_16  and  C_17 
REMARK   10  A    between atoms: C_17  and  N_18 
REMARK   11  A    between atoms: N_18  and  C_19 
REMARK   12  A    between atoms: N_18  and  C_22 
ROOT
HETATM    1  C   UNK N   1      28.029  23.710  -6.253  0.00  0.00     0.056 C 
ENDROOT
BRANCH   1   2
HETATM    2  C   UNK N   1      27.469  25.134  -6.080  0.00  0.00    -0.015 A 
HETATM    3  C   UNK N   1      27.401  26.044  -7.177  0.00  0.00     0.086 A 
HETATM    4  C   UNK N   1      26.890  27.339  -6.956  0.00  0.00     0.038 A 
HETATM    5  C   UNK N   1      26.451  27.744  -5.700  0.00  0.00     0.012 A 
HETATM    6  C   UNK N   1      26.505  26.858  -4.628  0.00  0.00    -0.034 A 
HETATM    7  C   UNK N   1      27.009  25.577  -4.827  0.00  0.00     0.020 A 
BRANCH   3   8
HETATM    8  O   UNK N   1      27.795  25.659  -8.428  0.00  0.00    -0.278 OA
BRANCH   8   9
HETATM    9  C   UNK N   1      27.060  25.794  -9.582  0.00  0.00     0.267 C 
HETATM   10  O   UNK N   1      27.375  26.608 -10.436  0.00  0.00    -0.264 OA
BRANCH   9  11
HETATM   11  C   UNK N   1      25.833  24.958  -9.820  0.00  0.00     0.078 C 
HETATM   12  C   UNK N   1      24.769  25.764 -10.542  0.00  0.00     0.020 C 
HETATM   13  C   UNK N   1      26.117  23.682 -10.583  0.00  0.00     0.020 C 
ENDBRANCH   9  11
ENDBRANCH   8   9
ENDBRANCH   3   8
BRANCH   6  14
HETATM   14  C   UNK N   1      26.029  27.248  -3.263  0.00  0.00     0.202 C 
BRANCH  14  15
HETATM   15  O   UNK N   1      25.424  28.508  -3.265  0.00  0.00    -0.396 OA
HETATM   16  H   UNK N   1      24.503  28.605  -3.551  0.00  0.00     0.209 HD
ENDBRANCH  14  15
ENDBRANCH   6  14
ENDBRANCH   1   2
BRANCH   1  17
HETATM   17  C   UNK N   1      29.452  23.798  -6.842  0.00  0.00     0.044 C 
BRANCH  17  18
HETATM   18  C   UNK N   1      30.608  23.794  -5.824  0.00  0.00     0.274 C 
BRANCH  18  19
HETATM   19  N   UNK N   1      30.325  22.966  -4.650  0.00  0.00     0.096 N 
BRANCH  19  20
HETATM   20  C   UNK N   1      31.293  21.855  -4.536  0.00  0.00     0.215 C 
HETATM   21  C   UNK N   1      30.887  20.590  -5.283  0.00  0.00     0.042 C 
HETATM   22  C   UNK N   1      32.704  22.288  -4.889  0.00  0.00     0.042 C 
ENDBRANCH  19  20
BRANCH  19  23
HETATM   23  C   UNK N   1      30.017  23.775  -3.456  0.00  0.00     0.215 C 
HETATM   24  C   UNK N   1      30.309  22.986  -2.195  0.00  0.00     0.042 C 
HETATM   25  C   UNK N   1      30.684  25.143  -3.394  0.00  0.00     0.042 C 
ENDBRANCH  19  23
ENDBRANCH  18  19
ENDBRANCH  17  18
ENDBRANCH   1  17
BRANCH   1  26
HETATM   26  C   UNK N   1      27.163  22.646  -6.967  0.00  0.00    -0.050 A 
HETATM   27  C   UNK N   1      25.766  22.686  -6.828  0.00  0.00     0.008 A 
HETATM   28  C   UNK N   1      24.943  21.762  -7.476  0.00  0.00     0.001 A 
HETATM   29  C   UNK N   1      25.505  20.780  -8.292  0.00  0.00     0.000 A 
HETATM   30  C   UNK N   1      26.888  20.724  -8.455  0.00  0.00     0.001 A 
HETATM   31  C   UNK N   1      27.705  21.648  -7.798  0.00  0.00     0.008 A 
ENDBRANCH   1  26
TORSDOF 12
ENDMDL
