MODEL 1
REMARK VINA RESULT:      -8.0      0.000      0.000
REMARK  2 active torsions:
REMARK  status: ('A' for Active; 'I' for Inactive)
REMARK    1  A    between atoms: O_2  and  N_3 
REMARK    2  A    between atoms: C_5  and  C_16 
ROOT
HETATM    1  O   UNK N   1      37.937  12.743  12.392  0.00  0.00    -0.377 OA
HETATM    2  N   UNK N   1      35.043   9.520  21.122  0.00  0.00    -0.273 N 
ATOM      3  HN  UNK N   1      35.307  10.109  21.912  1.00  0.00     0.193 HD
HETATM    4  C   UNK N   1      36.039  11.897  13.627  0.00  0.00     0.006 C 
HETATM    5  C   UNK N   1      36.301  12.914  14.795  0.00  0.00     0.002 C 
HETATM    6  C   UNK N   1      35.154  13.060  15.857  0.00  0.00    -0.005 C 
HETATM    7  C   UNK N   1      34.566  11.689  16.283  0.00  0.00    -0.002 C 
HETATM    8  C   UNK N   1      36.532  12.707  12.398  0.00  0.00     0.128 C 
HETATM    9  C   UNK N   1      34.543  11.524  13.667  0.00  0.00     0.014 C 
HETATM   10  C   UNK N   1      36.437  14.295  14.128  0.00  0.00     0.010 C 
HETATM   11  C   UNK N   1      34.243  10.828  15.027  0.00  0.00     0.006 C 
HETATM   12  C   UNK N   1      35.504  11.104  17.369  0.00  0.00     0.019 C 
HETATM   13  C   UNK N   1      36.051  14.103  12.673  0.00  0.00     0.052 C 
HETATM   14  C   UNK N   1      35.709  13.920  17.022  0.00  0.00     0.010 C 
HETATM   15  C   UNK N   1      35.312  13.495  18.437  0.00  0.00     0.035 C 
HETATM   16  C   UNK N   1      35.291  12.002  18.600  0.00  0.00    -0.073 C 
HETATM   17  C   UNK N   1      35.356   9.592  17.652  0.00  0.00     0.015 C 
HETATM   18  C   UNK N   1      36.106  12.231  11.075  0.00  0.00    -0.078 C 
HETATM   19  C   UNK N   1      34.402   9.259  18.783  0.00  0.00     0.059 C 
HETATM   20  C   UNK N   1      34.986  11.505  19.808  0.00  0.00     0.030 C 
HETATM   21  C   UNK N   1      34.807  10.063  19.981  0.00  0.00     0.032 C 
HETATM   22  C   UNK N   1      35.792  11.892   9.961  0.00  0.00     0.015 C 
HETATM   23  H   UNK N   1      38.892  12.889  12.479  0.00  0.00     0.211 HD
ENDROOT
BRANCH   4  24
HETATM   24  C   UNK N   1      36.876  10.586  13.607  0.00  0.00     0.009 C 
HETATM   25  C   UNK N   1      37.912  10.370  14.688  0.00  0.00     0.006 C 
ENDBRANCH   4  24
BRANCH   2  26
HETATM   26  O   UNK N   1      34.951   8.217  21.289  0.00  0.00    -0.290 OA
HETATM   27  H   UNK N   1      34.195   7.756  20.984  0.00  0.00     0.244 HD
ENDBRANCH   2  26
TORSDOF 2
ENDMDL
MODEL 2
REMARK VINA RESULT:      -7.6      2.426      3.830
REMARK  2 active torsions:
REMARK  status: ('A' for Active; 'I' for Inactive)
REMARK    1  A    between atoms: O_2  and  N_3 
REMARK    2  A    between atoms: C_5  and  C_16 
ROOT
HETATM    1  O   UNK N   1      34.655   8.348  12.285  0.00  0.00    -0.377 OA
HETATM    2  N   UNK N   1      34.620  13.232  20.719  0.00  0.00    -0.273 N 
ATOM      3  HN  UNK N   1      34.554  12.652  21.556  1.00  0.00     0.193 HD
HETATM    4  C   UNK N   1      35.783  10.079  13.541  0.00  0.00     0.006 C 
HETATM    5  C   UNK N   1      35.867   9.153  14.807  0.00  0.00     0.002 C 
HETATM    6  C   UNK N   1      36.808   9.645  15.964  0.00  0.00    -0.005 C 
HETATM    7  C   UNK N   1      36.647  11.160  16.253  0.00  0.00    -0.002 C 
HETATM    8  C   UNK N   1      35.875   9.037  12.394  0.00  0.00     0.128 C 
HETATM    9  C   UNK N   1      36.926  11.109  13.647  0.00  0.00     0.014 C 
HETATM   10  C   UNK N   1      36.462   7.820  14.317  0.00  0.00     0.010 C 
HETATM   11  C   UNK N   1      36.700  11.970  14.924  0.00  0.00     0.006 C 
HETATM   12  C   UNK N   1      35.415  11.323  17.179  0.00  0.00     0.019 C 
HETATM   13  C   UNK N   1      36.901   8.054  12.883  0.00  0.00     0.052 C 
HETATM   14  C   UNK N   1      36.563   8.720  17.185  0.00  0.00     0.010 C 
HETATM   15  C   UNK N   1      36.537   9.392  18.559  0.00  0.00     0.035 C 
HETATM   16  C   UNK N   1      35.855  10.730  18.528  0.00  0.00    -0.073 C 
HETATM   17  C   UNK N   1      34.820  12.747  17.273  0.00  0.00     0.015 C 
HETATM   18  C   UNK N   1      36.203   9.551  11.057  0.00  0.00    -0.078 C 
HETATM   19  C   UNK N   1      35.364  13.575  18.421  0.00  0.00     0.059 C 
HETATM   20  C   UNK N   1      35.742  11.406  19.681  0.00  0.00     0.030 C 
HETATM   21  C   UNK N   1      35.221  12.773  19.680  0.00  0.00     0.032 C 
HETATM   22  C   UNK N   1      36.468   9.907   9.935  0.00  0.00     0.015 C 
HETATM   23  H   UNK N   1      33.869   7.781  12.317  0.00  0.00     0.211 HD
ENDROOT
BRANCH   4  24
HETATM   24  C   UNK N   1      34.452  10.840  13.287  0.00  0.00     0.009 C 
HETATM   25  C   UNK N   1      33.384  10.811  14.358  0.00  0.00     0.006 C 
ENDBRANCH   4  24
BRANCH   2  26
HETATM   26  O   UNK N   1      34.085  14.434  20.722  0.00  0.00    -0.290 OA
HETATM   27  H   UNK N   1      33.281  14.593  20.267  0.00  0.00     0.244 HD
ENDBRANCH   2  26
TORSDOF 2
ENDMDL
MODEL 3
REMARK VINA RESULT:      -7.2      3.014      7.041
REMARK  2 active torsions:
REMARK  status: ('A' for Active; 'I' for Inactive)
REMARK    1  A    between atoms: O_2  and  N_3 
REMARK    2  A    between atoms: C_5  and  C_16 
ROOT
HETATM    1  O   UNK N   1      36.480   9.945  18.663  0.00  0.00    -0.377 OA
HETATM    2  N   UNK N   1      36.946  15.432  10.621  0.00  0.00    -0.273 N 
ATOM      3  HN  UNK N   1      37.829  15.382  10.112  1.00  0.00     0.193 HD
HETATM    4  C   UNK N   1      35.311  10.526  16.627  0.00  0.00     0.006 C 
HETATM    5  C   UNK N   1      36.607  10.286  15.774  0.00  0.00     0.002 C 
HETATM    6  C   UNK N   1      36.411  10.231  14.217  0.00  0.00    -0.005 C 
HETATM    7  C   UNK N   1      35.466  11.348  13.700  0.00  0.00    -0.002 C 
HETATM    8  C   UNK N   1      35.498   9.488  17.767  0.00  0.00     0.128 C 
HETATM    9  C   UNK N   1      34.100  10.331  15.692  0.00  0.00     0.014 C 
HETATM   10  C   UNK N   1      37.131   8.898  16.183  0.00  0.00     0.010 C 
HETATM   11  C   UNK N   1      34.171  11.399  14.561  0.00  0.00     0.006 C 
HETATM   12  C   UNK N   1      36.316  12.636  13.552  0.00  0.00     0.019 C 
HETATM   13  C   UNK N   1      36.060   8.284  17.066  0.00  0.00     0.052 C 
HETATM   14  C   UNK N   1      37.822  10.222  13.572  0.00  0.00     0.010 C 
HETATM   15  C   UNK N   1      38.000  11.056  12.302  0.00  0.00     0.035 C 
HETATM   16  C   UNK N   1      37.251  12.357  12.363  0.00  0.00    -0.073 C 
HETATM   17  C   UNK N   1      35.528  13.961  13.445  0.00  0.00     0.015 C 
HETATM   18  C   UNK N   1      34.309   9.155  18.562  0.00  0.00    -0.078 C 
HETATM   19  C   UNK N   1      35.237  14.400  12.022  0.00  0.00     0.059 C 
HETATM   20  C   UNK N   1      37.354  13.192  11.319  0.00  0.00     0.030 C 
HETATM   21  C   UNK N   1      36.530  14.400  11.264  0.00  0.00     0.032 C 
HETATM   22  C   UNK N   1      33.372   8.837  19.252  0.00  0.00     0.015 C 
HETATM   23  H   UNK N   1      37.257  10.196  19.186  0.00  0.00     0.211 HD
ENDROOT
BRANCH   4  24
HETATM   24  C   UNK N   1      35.163  11.894  17.351  0.00  0.00     0.009 C 
HETATM   25  C   UNK N   1      36.074  13.032  16.945  0.00  0.00     0.006 C 
ENDBRANCH   4  24
BRANCH   2  26
HETATM   26  O   UNK N   1      36.256  16.553  10.610  0.00  0.00    -0.290 OA
HETATM   27  H   UNK N   1      35.855  16.850   9.816  0.00  0.00     0.244 HD
ENDBRANCH   2  26
TORSDOF 2
ENDMDL
MODEL 4
REMARK VINA RESULT:      -7.1      6.675     10.113
REMARK  2 active torsions:
REMARK  status: ('A' for Active; 'I' for Inactive)
REMARK    1  A    between atoms: O_2  and  N_3 
REMARK    2  A    between atoms: C_5  and  C_16 
ROOT
HETATM    1  O   UNK N   1      33.255  15.368   2.799  0.00  0.00    -0.377 OA
HETATM    2  N   UNK N   1      36.629  15.250  11.942  0.00  0.00    -0.273 N 
ATOM      3  HN  UNK N   1      37.198  16.054  12.205  1.00  0.00     0.193 HD
HETATM    4  C   UNK N   1      32.621  15.030   5.108  0.00  0.00     0.006 C 
HETATM    5  C   UNK N   1      33.335  16.362   5.535  0.00  0.00     0.002 C 
HETATM    6  C   UNK N   1      33.022  16.882   6.983  0.00  0.00    -0.005 C 
HETATM    7  C   UNK N   1      33.044  15.744   8.037  0.00  0.00    -0.002 C 
HETATM    8  C   UNK N   1      32.152  15.380   3.670  0.00  0.00     0.128 C 
HETATM    9  C   UNK N   1      31.525  14.738   6.152  0.00  0.00     0.014 C 
HETATM   10  C   UNK N   1      32.812  17.446   4.575  0.00  0.00     0.010 C 
HETATM   11  C   UNK N   1      32.203  14.532   7.538  0.00  0.00     0.006 C 
HETATM   12  C   UNK N   1      34.524  15.513   8.434  0.00  0.00     0.019 C 
HETATM   13  C   UNK N   1      31.689  16.805   3.782  0.00  0.00     0.052 C 
HETATM   14  C   UNK N   1      33.993  18.056   7.274  0.00  0.00     0.010 C 
HETATM   15  C   UNK N   1      34.581  18.126   8.684  0.00  0.00     0.035 C 
HETATM   16  C   UNK N   1      34.919  16.769   9.231  0.00  0.00    -0.073 C 
HETATM   17  C   UNK N   1      34.835  14.180   9.152  0.00  0.00     0.015 C 
HETATM   18  C   UNK N   1      31.124  14.514   3.078  0.00  0.00    -0.078 C 
HETATM   19  C   UNK N   1      34.799  14.264  10.666  0.00  0.00     0.059 C 
HETATM   20  C   UNK N   1      35.470  16.701  10.451  0.00  0.00     0.030 C 
HETATM   21  C   UNK N   1      35.681  15.400  11.088  0.00  0.00     0.032 C 
HETATM   22  C   UNK N   1      30.282  13.842   2.535  0.00  0.00     0.015 C 
HETATM   23  H   UNK N   1      34.037  15.503   2.242  0.00  0.00     0.211 HD
ENDROOT
BRANCH   4  24
HETATM   24  C   UNK N   1      33.500  13.758   4.944  0.00  0.00     0.009 C 
HETATM   25  C   UNK N   1      34.985  13.861   5.218  0.00  0.00     0.006 C 
ENDBRANCH   4  24
BRANCH   2  26
HETATM   26  O   UNK N   1      36.881  14.076  12.481  0.00  0.00    -0.290 OA
HETATM   27  H   UNK N   1      37.732  13.692  12.397  0.00  0.00     0.244 HD
ENDBRANCH   2  26
TORSDOF 2
ENDMDL
MODEL 5
REMARK VINA RESULT:      -7.0     22.297     25.524
REMARK  2 active torsions:
REMARK  status: ('A' for Active; 'I' for Inactive)
REMARK    1  A    between atoms: O_2  and  N_3 
REMARK    2  A    between atoms: C_5  and  C_16 
ROOT
HETATM    1  O   UNK N   1      32.644  22.189  -6.167  0.00  0.00    -0.377 OA
HETATM    2  N   UNK N   1      25.379  28.472  -4.513  0.00  0.00    -0.273 N 
ATOM      3  HN  UNK N   1      24.697  28.556  -5.267  1.00  0.00     0.193 HD
HETATM    4  C   UNK N   1      30.974  22.859  -4.552  0.00  0.00     0.006 C 
HETATM    5  C   UNK N   1      29.850  22.828  -5.648  0.00  0.00     0.002 C 
HETATM    6  C   UNK N   1      28.371  22.911  -5.128  0.00  0.00    -0.005 C 
HETATM    7  C   UNK N   1      28.195  23.981  -4.018  0.00  0.00    -0.002 C 
HETATM    8  C   UNK N   1      31.921  21.735  -5.051  0.00  0.00     0.128 C 
HETATM    9  C   UNK N   1      30.291  22.646  -3.185  0.00  0.00     0.014 C 
HETATM   10  C   UNK N   1      29.978  21.460  -6.344  0.00  0.00     0.010 C 
HETATM   11  C   UNK N   1      29.303  23.824  -2.937  0.00  0.00     0.006 C 
HETATM   12  C   UNK N   1      28.028  25.351  -4.724  0.00  0.00     0.019 C 
HETATM   13  C   UNK N   1      30.983  20.664  -5.532  0.00  0.00     0.052 C 
HETATM   14  C   UNK N   1      27.454  23.098  -6.364  0.00  0.00     0.010 C 
HETATM   15  C   UNK N   1      26.282  24.068  -6.207  0.00  0.00     0.035 C 
HETATM   16  C   UNK N   1      26.648  25.281  -5.400  0.00  0.00    -0.073 C 
HETATM   17  C   UNK N   1      28.241  26.600  -3.840  0.00  0.00     0.015 C 
HETATM   18  C   UNK N   1      32.898  21.213  -4.086  0.00  0.00    -0.078 C 
HETATM   19  C   UNK N   1      26.970  27.150  -3.220  0.00  0.00     0.059 C 
HETATM   20  C   UNK N   1      25.710  26.221  -5.217  0.00  0.00     0.030 C 
HETATM   21  C   UNK N   1      25.968  27.347  -4.318  0.00  0.00     0.032 C 
HETATM   22  C   UNK N   1      33.724  20.743  -3.343  0.00  0.00     0.015 C 
HETATM   23  H   UNK N   1      33.022  22.458  -7.019  0.00  0.00     0.211 HD
ENDROOT
BRANCH   4  24
HETATM   24  C   UNK N   1      31.868  24.128  -4.466  0.00  0.00     0.009 C 
HETATM   25  C   UNK N   1      31.591  25.276  -5.413  0.00  0.00     0.006 C 
ENDBRANCH   4  24
BRANCH   2  26
HETATM   26  O   UNK N   1      25.640  29.519  -3.759  0.00  0.00    -0.290 OA
HETATM   27  H   UNK N   1      26.180  30.212  -4.087  0.00  0.00     0.244 HD
ENDBRANCH   2  26
TORSDOF 2
ENDMDL
MODEL 6
REMARK VINA RESULT:      -6.9     13.649     15.447
REMARK  2 active torsions:
REMARK  status: ('A' for Active; 'I' for Inactive)
REMARK    1  A    between atoms: O_2  and  N_3 
REMARK    2  A    between atoms: C_5  and  C_16 
ROOT
HETATM    1  O   UNK N   1      25.366  17.208   4.572  0.00  0.00    -0.377 OA
HETATM    2  N   UNK N   1      22.091  11.963  12.106  0.00  0.00    -0.273 N 
ATOM      3  HN  UNK N   1      21.445  12.451  12.726  1.00  0.00     0.193 HD
HETATM    4  C   UNK N   1      24.398  15.082   5.194  0.00  0.00     0.006 C 
HETATM    5  C   UNK N   1      23.269  15.798   6.019  0.00  0.00     0.002 C 
HETATM    6  C   UNK N   1      22.069  14.896   6.479  0.00  0.00    -0.005 C 
HETATM    7  C   UNK N   1      22.538  13.526   7.036  0.00  0.00    -0.002 C 
HETATM    8  C   UNK N   1      24.650  16.112   4.061  0.00  0.00     0.128 C 
HETATM    9  C   UNK N   1      23.857  13.699   4.777  0.00  0.00     0.014 C 
HETATM   10  C   UNK N   1      22.666  16.856   5.078  0.00  0.00     0.010 C 
HETATM   11  C   UNK N   1      23.564  12.873   6.065  0.00  0.00     0.006 C 
HETATM   12  C   UNK N   1      22.945  13.747   8.515  0.00  0.00     0.019 C 
HETATM   13  C   UNK N   1      23.274  16.604   3.711  0.00  0.00     0.052 C 
HETATM   14  C   UNK N   1      21.207  15.735   7.458  0.00  0.00     0.010 C 
HETATM   15  C   UNK N   1      20.646  15.003   8.678  0.00  0.00     0.035 C 
HETATM   16  C   UNK N   1      21.623  14.017   9.253  0.00  0.00    -0.073 C 
HETATM   17  C   UNK N   1      23.815  12.639   9.153  0.00  0.00     0.015 C 
HETATM   18  C   UNK N   1      25.378  15.633   2.879  0.00  0.00    -0.078 C 
HETATM   19  C   UNK N   1      23.025  11.572   9.886  0.00  0.00     0.059 C 
HETATM   20  C   UNK N   1      21.257  13.332  10.346  0.00  0.00     0.030 C 
HETATM   21  C   UNK N   1      22.109  12.258  10.855  0.00  0.00     0.032 C 
HETATM   22  C   UNK N   1      25.971  15.303   1.881  0.00  0.00     0.015 C 
HETATM   23  H   UNK N   1      25.725  18.019   4.965  0.00  0.00     0.211 HD
ENDROOT
BRANCH   4  24
HETATM   24  C   UNK N   1      25.781  14.888   5.876  0.00  0.00     0.009 C 
HETATM   25  C   UNK N   1      25.951  15.330   7.313  0.00  0.00     0.006 C 
ENDBRANCH   4  24
BRANCH   2  26
HETATM   26  O   UNK N   1      22.894  11.045  12.602  0.00  0.00    -0.290 OA
HETATM   27  H   UNK N   1      22.539  10.273  12.995  0.00  0.00     0.244 HD
ENDBRANCH   2  26
TORSDOF 2
ENDMDL
MODEL 7
REMARK VINA RESULT:      -6.5      6.185     10.368
REMARK  2 active torsions:
REMARK  status: ('A' for Active; 'I' for Inactive)
REMARK    1  A    between atoms: O_2  and  N_3 
REMARK    2  A    between atoms: C_5  and  C_16 
ROOT
HETATM    1  O   UNK N   1      34.309  12.781  12.282  0.00  0.00    -0.377 OA
HETATM    2  N   UNK N   1      32.601  16.926   3.628  0.00  0.00    -0.273 N 
ATOM      3  HN  UNK N   1      32.107  17.817   3.663  1.00  0.00     0.193 HD
HETATM    4  C   UNK N   1      35.332  13.405  10.182  0.00  0.00     0.006 C 
HETATM    5  C   UNK N   1      34.737  14.855  10.283  0.00  0.00     0.002 C 
HETATM    6  C   UNK N   1      35.312  15.912   9.274  0.00  0.00    -0.005 C 
HETATM    7  C   UNK N   1      35.451  15.343   7.838  0.00  0.00    -0.002 C 
HETATM    8  C   UNK N   1      35.548  13.058  11.680  0.00  0.00     0.128 C 
HETATM    9  C   UNK N   1      36.589  13.484   9.292  0.00  0.00     0.014 C 
HETATM   10  C   UNK N   1      35.106  15.366  11.687  0.00  0.00     0.010 C 
HETATM   11  C   UNK N   1      36.162  13.959   7.872  0.00  0.00     0.006 C 
HETATM   12  C   UNK N   1      34.059  15.452   7.165  0.00  0.00     0.019 C 
HETATM   13  C   UNK N   1      36.057  14.340  12.275  0.00  0.00     0.052 C 
HETATM   14  C   UNK N   1      34.435  17.186   9.388  0.00  0.00     0.010 C 
HETATM   15  C   UNK N   1      34.108  17.911   8.082  0.00  0.00     0.035 C 
HETATM   16  C   UNK N   1      33.840  16.960   6.951  0.00  0.00    -0.073 C 
HETATM   17  C   UNK N   1      33.848  14.593   5.897  0.00  0.00     0.015 C 
HETATM   18  C   UNK N   1      36.435  11.925  11.977  0.00  0.00    -0.078 C 
HETATM   19  C   UNK N   1      34.154  15.313   4.598  0.00  0.00     0.059 C 
HETATM   20  C   UNK N   1      33.512  17.476   5.758  0.00  0.00     0.030 C 
HETATM   21  C   UNK N   1      33.387  16.601   4.592  0.00  0.00     0.032 C 
HETATM   22  C   UNK N   1      37.152  11.006  12.288  0.00  0.00     0.015 C 
HETATM   23  H   UNK N   1      33.444  12.740  12.719  0.00  0.00     0.211 HD
ENDROOT
BRANCH   4  24
HETATM   24  C   UNK N   1      34.409  12.279   9.638  0.00  0.00     0.009 C 
HETATM   25  C   UNK N   1      33.062  12.659   9.064  0.00  0.00     0.006 C 
ENDBRANCH   4  24
BRANCH   2  26
HETATM   26  O   UNK N   1      32.421  16.127   2.597  0.00  0.00    -0.290 OA
HETATM   27  H   UNK N   1      31.554  15.921   2.308  0.00  0.00     0.244 HD
ENDBRANCH   2  26
TORSDOF 2
ENDMDL
MODEL 8
REMARK VINA RESULT:      -6.5      1.262      1.713
REMARK  2 active torsions:
REMARK  status: ('A' for Active; 'I' for Inactive)
REMARK    1  A    between atoms: O_2  and  N_3 
REMARK    2  A    between atoms: C_5  and  C_16 
ROOT
HETATM    1  O   UNK N   1      37.272  11.183  10.663  0.00  0.00    -0.377 OA
HETATM    2  N   UNK N   1      35.432  10.122  20.175  0.00  0.00    -0.273 N 
ATOM      3  HN  UNK N   1      35.849  10.829  20.780  1.00  0.00     0.193 HD
HETATM    4  C   UNK N   1      35.514  10.805  12.280  0.00  0.00     0.006 C 
HETATM    5  C   UNK N   1      36.015  12.007  13.158  0.00  0.00     0.002 C 
HETATM    6  C   UNK N   1      35.046  12.483  14.298  0.00  0.00    -0.005 C 
HETATM    7  C   UNK N   1      34.426  11.295  15.080  0.00  0.00    -0.002 C 
HETATM    8  C   UNK N   1      35.884  11.292  10.853  0.00  0.00     0.128 C 
HETATM    9  C   UNK N   1      34.016  10.603  12.586  0.00  0.00     0.014 C 
HETATM   10  C   UNK N   1      36.155  13.201  12.197  0.00  0.00     0.010 C 
HETATM   11  C   UNK N   1      33.863  10.234  14.091  0.00  0.00     0.006 C 
HETATM   12  C   UNK N   1      35.465  10.851  16.142  0.00  0.00     0.019 C 
HETATM   13  C   UNK N   1      35.551  12.757  10.877  0.00  0.00     0.052 C 
HETATM   14  C   UNK N   1      35.824  13.501  15.172  0.00  0.00     0.010 C 
HETATM   15  C   UNK N   1      35.605  13.416  16.683  0.00  0.00     0.035 C 
HETATM   16  C   UNK N   1      35.497  11.998  17.166  0.00  0.00    -0.073 C 
HETATM   17  C   UNK N   1      35.248   9.451  16.760  0.00  0.00     0.015 C 
HETATM   18  C   UNK N   1      35.238  10.603   9.728  0.00  0.00    -0.078 C 
HETATM   19  C   UNK N   1      34.444   9.456  18.046  0.00  0.00     0.059 C 
HETATM   20  C   UNK N   1      35.333  11.792  18.481  0.00  0.00     0.030 C 
HETATM   21  C   UNK N   1      35.075  10.442  18.983  0.00  0.00     0.032 C 
HETATM   22  C   UNK N   1      34.743  10.078   8.761  0.00  0.00     0.015 C 
HETATM   23  H   UNK N   1      38.237  11.245  10.597  0.00  0.00     0.211 HD
ENDROOT
BRANCH   4  24
HETATM   24  C   UNK N   1      36.240   9.439  12.438  0.00  0.00     0.009 C 
HETATM   25  C   UNK N   1      37.268   9.288  13.538  0.00  0.00     0.006 C 
ENDBRANCH   4  24
BRANCH   2  26
HETATM   26  O   UNK N   1      35.270   8.897  20.630  0.00  0.00    -0.290 OA
HETATM   27  H   UNK N   1      35.764   8.190  20.264  0.00  0.00     0.244 HD
ENDBRANCH   2  26
TORSDOF 2
ENDMDL
MODEL 9
REMARK VINA RESULT:      -6.4     22.720     24.722
REMARK  2 active torsions:
REMARK  status: ('A' for Active; 'I' for Inactive)
REMARK    1  A    between atoms: O_2  and  N_3 
REMARK    2  A    between atoms: C_5  and  C_16 
ROOT
HETATM    1  O   UNK N   1      34.543  21.239  -7.015  0.00  0.00    -0.377 OA
HETATM    2  N   UNK N   1      26.301  25.509  -4.045  0.00  0.00    -0.273 N 
ATOM      3  HN  UNK N   1      25.696  25.852  -4.791  1.00  0.00     0.193 HD
HETATM    4  C   UNK N   1      32.635  20.990  -5.551  0.00  0.00     0.006 C 
HETATM    5  C   UNK N   1      31.648  21.339  -6.721  0.00  0.00     0.002 C 
HETATM    6  C   UNK N   1      30.127  21.056  -6.453  0.00  0.00    -0.005 C 
HETATM    7  C   UNK N   1      29.681  21.517  -5.040  0.00  0.00    -0.002 C 
HETATM    8  C   UNK N   1      33.783  20.283  -6.320  0.00  0.00     0.128 C 
HETATM    9  C   UNK N   1      31.853  20.145  -4.525  0.00  0.00     0.014 C 
HETATM   10  C   UNK N   1      32.046  20.427  -7.896  0.00  0.00     0.010 C 
HETATM   11  C   UNK N   1      30.682  21.005  -3.965  0.00  0.00     0.006 C 
HETATM   12  C   UNK N   1      29.388  23.037  -5.124  0.00  0.00     0.019 C 
HETATM   13  C   UNK N   1      33.068  19.450  -7.346  0.00  0.00     0.052 C 
HETATM   14  C   UNK N   1      29.325  21.681  -7.624  0.00  0.00     0.010 C 
HETATM   15  C   UNK N   1      28.013  22.378  -7.262  0.00  0.00     0.035 C 
HETATM   16  C   UNK N   1      28.110  23.146  -5.974  0.00  0.00    -0.073 C 
HETATM   17  C   UNK N   1      29.322  23.792  -3.777  0.00  0.00     0.015 C 
HETATM   18  C   UNK N   1      34.722  19.482  -5.522  0.00  0.00    -0.078 C 
HETATM   19  C   UNK N   1      27.927  23.903  -3.192  0.00  0.00     0.059 C 
HETATM   20  C   UNK N   1      27.031  23.827  -5.565  0.00  0.00     0.030 C 
HETATM   21  C   UNK N   1      27.026  24.468  -4.249  0.00  0.00     0.032 C 
HETATM   22  C   UNK N   1      35.526  18.811  -4.925  0.00  0.00     0.015 C 
HETATM   23  H   UNK N   1      34.964  21.883  -7.605  0.00  0.00     0.211 HD
ENDROOT
BRANCH   4  24
HETATM   24  C   UNK N   1      33.319  22.169  -4.803  0.00  0.00     0.009 C 
HETATM   25  C   UNK N   1      32.976  23.584  -5.214  0.00  0.00     0.006 C 
ENDBRANCH   4  24
BRANCH   2  26
HETATM   26  O   UNK N   1      26.326  26.143  -2.891  0.00  0.00    -0.290 OA
HETATM   27  H   UNK N   1      26.003  27.020  -2.829  0.00  0.00     0.244 HD
ENDBRANCH   2  26
TORSDOF 2
ENDMDL
