MODEL 1
REMARK VINA RESULT:      -4.8      0.000      0.000
REMARK  11 active torsions:
REMARK  status: ('A' for Active; 'I' for Inactive)
REMARK    1  A    between atoms: O_1  and  C_9 
REMARK    2  A    between atoms: O_1  and  C_13 
REMARK    3  A    between atoms: N_4  and  C_15 
REMARK    4  A    between atoms: C_5  and  C_6 
REMARK    5  A    between atoms: C_5  and  C_7 
REMARK    6  A    between atoms: C_6  and  C_8 
REMARK    7  A    between atoms: C_7  and  C_9 
REMARK    8  A    between atoms: C_11  and  C_12 
REMARK    9  A    between atoms: C_11  and  C_13 
REMARK   10  A    between atoms: C_12  and  C_14 
REMARK   11  A    between atoms: C_14  and  C_15 
ROOT
HETATM    1  O   UNK N   1      31.792  15.966   6.502  0.00  0.00    -0.265 OA
HETATM    2  C   UNK N   1      31.231  16.768   7.238  0.00  0.00     0.259 C 
ENDROOT
BRANCH   2   3
HETATM    3  O   UNK N   1      29.879  16.817   7.295  0.00  0.00    -0.321 OA
BRANCH   3   4
HETATM    4  C   UNK N   1      29.228  17.967   7.670  0.00  0.00     0.178 C 
BRANCH   4   5
HETATM    5  C   UNK N   1      28.373  18.492   6.542  0.00  0.00     0.027 C 
BRANCH   5   6
HETATM    6  C   UNK N   1      27.796  19.812   6.999  0.00  0.00     0.002 C 
BRANCH   6   7
HETATM    7  C   UNK N   1      27.431  20.676   5.815  0.00  0.00    -0.000 C 
BRANCH   7   8
HETATM    8  C   UNK N   1      27.550  19.837   4.560  0.00  0.00    -0.005 C 
HETATM    9  C   UNK N   1      26.599  20.358   3.507  0.00  0.00     0.005 C 
ENDBRANCH   7   8
ENDBRANCH   6   7
ENDBRANCH   5   6
ENDBRANCH   4   5
ENDBRANCH   3   4
ENDBRANCH   2   3
BRANCH   2  10
HETATM   10  C   UNK N   1      32.033  17.712   8.084  0.00  0.00     0.118 C 
BRANCH  10  11
HETATM   11  C   UNK N   1      33.375  18.044   7.439  0.00  0.00     0.090 C 
BRANCH  11  12
HETATM   12  C   UNK N   1      34.510  18.083   8.413  0.00  0.00     0.155 C 
HETATM   13  O   UNK N   1      35.214  19.078   8.517  0.00  0.00    -0.296 OA
BRANCH  12  14
HETATM   14  C   UNK N   1      34.759  16.872   9.265  0.00  0.00     0.344 C 
BRANCH  14  15
HETATM   15  N   UNK N   1      35.114  17.219  10.633  0.00  0.00     0.085 N 
HETATM   16  H   UNK N   1      35.160  18.262  10.679  0.00  0.00     0.313 HD
HETATM   17  H   UNK N   1      34.351  16.912  11.277  0.00  0.00     0.313 HD
ENDBRANCH  14  15
ENDBRANCH  12  14
ENDBRANCH  11  12
ENDBRANCH  10  11
ENDBRANCH   2  10
TORSDOF 11
ENDMDL
MODEL 2
REMARK VINA RESULT:      -4.5     10.083     11.829
REMARK  11 active torsions:
REMARK  status: ('A' for Active; 'I' for Inactive)
REMARK    1  A    between atoms: O_1  and  C_9 
REMARK    2  A    between atoms: O_1  and  C_13 
REMARK    3  A    between atoms: N_4  and  C_15 
REMARK    4  A    between atoms: C_5  and  C_6 
REMARK    5  A    between atoms: C_5  and  C_7 
REMARK    6  A    between atoms: C_6  and  C_8 
REMARK    7  A    between atoms: C_7  and  C_9 
REMARK    8  A    between atoms: C_11  and  C_12 
REMARK    9  A    between atoms: C_11  and  C_13 
REMARK   10  A    between atoms: C_12  and  C_14 
REMARK   11  A    between atoms: C_14  and  C_15 
ROOT
HETATM    1  O   UNK N   1      19.718  13.960   9.707  0.00  0.00    -0.265 OA
HETATM    2  C   UNK N   1      20.241  14.497   8.739  0.00  0.00     0.259 C 
ENDROOT
BRANCH   2   3
HETATM    3  O   UNK N   1      20.372  13.827   7.571  0.00  0.00    -0.321 OA
BRANCH   3   4
HETATM    4  C   UNK N   1      21.199  12.734   7.470  0.00  0.00     0.178 C 
BRANCH   4   5
HETATM    5  C   UNK N   1      22.561  13.037   8.047  0.00  0.00     0.027 C 
BRANCH   5   6
HETATM    6  C   UNK N   1      22.883  11.934   9.028  0.00  0.00     0.002 C 
BRANCH   6   7
HETATM    7  C   UNK N   1      23.342  12.507  10.348  0.00  0.00    -0.000 C 
BRANCH   7   8
HETATM    8  C   UNK N   1      22.355  12.088  11.417  0.00  0.00    -0.005 C 
HETATM    9  C   UNK N   1      23.072  11.923  12.737  0.00  0.00     0.005 C 
ENDBRANCH   7   8
ENDBRANCH   6   7
ENDBRANCH   5   6
ENDBRANCH   4   5
ENDBRANCH   3   4
ENDBRANCH   2   3
BRANCH   2  10
HETATM   10  C   UNK N   1      20.750  15.905   8.835  0.00  0.00     0.118 C 
BRANCH  10  11
HETATM   11  C   UNK N   1      19.986  16.843   7.904  0.00  0.00     0.090 C 
BRANCH  11  12
HETATM   12  C   UNK N   1      20.871  17.597   6.963  0.00  0.00     0.155 C 
HETATM   13  O   UNK N   1      21.012  18.808   7.067  0.00  0.00    -0.296 OA
BRANCH  12  14
HETATM   14  C   UNK N   1      21.589  16.828   5.890  0.00  0.00     0.344 C 
BRANCH  14  15
HETATM   15  N   UNK N   1      23.036  16.921   6.016  0.00  0.00     0.085 N 
HETATM   16  H   UNK N   1      23.330  16.179   6.690  0.00  0.00     0.313 HD
HETATM   17  H   UNK N   1      23.478  16.700   5.095  0.00  0.00     0.313 HD
ENDBRANCH  14  15
ENDBRANCH  12  14
ENDBRANCH  11  12
ENDBRANCH  10  11
ENDBRANCH   2  10
TORSDOF 11
ENDMDL
MODEL 3
REMARK VINA RESULT:      -4.5      6.058     10.059
REMARK  11 active torsions:
REMARK  status: ('A' for Active; 'I' for Inactive)
REMARK    1  A    between atoms: O_1  and  C_9 
REMARK    2  A    between atoms: O_1  and  C_13 
REMARK    3  A    between atoms: N_4  and  C_15 
REMARK    4  A    between atoms: C_5  and  C_6 
REMARK    5  A    between atoms: C_5  and  C_7 
REMARK    6  A    between atoms: C_6  and  C_8 
REMARK    7  A    between atoms: C_7  and  C_9 
REMARK    8  A    between atoms: C_11  and  C_12 
REMARK    9  A    between atoms: C_11  and  C_13 
REMARK   10  A    between atoms: C_12  and  C_14 
REMARK   11  A    between atoms: C_14  and  C_15 
ROOT
HETATM    1  O   UNK N   1      34.540  13.619  12.552  0.00  0.00    -0.265 OA
HETATM    2  C   UNK N   1      35.664  14.036  12.802  0.00  0.00     0.259 C 
ENDROOT
BRANCH   2   3
HETATM    3  O   UNK N   1      36.510  13.311  13.571  0.00  0.00    -0.321 OA
BRANCH   3   4
HETATM    4  C   UNK N   1      36.589  13.519  14.927  0.00  0.00     0.178 C 
BRANCH   4   5
HETATM    5  C   UNK N   1      36.490  12.213  15.677  0.00  0.00     0.027 C 
BRANCH   5   6
HETATM    6  C   UNK N   1      35.039  12.028  16.057  0.00  0.00     0.002 C 
BRANCH   6   7
HETATM    7  C   UNK N   1      34.556  10.649  15.676  0.00  0.00    -0.000 C 
BRANCH   7   8
HETATM    8  C   UNK N   1      33.524  10.793  14.577  0.00  0.00    -0.005 C 
HETATM    9  C   UNK N   1      34.094  10.283  13.273  0.00  0.00     0.005 C 
ENDBRANCH   7   8
ENDBRANCH   6   7
ENDBRANCH   5   6
ENDBRANCH   4   5
ENDBRANCH   3   4
ENDBRANCH   2   3
BRANCH   2  10
HETATM   10  C   UNK N   1      36.119  15.361  12.264  0.00  0.00     0.118 C 
BRANCH  10  11
HETATM   11  C   UNK N   1      36.123  15.376  10.738  0.00  0.00     0.090 C 
BRANCH  11  12
HETATM   12  C   UNK N   1      35.258  16.446  10.152  0.00  0.00     0.155 C 
HETATM   13  O   UNK N   1      35.544  17.628  10.285  0.00  0.00    -0.296 OA
BRANCH  12  14
HETATM   14  C   UNK N   1      34.031  16.032   9.391  0.00  0.00     0.344 C 
BRANCH  14  15
HETATM   15  N   UNK N   1      33.165  17.160   9.079  0.00  0.00     0.085 N 
HETATM   16  H   UNK N   1      33.771  18.011   9.059  0.00  0.00     0.313 HD
HETATM   17  H   UNK N   1      32.769  17.037   8.120  0.00  0.00     0.313 HD
ENDBRANCH  14  15
ENDBRANCH  12  14
ENDBRANCH  11  12
ENDBRANCH  10  11
ENDBRANCH   2  10
TORSDOF 11
ENDMDL
MODEL 4
REMARK VINA RESULT:      -4.5      6.596     10.503
REMARK  11 active torsions:
REMARK  status: ('A' for Active; 'I' for Inactive)
REMARK    1  A    between atoms: O_1  and  C_9 
REMARK    2  A    between atoms: O_1  and  C_13 
REMARK    3  A    between atoms: N_4  and  C_15 
REMARK    4  A    between atoms: C_5  and  C_6 
REMARK    5  A    between atoms: C_5  and  C_7 
REMARK    6  A    between atoms: C_6  and  C_8 
REMARK    7  A    between atoms: C_7  and  C_9 
REMARK    8  A    between atoms: C_11  and  C_12 
REMARK    9  A    between atoms: C_11  and  C_13 
REMARK   10  A    between atoms: C_12  and  C_14 
REMARK   11  A    between atoms: C_14  and  C_15 
ROOT
HETATM    1  O   UNK N   1      36.743  12.531  12.883  0.00  0.00    -0.265 OA
HETATM    2  C   UNK N   1      35.730  13.210  12.995  0.00  0.00     0.259 C 
ENDROOT
BRANCH   2   3
HETATM    3  O   UNK N   1      34.566  12.644  13.392  0.00  0.00    -0.321 OA
BRANCH   3   4
HETATM    4  C   UNK N   1      34.447  11.281  13.515  0.00  0.00     0.178 C 
BRANCH   4   5
HETATM    5  C   UNK N   1      33.684  10.919  14.766  0.00  0.00     0.027 C 
BRANCH   5   6
HETATM    6  C   UNK N   1      34.645  10.190  15.677  0.00  0.00     0.002 C 
BRANCH   6   7
HETATM    7  C   UNK N   1      35.742  11.114  16.149  0.00  0.00    -0.000 C 
BRANCH   7   8
HETATM    8  C   UNK N   1      35.242  11.864  17.365  0.00  0.00    -0.005 C 
HETATM    9  C   UNK N   1      35.205  13.346  17.070  0.00  0.00     0.005 C 
ENDBRANCH   7   8
ENDBRANCH   6   7
ENDBRANCH   5   6
ENDBRANCH   4   5
ENDBRANCH   3   4
ENDBRANCH   2   3
BRANCH   2  10
HETATM   10  C   UNK N   1      35.762  14.678  12.689  0.00  0.00     0.118 C 
BRANCH  10  11
HETATM   11  C   UNK N   1      34.862  15.025  11.506  0.00  0.00     0.090 C 
BRANCH  11  12
HETATM   12  C   UNK N   1      35.508  15.945  10.518  0.00  0.00     0.155 C 
HETATM   13  O   UNK N   1      36.616  16.419  10.732  0.00  0.00    -0.296 OA
BRANCH  12  14
HETATM   14  C   UNK N   1      34.765  16.265   9.253  0.00  0.00     0.344 C 
BRANCH  14  15
HETATM   15  N   UNK N   1      33.779  17.319   9.442  0.00  0.00     0.085 N 
HETATM   16  H   UNK N   1      34.304  18.221   9.493  0.00  0.00     0.313 HD
HETATM   17  H   UNK N   1      33.158  17.367   8.603  0.00  0.00     0.313 HD
ENDBRANCH  14  15
ENDBRANCH  12  14
ENDBRANCH  11  12
ENDBRANCH  10  11
ENDBRANCH   2  10
TORSDOF 11
ENDMDL
MODEL 5
REMARK VINA RESULT:      -4.5     10.517     12.549
REMARK  11 active torsions:
REMARK  status: ('A' for Active; 'I' for Inactive)
REMARK    1  A    between atoms: O_1  and  C_9 
REMARK    2  A    between atoms: O_1  and  C_13 
REMARK    3  A    between atoms: N_4  and  C_15 
REMARK    4  A    between atoms: C_5  and  C_6 
REMARK    5  A    between atoms: C_5  and  C_7 
REMARK    6  A    between atoms: C_6  and  C_8 
REMARK    7  A    between atoms: C_7  and  C_9 
REMARK    8  A    between atoms: C_11  and  C_12 
REMARK    9  A    between atoms: C_11  and  C_13 
REMARK   10  A    between atoms: C_12  and  C_14 
REMARK   11  A    between atoms: C_14  and  C_15 
ROOT
HETATM    1  O   UNK N   1      20.323  13.351   7.343  0.00  0.00    -0.265 OA
HETATM    2  C   UNK N   1      21.087  14.132   7.897  0.00  0.00     0.259 C 
ENDROOT
BRANCH   2   3
HETATM    3  O   UNK N   1      22.426  14.014   7.734  0.00  0.00    -0.321 OA
BRANCH   3   4
HETATM    4  C   UNK N   1      23.217  13.498   8.732  0.00  0.00     0.178 C 
BRANCH   4   5
HETATM    5  C   UNK N   1      23.300  11.994   8.627  0.00  0.00     0.027 C 
BRANCH   5   6
HETATM    6  C   UNK N   1      22.933  11.434   9.982  0.00  0.00     0.002 C 
BRANCH   6   7
HETATM    7  C   UNK N   1      22.301  12.498  10.849  0.00  0.00    -0.000 C 
BRANCH   7   8
HETATM    8  C   UNK N   1      22.036  11.901  12.215  0.00  0.00    -0.005 C 
HETATM    9  C   UNK N   1      23.318  11.874  13.015  0.00  0.00     0.005 C 
ENDBRANCH   7   8
ENDBRANCH   6   7
ENDBRANCH   5   6
ENDBRANCH   4   5
ENDBRANCH   3   4
ENDBRANCH   2   3
BRANCH   2  10
HETATM   10  C   UNK N   1      20.550  15.229   8.768  0.00  0.00     0.118 C 
BRANCH  10  11
HETATM   11  C   UNK N   1      19.935  16.354   7.939  0.00  0.00     0.090 C 
BRANCH  11  12
HETATM   12  C   UNK N   1      19.370  17.462   8.769  0.00  0.00     0.155 C 
HETATM   13  O   UNK N   1      19.983  18.510   8.921  0.00  0.00    -0.296 OA
BRANCH  12  14
HETATM   14  C   UNK N   1      18.025  17.259   9.406  0.00  0.00     0.344 C 
BRANCH  14  15
HETATM   15  N   UNK N   1      17.589  18.423  10.164  0.00  0.00     0.085 N 
HETATM   16  H   UNK N   1      16.657  18.186  10.574  0.00  0.00     0.313 HD
HETATM   17  H   UNK N   1      18.247  18.585  10.959  0.00  0.00     0.313 HD
ENDBRANCH  14  15
ENDBRANCH  12  14
ENDBRANCH  11  12
ENDBRANCH  10  11
ENDBRANCH   2  10
TORSDOF 11
ENDMDL
MODEL 6
REMARK VINA RESULT:      -4.5      3.534      5.558
REMARK  11 active torsions:
REMARK  status: ('A' for Active; 'I' for Inactive)
REMARK    1  A    between atoms: O_1  and  C_9 
REMARK    2  A    between atoms: O_1  and  C_13 
REMARK    3  A    between atoms: N_4  and  C_15 
REMARK    4  A    between atoms: C_5  and  C_6 
REMARK    5  A    between atoms: C_5  and  C_7 
REMARK    6  A    between atoms: C_6  and  C_8 
REMARK    7  A    between atoms: C_7  and  C_9 
REMARK    8  A    between atoms: C_11  and  C_12 
REMARK    9  A    between atoms: C_11  and  C_13 
REMARK   10  A    between atoms: C_12  and  C_14 
REMARK   11  A    between atoms: C_14  and  C_15 
ROOT
HETATM    1  O   UNK N   1      36.307  16.613  10.656  0.00  0.00    -0.265 OA
HETATM    2  C   UNK N   1      35.277  16.218  10.124  0.00  0.00     0.259 C 
ENDROOT
BRANCH   2   3
HETATM    3  O   UNK N   1      34.973  16.590   8.858  0.00  0.00    -0.321 OA
BRANCH   3   4
HETATM    4  C   UNK N   1      34.445  17.830   8.592  0.00  0.00     0.178 C 
BRANCH   4   5
HETATM    5  C   UNK N   1      33.265  17.721   7.657  0.00  0.00     0.027 C 
BRANCH   5   6
HETATM    6  C   UNK N   1      32.155  17.034   8.420  0.00  0.00     0.002 C 
BRANCH   6   7
HETATM    7  C   UNK N   1      30.809  17.598   8.032  0.00  0.00    -0.000 C 
BRANCH   7   8
HETATM    8  C   UNK N   1      30.376  18.575   9.104  0.00  0.00    -0.005 C 
HETATM    9  C   UNK N   1      28.916  18.357   9.432  0.00  0.00     0.005 C 
ENDBRANCH   7   8
ENDBRANCH   6   7
ENDBRANCH   5   6
ENDBRANCH   4   5
ENDBRANCH   3   4
ENDBRANCH   2   3
BRANCH   2  10
HETATM   10  C   UNK N   1      34.334  15.320  10.868  0.00  0.00     0.118 C 
BRANCH  10  11
HETATM   11  C   UNK N   1      34.865  13.891  10.948  0.00  0.00     0.090 C 
BRANCH  11  12
HETATM   12  C   UNK N   1      35.367  13.519  12.308  0.00  0.00     0.155 C 
HETATM   13  O   UNK N   1      34.608  13.471  13.266  0.00  0.00    -0.296 OA
BRANCH  12  14
HETATM   14  C   UNK N   1      36.826  13.201  12.464  0.00  0.00     0.344 C 
BRANCH  14  15
HETATM   15  N   UNK N   1      37.626  13.709  11.359  0.00  0.00     0.085 N 
HETATM   16  H   UNK N   1      38.221  14.477  11.744  0.00  0.00     0.313 HD
HETATM   17  H   UNK N   1      38.268  12.957  11.022  0.00  0.00     0.313 HD
ENDBRANCH  14  15
ENDBRANCH  12  14
ENDBRANCH  11  12
ENDBRANCH  10  11
ENDBRANCH   2  10
TORSDOF 11
ENDMDL
MODEL 7
REMARK VINA RESULT:      -4.4      8.290     11.241
REMARK  11 active torsions:
REMARK  status: ('A' for Active; 'I' for Inactive)
REMARK    1  A    between atoms: O_1  and  C_9 
REMARK    2  A    between atoms: O_1  and  C_13 
REMARK    3  A    between atoms: N_4  and  C_15 
REMARK    4  A    between atoms: C_5  and  C_6 
REMARK    5  A    between atoms: C_5  and  C_7 
REMARK    6  A    between atoms: C_6  and  C_8 
REMARK    7  A    between atoms: C_7  and  C_9 
REMARK    8  A    between atoms: C_11  and  C_12 
REMARK    9  A    between atoms: C_11  and  C_13 
REMARK   10  A    between atoms: C_12  and  C_14 
REMARK   11  A    between atoms: C_14  and  C_15 
ROOT
HETATM    1  O   UNK N   1      20.834  21.444   1.496  0.00  0.00    -0.265 OA
HETATM    2  C   UNK N   1      21.386  20.844   2.410  0.00  0.00     0.259 C 
ENDROOT
BRANCH   2   3
HETATM    3  O   UNK N   1      22.656  21.150   2.763  0.00  0.00    -0.321 OA
BRANCH   3   4
HETATM    4  C   UNK N   1      23.530  20.175   3.179  0.00  0.00     0.178 C 
BRANCH   4   5
HETATM    5  C   UNK N   1      24.950  20.533   2.809  0.00  0.00     0.027 C 
BRANCH   5   6
HETATM    6  C   UNK N   1      25.850  19.512   3.464  0.00  0.00     0.002 C 
BRANCH   6   7
HETATM    7  C   UNK N   1      26.034  19.821   4.931  0.00  0.00    -0.000 C 
BRANCH   7   8
HETATM    8  C   UNK N   1      27.171  20.811   5.069  0.00  0.00    -0.005 C 
HETATM    9  C   UNK N   1      27.078  21.511   6.405  0.00  0.00     0.005 C 
ENDBRANCH   7   8
ENDBRANCH   6   7
ENDBRANCH   5   6
ENDBRANCH   4   5
ENDBRANCH   3   4
ENDBRANCH   2   3
BRANCH   2  10
HETATM   10  C   UNK N   1      20.664  19.756   3.149  0.00  0.00     0.118 C 
BRANCH  10  11
HETATM   11  C   UNK N   1      20.258  18.618   2.218  0.00  0.00     0.090 C 
BRANCH  11  12
HETATM   12  C   UNK N   1      20.719  17.273   2.686  0.00  0.00     0.155 C 
HETATM   13  O   UNK N   1      21.505  17.168   3.617  0.00  0.00    -0.296 OA
BRANCH  12  14
HETATM   14  C   UNK N   1      20.186  16.056   1.987  0.00  0.00     0.344 C 
BRANCH  14  15
HETATM   15  N   UNK N   1      19.412  15.201   2.875  0.00  0.00     0.085 N 
HETATM   16  H   UNK N   1      19.960  14.320   3.001  0.00  0.00     0.313 HD
HETATM   17  H   UNK N   1      19.334  15.656   3.812  0.00  0.00     0.313 HD
ENDBRANCH  14  15
ENDBRANCH  12  14
ENDBRANCH  11  12
ENDBRANCH  10  11
ENDBRANCH   2  10
TORSDOF 11
ENDMDL
MODEL 8
REMARK VINA RESULT:      -4.4      4.267      6.432
REMARK  11 active torsions:
REMARK  status: ('A' for Active; 'I' for Inactive)
REMARK    1  A    between atoms: O_1  and  C_9 
REMARK    2  A    between atoms: O_1  and  C_13 
REMARK    3  A    between atoms: N_4  and  C_15 
REMARK    4  A    between atoms: C_5  and  C_6 
REMARK    5  A    between atoms: C_5  and  C_7 
REMARK    6  A    between atoms: C_6  and  C_8 
REMARK    7  A    between atoms: C_7  and  C_9 
REMARK    8  A    between atoms: C_11  and  C_12 
REMARK    9  A    between atoms: C_11  and  C_13 
REMARK   10  A    between atoms: C_12  and  C_14 
REMARK   11  A    between atoms: C_14  and  C_15 
ROOT
HETATM    1  O   UNK N   1      36.926  15.446  10.213  0.00  0.00    -0.265 OA
HETATM    2  C   UNK N   1      36.022  16.062  10.763  0.00  0.00     0.259 C 
ENDROOT
BRANCH   2   3
HETATM    3  O   UNK N   1      35.491  17.164  10.184  0.00  0.00    -0.321 OA
BRANCH   3   4
HETATM    4  C   UNK N   1      34.465  17.062   9.275  0.00  0.00     0.178 C 
BRANCH   4   5
HETATM    5  C   UNK N   1      34.522  18.189   8.272  0.00  0.00     0.027 C 
BRANCH   5   6
HETATM    6  C   UNK N   1      33.966  17.655   6.972  0.00  0.00     0.002 C 
BRANCH   6   7
HETATM    7  C   UNK N   1      32.500  17.322   7.113  0.00  0.00    -0.000 C 
BRANCH   7   8
HETATM    8  C   UNK N   1      31.898  17.233   5.727  0.00  0.00    -0.005 C 
HETATM    9  C   UNK N   1      32.974  17.459   4.690  0.00  0.00     0.005 C 
ENDBRANCH   7   8
ENDBRANCH   6   7
ENDBRANCH   5   6
ENDBRANCH   4   5
ENDBRANCH   3   4
ENDBRANCH   2   3
BRANCH   2  10
HETATM   10  C   UNK N   1      35.491  15.606  12.090  0.00  0.00     0.118 C 
BRANCH  10  11
HETATM   11  C   UNK N   1      35.575  14.089  12.237  0.00  0.00     0.090 C 
BRANCH  11  12
HETATM   12  C   UNK N   1      35.464  13.623  13.655  0.00  0.00     0.155 C 
HETATM   13  O   UNK N   1      34.489  12.988  14.033  0.00  0.00    -0.296 OA
BRANCH  12  14
HETATM   14  C   UNK N   1      36.585  13.948  14.600  0.00  0.00     0.344 C 
BRANCH  14  15
HETATM   15  N   UNK N   1      37.583  12.890  14.662  0.00  0.00     0.085 N 
HETATM   16  H   UNK N   1      37.400  12.353  15.539  0.00  0.00     0.313 HD
HETATM   17  H   UNK N   1      37.443  12.235  13.861  0.00  0.00     0.313 HD
ENDBRANCH  14  15
ENDBRANCH  12  14
ENDBRANCH  11  12
ENDBRANCH  10  11
ENDBRANCH   2  10
TORSDOF 11
ENDMDL
MODEL 9
REMARK VINA RESULT:      -4.4      2.688      3.533
REMARK  11 active torsions:
REMARK  status: ('A' for Active; 'I' for Inactive)
REMARK    1  A    between atoms: O_1  and  C_9 
REMARK    2  A    between atoms: O_1  and  C_13 
REMARK    3  A    between atoms: N_4  and  C_15 
REMARK    4  A    between atoms: C_5  and  C_6 
REMARK    5  A    between atoms: C_5  and  C_7 
REMARK    6  A    between atoms: C_6  and  C_8 
REMARK    7  A    between atoms: C_7  and  C_9 
REMARK    8  A    between atoms: C_11  and  C_12 
REMARK    9  A    between atoms: C_11  and  C_13 
REMARK   10  A    between atoms: C_12  and  C_14 
REMARK   11  A    between atoms: C_14  and  C_15 
ROOT
HETATM    1  O   UNK N   1      32.979  16.887   4.011  0.00  0.00    -0.265 OA
HETATM    2  C   UNK N   1      33.028  16.224   5.039  0.00  0.00     0.259 C 
ENDROOT
BRANCH   2   3
HETATM    3  O   UNK N   1      32.156  15.209   5.243  0.00  0.00    -0.321 OA
BRANCH   3   4
HETATM    4  C   UNK N   1      31.280  15.230   6.301  0.00  0.00     0.178 C 
BRANCH   4   5
HETATM    5  C   UNK N   1      30.008  15.955   5.929  0.00  0.00     0.027 C 
BRANCH   5   6
HETATM    6  C   UNK N   1      29.981  17.240   6.724  0.00  0.00     0.002 C 
BRANCH   6   7
HETATM    7  C   UNK N   1      30.419  16.999   8.149  0.00  0.00    -0.000 C 
BRANCH   7   8
HETATM    8  C   UNK N   1      30.669  18.341   8.803  0.00  0.00    -0.005 C 
HETATM    9  C   UNK N   1      29.608  18.604   9.848  0.00  0.00     0.005 C 
ENDBRANCH   7   8
ENDBRANCH   6   7
ENDBRANCH   5   6
ENDBRANCH   4   5
ENDBRANCH   3   4
ENDBRANCH   2   3
BRANCH   2  10
HETATM   10  C   UNK N   1      34.054  16.528   6.091  0.00  0.00     0.118 C 
BRANCH  10  11
HETATM   11  C   UNK N   1      33.753  17.842   6.806  0.00  0.00     0.090 C 
BRANCH  11  12
HETATM   12  C   UNK N   1      34.542  18.030   8.063  0.00  0.00     0.155 C 
HETATM   13  O   UNK N   1      34.979  19.130   8.372  0.00  0.00    -0.296 OA
BRANCH  12  14
HETATM   14  C   UNK N   1      34.778  16.833   8.940  0.00  0.00     0.344 C 
BRANCH  14  15
HETATM   15  N   UNK N   1      33.643  16.548   9.806  0.00  0.00     0.085 N 
HETATM   16  H   UNK N   1      33.975  15.869  10.527  0.00  0.00     0.313 HD
HETATM   17  H   UNK N   1      33.361  17.421  10.305  0.00  0.00     0.313 HD
ENDBRANCH  14  15
ENDBRANCH  12  14
ENDBRANCH  11  12
ENDBRANCH  10  11
ENDBRANCH   2  10
TORSDOF 11
ENDMDL
