REMARK  1 active torsions:
REMARK  status: ('A' for Active; 'I' for Inactive)
REMARK    1  A    between atoms: C_18  and  O_24 
ROOT
HETATM    1  C   UNK N   1      18.483 -14.347  -0.105  0.00  0.00     0.116 A 
HETATM    2  N   UNK N   1      17.756 -15.438   0.224  0.00  0.00    -0.311 N 
HETATM    3  N   UNK N   1      18.579 -16.458   0.452  0.00  0.00    -0.305 N 
ATOM      4  HN  UNK N   1      18.304 -17.402   0.720  1.00  0.00     0.186 HD
HETATM    5  C   UNK N   1      19.835 -16.025   0.266  0.00  0.00     0.034 A 
HETATM    6  C   UNK N   1      19.809 -14.711  -0.084  0.00  0.00    -0.017 A 
HETATM    7  C   UNK N   1      21.026 -13.897  -0.338  0.00  0.00     0.052 C 
HETATM    8  C   UNK N   1      21.081 -16.827   0.474  0.00  0.00     0.064 C 
HETATM    9  C   UNK N   1      22.376 -15.978   0.431  0.00  0.00    -0.000 C 
HETATM   10  C   UNK N   1      22.188 -14.408   0.540  0.00  0.00    -0.032 C 
HETATM   11  C   UNK N   1      23.483 -13.673   0.081  0.00  0.00    -0.001 C 
HETATM   12  C   UNK N   1      23.305 -16.358  -0.733  0.00  0.00     0.006 C 
HETATM   13  C   UNK N   1      24.723 -15.727  -0.555  0.00  0.00     0.006 C 
HETATM   14  C   UNK N   1      24.735 -14.522   0.425  0.00  0.00    -0.005 C 
HETATM   15  C   UNK N   1      24.835 -11.489  -0.105  0.00  0.00     0.013 C 
HETATM   16  C   UNK N   1      23.599 -12.198   0.516  0.00  0.00     0.007 C 
HETATM   17  C   UNK N   1      26.012 -13.650   0.423  0.00  0.00     0.001 C 
HETATM   18  C   UNK N   1      27.396 -11.898  -0.309  0.00  0.00     0.062 C 
HETATM   19  C   UNK N   1      25.974 -12.453  -0.518  0.00  0.00    -0.009 C 
HETATM   20  C   UNK N   1      27.359 -14.313   0.166  0.00  0.00     0.009 C 
HETATM   21  C   UNK N   1      28.260 -13.165  -0.337  0.00  0.00     0.038 C 
HETATM   22  C   UNK N   1      21.875 -14.079   2.002  0.00  0.00     0.016 C 
HETATM   23  C   UNK N   1      25.775 -12.896  -1.977  0.00  0.00     0.018 C 
HETATM   24  C   UNK N   1      27.829 -10.878  -1.351  0.00  0.00     0.046 C 
HETATM   25  H   UNK N   1      16.774 -15.473   0.286  0.00  0.00     0.186 HD
ENDROOT
BRANCH  18  26
HETATM   26  O   UNK N   1      27.518 -11.310   0.957  0.00  0.00    -0.389 OA
HETATM   27  H   UNK N   1      27.913 -11.180   1.833  0.00  0.00     0.210 HD
ENDBRANCH  18  26
TORSDOF 1
