REMARK  5 active torsions:
REMARK  status: ('A' for Active; 'I' for Inactive)
REMARK    1  A    between atoms: C_4  and  C_1 
REMARK    2  A    between atoms: C_5  and  C_1 
REMARK    3  A    between atoms: C_6  and  C_1 
REMARK    4  A    between atoms: O_9  and  C_1 
REMARK    5  A    between atoms: N_3  and  C_4 
ROOT
HETATM    1  C   UNK N   1      -0.862  -0.302   0.032  0.00  0.00     0.115 C 
ENDROOT
BRANCH   1   2
HETATM    2  C   UNK N   1      -0.108  -0.459  -1.324  0.00  0.00     0.315 C 
BRANCH   2   3
HETATM    3  N   UNK N   1       1.338  -0.177  -1.357  0.00  0.00     0.095 N 
HETATM    4  C   UNK N   1       1.672   1.245  -1.207  0.00  0.00     0.300 C 
HETATM    5  C   UNK N   1       2.522   1.514   0.043  0.00  0.00     0.266 C 
HETATM    6  N   UNK N   1       3.739   0.692   0.081  0.00  0.00    -0.071 N 
HETATM    7  C   UNK N   1       3.586  -0.657  -0.484  0.00  0.00     0.266 C 
HETATM    8  C   UNK N   1       4.153   0.572   1.468  0.00  0.00     0.272 C 
HETATM    9  C   UNK N   1       4.797   1.376  -0.642  0.00  0.00     0.272 C 
HETATM   10  C   UNK N   1       2.124  -1.106  -0.536  0.00  0.00     0.300 C 
ENDBRANCH   2   3
ENDBRANCH   1   2
BRANCH   1  11
HETATM   11  C   UNK N   1      -1.946  -1.380   0.082  0.00  0.00    -0.022 A 
HETATM   12  C   UNK N   1      -3.297  -1.065   0.315  0.00  0.00     0.010 A 
HETATM   13  C   UNK N   1      -4.267  -2.069   0.375  0.00  0.00     0.001 A 
HETATM   14  C   UNK N   1      -3.899  -3.403   0.200  0.00  0.00     0.000 A 
HETATM   15  C   UNK N   1      -2.562  -3.734  -0.027  0.00  0.00     0.001 A 
HETATM   16  C   UNK N   1      -1.587  -2.732  -0.080  0.00  0.00     0.010 A 
ENDBRANCH   1  11
BRANCH   1  17
HETATM   17  C   UNK N   1      -1.500   1.108   0.192  0.00  0.00     0.026 C 
HETATM   18  C   UNK N   1      -0.525   2.243   0.498  0.00  0.00     0.008 C 
HETATM   19  C   UNK N   1      -1.295   3.523   0.817  0.00  0.00     0.000 C 
HETATM   20  C   UNK N   1      -2.210   3.902  -0.346  0.00  0.00     0.000 C 
HETATM   21  C   UNK N   1      -3.177   2.764  -0.654  0.00  0.00     0.000 C 
HETATM   22  C   UNK N   1      -2.401   1.497  -0.990  0.00  0.00     0.008 C 
ENDBRANCH   1  17
BRANCH   1  23
HETATM   23  O   UNK N   1      -0.008  -0.534   1.111  0.00  0.00    -0.383 OA
HETATM   24  H   UNK N   1       0.150  -1.129   1.861  0.00  0.00     0.211 HD
ENDBRANCH   1  23
TORSDOF 5
