MODEL 1
REMARK VINA RESULT:      -6.9      0.000      0.000
REMARK  4 active torsions:
REMARK  status: ('A' for Active; 'I' for Inactive)
REMARK    1  A    between atoms: C_3  and  N_11 
REMARK    2  A    between atoms: C_6  and  N_7 
REMARK       I    between atoms: N_11  and  C_12 
REMARK    3  A    between atoms: C_12  and  C_14 
REMARK    4  A    between atoms: C_15  and  O_21 
ROOT
HETATM    1  N   UNK N   1      34.432  13.790  11.658  0.00  0.00    -0.321 N 
HETATM    2  C   UNK N   1      35.421  12.889  11.921  0.00  0.00     0.259 C 
HETATM    3  O   UNK N   1      36.513  12.979  11.380  0.00  0.00    -0.267 OA
HETATM    4  H   UNK N   1      33.576  13.661  12.127  0.00  0.00     0.169 HD
ENDROOT
BRANCH   1   5
HETATM    5  C   UNK N   1      34.521  14.898  10.772  0.00  0.00     0.057 A 
HETATM    6  C   UNK N   1      35.177  16.076  11.146  0.00  0.00     0.034 A 
HETATM    7  C   UNK N   1      35.258  17.153  10.271  0.00  0.00     0.038 A 
HETATM    8  C   UNK N   1      34.682  17.072   9.001  0.00  0.00     0.104 A 
HETATM    9  C   UNK N   1      34.021  15.894   8.615  0.00  0.00     0.062 A 
HETATM   10  C   UNK N   1      33.940  14.810   9.494  0.00  0.00     0.063 A 
HETATM   11 Cl   UNK N   1      33.106  13.349   8.981  0.00  0.00    -0.082 Cl
BRANCH   8  12
HETATM   12  N   UNK N   1      34.772  18.179   8.117  0.00  0.00    -0.116 N 
HETATM   13  O   UNK N   1      34.383  18.090   6.993  0.00  0.00    -0.532 OA
HETATM   14  O   UNK N   1      35.288  19.317   8.537  0.00  0.00    -0.532 OA
ENDBRANCH   8  12
ENDBRANCH   1   5
BRANCH   2  15
HETATM   15  C   UNK N   1      35.148  11.796  12.876  0.00  0.00     0.067 A 
HETATM   16  C   UNK N   1      34.734  12.030  14.207  0.00  0.00     0.081 A 
HETATM   17  C   UNK N   1      34.493  10.947  15.059  0.00  0.00     0.039 A 
HETATM   18  C   UNK N   1      34.660   9.637  14.600  0.00  0.00     0.026 A 
HETATM   19  C   UNK N   1      35.070   9.405  13.285  0.00  0.00     0.035 A 
HETATM   20  C   UNK N   1      35.310  10.477  12.434  0.00  0.00     0.043 A 
HETATM   21 Cl   UNK N   1      35.284   7.773  12.695  0.00  0.00    -0.084 Cl
BRANCH  16  22
HETATM   22  O   UNK N   1      34.565  13.280  14.675  0.00  0.00    -0.360 OA
HETATM   23  H   UNK N   1      35.120  13.604  15.356  0.00  0.00     0.217 HD
ENDBRANCH  16  22
ENDBRANCH   2  15
TORSDOF 4
ENDMDL
MODEL 2
REMARK VINA RESULT:      -6.9      9.785     12.347
REMARK  4 active torsions:
REMARK  status: ('A' for Active; 'I' for Inactive)
REMARK    1  A    between atoms: C_3  and  N_11 
REMARK    2  A    between atoms: C_6  and  N_7 
REMARK       I    between atoms: N_11  and  C_12 
REMARK    3  A    between atoms: C_12  and  C_14 
REMARK    4  A    between atoms: C_15  and  O_21 
ROOT
HETATM    1  N   UNK N   1      26.360  18.472   5.033  0.00  0.00    -0.321 N 
HETATM    2  C   UNK N   1      27.101  19.104   5.986  0.00  0.00     0.259 C 
HETATM    3  O   UNK N   1      26.818  20.234   6.355  0.00  0.00    -0.267 OA
HETATM    4  H   UNK N   1      26.641  17.563   4.780  0.00  0.00     0.169 HD
ENDROOT
BRANCH   1   5
HETATM    5  C   UNK N   1      25.219  19.001   4.370  0.00  0.00     0.057 A 
HETATM    6  C   UNK N   1      25.312  20.140   3.562  0.00  0.00     0.034 A 
HETATM    7  C   UNK N   1      24.191  20.648   2.919  0.00  0.00     0.038 A 
HETATM    8  C   UNK N   1      22.949  20.025   3.072  0.00  0.00     0.104 A 
HETATM    9  C   UNK N   1      22.844  18.882   3.881  0.00  0.00     0.062 A 
HETATM   10  C   UNK N   1      23.973  18.369   4.528  0.00  0.00     0.063 A 
HETATM   11 Cl   UNK N   1      23.808  16.936   5.534  0.00  0.00    -0.082 Cl
BRANCH   8  12
HETATM   12  N   UNK N   1      21.811  20.556   2.409  0.00  0.00    -0.116 N 
HETATM   13  O   UNK N   1      20.883  20.968   3.035  0.00  0.00    -0.532 OA
HETATM   14  O   UNK N   1      21.775  20.596   1.093  0.00  0.00    -0.532 OA
ENDBRANCH   8  12
ENDBRANCH   1   5
BRANCH   2  15
HETATM   15  C   UNK N   1      28.260  18.397   6.568  0.00  0.00     0.067 A 
HETATM   16  C   UNK N   1      28.466  18.287   7.963  0.00  0.00     0.081 A 
HETATM   17  C   UNK N   1      29.586  17.603   8.446  0.00  0.00     0.039 A 
HETATM   18  C   UNK N   1      30.500  17.029   7.558  0.00  0.00     0.026 A 
HETATM   19  C   UNK N   1      30.298  17.137   6.181  0.00  0.00     0.035 A 
HETATM   20  C   UNK N   1      29.187  17.816   5.694  0.00  0.00     0.043 A 
HETATM   21 Cl   UNK N   1      31.432  16.426   5.056  0.00  0.00    -0.084 Cl
BRANCH  16  22
HETATM   22  O   UNK N   1      27.602  18.829   8.839  0.00  0.00    -0.360 OA
HETATM   23  H   UNK N   1      27.698  18.664   9.756  0.00  0.00     0.217 HD
ENDBRANCH  16  22
ENDBRANCH   2  15
TORSDOF 4
ENDMDL
MODEL 3
REMARK VINA RESULT:      -6.9      9.975     12.562
REMARK  4 active torsions:
REMARK  status: ('A' for Active; 'I' for Inactive)
REMARK    1  A    between atoms: C_3  and  N_11 
REMARK    2  A    between atoms: C_6  and  N_7 
REMARK       I    between atoms: N_11  and  C_12 
REMARK    3  A    between atoms: C_12  and  C_14 
REMARK    4  A    between atoms: C_15  and  O_21 
ROOT
HETATM    1  N   UNK N   1      26.238  18.509   4.952  0.00  0.00    -0.321 N 
HETATM    2  C   UNK N   1      26.952  19.104   5.950  0.00  0.00     0.259 C 
HETATM    3  O   UNK N   1      26.596  20.171   6.426  0.00  0.00    -0.267 OA
HETATM    4  H   UNK N   1      26.579  17.650   4.613  0.00  0.00     0.169 HD
ENDROOT
BRANCH   1   5
HETATM    5  C   UNK N   1      25.050  19.011   4.357  0.00  0.00     0.057 A 
HETATM    6  C   UNK N   1      23.796  18.475   4.674  0.00  0.00     0.034 A 
HETATM    7  C   UNK N   1      22.641  18.975   4.085  0.00  0.00     0.038 A 
HETATM    8  C   UNK N   1      22.717  20.023   3.164  0.00  0.00     0.104 A 
HETATM    9  C   UNK N   1      23.970  20.569   2.839  0.00  0.00     0.062 A 
HETATM   10  C   UNK N   1      25.133  20.067   3.431  0.00  0.00     0.063 A 
HETATM   11 Cl   UNK N   1      26.687  20.771   3.002  0.00  0.00    -0.082 Cl
BRANCH   8  12
HETATM   12  N   UNK N   1      21.528  20.524   2.571  0.00  0.00    -0.116 N 
HETATM   13  O   UNK N   1      20.603  20.848   3.250  0.00  0.00    -0.532 OA
HETATM   14  O   UNK N   1      21.441  20.633   1.261  0.00  0.00    -0.532 OA
ENDBRANCH   8  12
ENDBRANCH   1   5
BRANCH   2  15
HETATM   15  C   UNK N   1      28.169  18.433   6.449  0.00  0.00     0.067 A 
HETATM   16  C   UNK N   1      28.476  18.332   7.826  0.00  0.00     0.081 A 
HETATM   17  C   UNK N   1      29.647  17.682   8.229  0.00  0.00     0.039 A 
HETATM   18  C   UNK N   1      30.513  17.133   7.279  0.00  0.00     0.026 A 
HETATM   19  C   UNK N   1      30.211  17.232   5.920  0.00  0.00     0.035 A 
HETATM   20  C   UNK N   1      29.048  17.877   5.512  0.00  0.00     0.043 A 
HETATM   21 Cl   UNK N   1      31.283  16.551   4.717  0.00  0.00    -0.084 Cl
BRANCH  16  22
HETATM   22  O   UNK N   1      27.661  18.851   8.761  0.00  0.00    -0.360 OA
HETATM   23  H   UNK N   1      27.301  19.708   8.646  0.00  0.00     0.217 HD
ENDBRANCH  16  22
ENDBRANCH   2  15
TORSDOF 4
ENDMDL
MODEL 4
REMARK VINA RESULT:      -6.8     13.282     14.587
REMARK  4 active torsions:
REMARK  status: ('A' for Active; 'I' for Inactive)
REMARK    1  A    between atoms: C_3  and  N_11 
REMARK    2  A    between atoms: C_6  and  N_7 
REMARK       I    between atoms: N_11  and  C_12 
REMARK    3  A    between atoms: C_12  and  C_14 
REMARK    4  A    between atoms: C_15  and  O_21 
ROOT
HETATM    1  N   UNK N   1      21.677  16.019   6.314  0.00  0.00    -0.321 N 
HETATM    2  C   UNK N   1      21.208  16.102   7.591  0.00  0.00     0.259 C 
HETATM    3  O   UNK N   1      20.723  17.140   8.017  0.00  0.00    -0.267 OA
HETATM    4  H   UNK N   1      22.055  15.154   6.034  0.00  0.00     0.169 HD
ENDROOT
BRANCH   1   5
HETATM    5  C   UNK N   1      21.672  17.062   5.350  0.00  0.00     0.057 A 
HETATM    6  C   UNK N   1      22.776  17.908   5.189  0.00  0.00     0.034 A 
HETATM    7  C   UNK N   1      22.759  18.925   4.242  0.00  0.00     0.038 A 
HETATM    8  C   UNK N   1      21.635  19.117   3.435  0.00  0.00     0.104 A 
HETATM    9  C   UNK N   1      20.522  18.274   3.588  0.00  0.00     0.062 A 
HETATM   10  C   UNK N   1      20.537  17.250   4.540  0.00  0.00     0.063 A 
HETATM   11 Cl   UNK N   1      19.127  16.213   4.707  0.00  0.00    -0.082 Cl
BRANCH   8  12
HETATM   12  N   UNK N   1      21.633  20.160   2.472  0.00  0.00    -0.116 N 
HETATM   13  O   UNK N   1      21.065  20.022   1.432  0.00  0.00    -0.532 OA
HETATM   14  O   UNK N   1      22.260  21.291   2.724  0.00  0.00    -0.532 OA
ENDBRANCH   8  12
ENDBRANCH   1   5
BRANCH   2  15
HETATM   15  C   UNK N   1      21.295  14.909   8.458  0.00  0.00     0.067 A 
HETATM   16  C   UNK N   1      20.258  14.529   9.342  0.00  0.00     0.081 A 
HETATM   17  C   UNK N   1      20.407  13.387  10.135  0.00  0.00     0.039 A 
HETATM   18  C   UNK N   1      21.575  12.621  10.058  0.00  0.00     0.026 A 
HETATM   19  C   UNK N   1      22.599  12.996   9.186  0.00  0.00     0.035 A 
HETATM   20  C   UNK N   1      22.457  14.131   8.395  0.00  0.00     0.043 A 
HETATM   21 Cl   UNK N   1      24.066  12.051   9.078  0.00  0.00    -0.084 Cl
BRANCH  16  22
HETATM   22  O   UNK N   1      19.125  15.247   9.435  0.00  0.00    -0.360 OA
HETATM   23  H   UNK N   1      18.302  14.855   9.220  0.00  0.00     0.217 HD
ENDBRANCH  16  22
ENDBRANCH   2  15
TORSDOF 4
ENDMDL
MODEL 5
REMARK VINA RESULT:      -6.7      6.696     10.149
REMARK  4 active torsions:
REMARK  status: ('A' for Active; 'I' for Inactive)
REMARK    1  A    between atoms: C_3  and  N_11 
REMARK    2  A    between atoms: C_6  and  N_7 
REMARK       I    between atoms: N_11  and  C_12 
REMARK    3  A    between atoms: C_12  and  C_14 
REMARK    4  A    between atoms: C_15  and  O_21 
ROOT
HETATM    1  N   UNK N   1      30.292  16.593   5.302  0.00  0.00    -0.321 N 
HETATM    2  C   UNK N   1      29.342  17.403   4.755  0.00  0.00     0.259 C 
HETATM    3  O   UNK N   1      29.363  18.611   4.940  0.00  0.00    -0.267 OA
HETATM    4  H   UNK N   1      30.217  15.630   5.114  0.00  0.00     0.169 HD
ENDROOT
BRANCH   1   5
HETATM    5  C   UNK N   1      31.379  17.008   6.118  0.00  0.00     0.057 A 
HETATM    6  C   UNK N   1      31.223  17.187   7.498  0.00  0.00     0.034 A 
HETATM    7  C   UNK N   1      32.293  17.593   8.286  0.00  0.00     0.038 A 
HETATM    8  C   UNK N   1      33.543  17.828   7.709  0.00  0.00     0.104 A 
HETATM    9  C   UNK N   1      33.710  17.651   6.326  0.00  0.00     0.062 A 
HETATM   10  C   UNK N   1      32.635  17.243   5.531  0.00  0.00     0.063 A 
HETATM   11 Cl   UNK N   1      32.877  17.031   3.802  0.00  0.00    -0.082 Cl
BRANCH   8  12
HETATM   12  N   UNK N   1      34.627  18.242   8.527  0.00  0.00    -0.116 N 
HETATM   13  O   UNK N   1      35.147  19.302   8.352  0.00  0.00    -0.532 OA
HETATM   14  O   UNK N   1      35.067  17.455   9.487  0.00  0.00    -0.532 OA
ENDBRANCH   8  12
ENDBRANCH   1   5
BRANCH   2  15
HETATM   15  C   UNK N   1      28.281  16.794   3.928  0.00  0.00     0.067 A 
HETATM   16  C   UNK N   1      28.550  15.838   2.922  0.00  0.00     0.081 A 
HETATM   17  C   UNK N   1      27.496  15.301   2.176  0.00  0.00     0.039 A 
HETATM   18  C   UNK N   1      26.180  15.705   2.421  0.00  0.00     0.026 A 
HETATM   19  C   UNK N   1      25.913  16.648   3.414  0.00  0.00     0.035 A 
HETATM   20  C   UNK N   1      26.957  17.186   4.159  0.00  0.00     0.043 A 
HETATM   21 Cl   UNK N   1      24.273  17.165   3.734  0.00  0.00    -0.084 Cl
BRANCH  16  22
HETATM   22  O   UNK N   1      29.806  15.432   2.665  0.00  0.00    -0.360 OA
HETATM   23  H   UNK N   1      30.515  16.042   2.712  0.00  0.00     0.217 HD
ENDBRANCH  16  22
ENDBRANCH   2  15
TORSDOF 4
ENDMDL
MODEL 6
REMARK VINA RESULT:      -6.6      8.263     11.349
REMARK  4 active torsions:
REMARK  status: ('A' for Active; 'I' for Inactive)
REMARK    1  A    between atoms: C_3  and  N_11 
REMARK    2  A    between atoms: C_6  and  N_7 
REMARK       I    between atoms: N_11  and  C_12 
REMARK    3  A    between atoms: C_12  and  C_14 
REMARK    4  A    between atoms: C_15  and  O_21 
ROOT
HETATM    1  N   UNK N   1      28.485  18.559   4.859  0.00  0.00    -0.321 N 
HETATM    2  C   UNK N   1      29.268  17.604   4.284  0.00  0.00     0.259 C 
HETATM    3  O   UNK N   1      28.871  16.960   3.324  0.00  0.00    -0.267 OA
HETATM    4  H   UNK N   1      28.865  19.042   5.629  0.00  0.00     0.169 HD
ENDROOT
BRANCH   1   5
HETATM    5  C   UNK N   1      27.172  18.924   4.455  0.00  0.00     0.057 A 
HETATM    6  C   UNK N   1      26.945  20.054   3.661  0.00  0.00     0.034 A 
HETATM    7  C   UNK N   1      25.658  20.401   3.271  0.00  0.00     0.038 A 
HETATM    8  C   UNK N   1      24.568  19.621   3.668  0.00  0.00     0.104 A 
HETATM    9  C   UNK N   1      24.785  18.485   4.465  0.00  0.00     0.062 A 
HETATM   10  C   UNK N   1      26.080  18.135   4.858  0.00  0.00     0.063 A 
HETATM   11 Cl   UNK N   1      26.318  16.706   5.855  0.00  0.00    -0.082 Cl
BRANCH   8  12
HETATM   12  N   UNK N   1      23.258  19.988   3.262  0.00  0.00    -0.116 N 
HETATM   13  O   UNK N   1      23.038  21.083   2.844  0.00  0.00    -0.532 OA
HETATM   14  O   UNK N   1      22.274  19.116   3.346  0.00  0.00    -0.532 OA
ENDBRANCH   8  12
ENDBRANCH   1   5
BRANCH   2  15
HETATM   15  C   UNK N   1      30.614  17.359   4.841  0.00  0.00     0.067 A 
HETATM   16  C   UNK N   1      31.774  17.292   4.035  0.00  0.00     0.081 A 
HETATM   17  C   UNK N   1      33.018  17.057   4.630  0.00  0.00     0.039 A 
HETATM   18  C   UNK N   1      33.119  16.888   6.014  0.00  0.00     0.026 A 
HETATM   19  C   UNK N   1      31.974  16.953   6.810  0.00  0.00     0.035 A 
HETATM   20  C   UNK N   1      30.734  17.187   6.225  0.00  0.00     0.043 A 
HETATM   21 Cl   UNK N   1      32.082  16.744   8.542  0.00  0.00    -0.084 Cl
BRANCH  16  22
HETATM   22  O   UNK N   1      31.706  17.451   2.702  0.00  0.00    -0.360 OA
HETATM   23  H   UNK N   1      32.127  18.182   2.294  0.00  0.00     0.217 HD
ENDBRANCH  16  22
ENDBRANCH   2  15
TORSDOF 4
ENDMDL
MODEL 7
REMARK VINA RESULT:      -6.6      9.961     12.705
REMARK  4 active torsions:
REMARK  status: ('A' for Active; 'I' for Inactive)
REMARK    1  A    between atoms: C_3  and  N_11 
REMARK    2  A    between atoms: C_6  and  N_7 
REMARK       I    between atoms: N_11  and  C_12 
REMARK    3  A    between atoms: C_12  and  C_14 
REMARK    4  A    between atoms: C_15  and  O_21 
ROOT
HETATM    1  N   UNK N   1      26.256  18.511   4.638  0.00  0.00    -0.321 N 
HETATM    2  C   UNK N   1      27.016  19.054   5.631  0.00  0.00     0.259 C 
HETATM    3  O   UNK N   1      26.693  20.104   6.166  0.00  0.00    -0.267 OA
HETATM    4  H   UNK N   1      26.572  17.663   4.249  0.00  0.00     0.169 HD
ENDROOT
BRANCH   1   5
HETATM    5  C   UNK N   1      25.052  19.052   4.112  0.00  0.00     0.057 A 
HETATM    6  C   UNK N   1      25.062  20.200   3.311  0.00  0.00     0.034 A 
HETATM    7  C   UNK N   1      23.878  20.721   2.801  0.00  0.00     0.038 A 
HETATM    8  C   UNK N   1      22.658  20.101   3.084  0.00  0.00     0.104 A 
HETATM    9  C   UNK N   1      22.637  18.949   3.887  0.00  0.00     0.062 A 
HETATM   10  C   UNK N   1      23.827  18.424   4.400  0.00  0.00     0.063 A 
HETATM   11 Cl   UNK N   1      23.767  16.980   5.402  0.00  0.00    -0.082 Cl
BRANCH   8  12
HETATM   12  N   UNK N   1      21.457  20.644   2.557  0.00  0.00    -0.116 N 
HETATM   13  O   UNK N   1      20.539  20.895   3.277  0.00  0.00    -0.532 OA
HETATM   14  O   UNK N   1      21.349  20.875   1.265  0.00  0.00    -0.532 OA
ENDBRANCH   8  12
ENDBRANCH   1   5
BRANCH   2  15
HETATM   15  C   UNK N   1      28.243  18.348   6.052  0.00  0.00     0.067 A 
HETATM   16  C   UNK N   1      29.195  17.855   5.131  0.00  0.00     0.081 A 
HETATM   17  C   UNK N   1      30.336  17.195   5.599  0.00  0.00     0.039 A 
HETATM   18  C   UNK N   1      30.538  17.022   6.971  0.00  0.00     0.026 A 
HETATM   19  C   UNK N   1      29.599  17.509   7.882  0.00  0.00     0.035 A 
HETATM   20  C   UNK N   1      28.462  18.165   7.423  0.00  0.00     0.043 A 
HETATM   21 Cl   UNK N   1      29.836  17.301   9.602  0.00  0.00    -0.084 Cl
BRANCH  16  22
HETATM   22  O   UNK N   1      29.026  18.007   3.805  0.00  0.00    -0.360 OA
HETATM   23  H   UNK N   1      29.453  17.426   3.208  0.00  0.00     0.217 HD
ENDBRANCH  16  22
ENDBRANCH   2  15
TORSDOF 4
ENDMDL
MODEL 8
REMARK VINA RESULT:      -6.6      1.884      2.294
REMARK  4 active torsions:
REMARK  status: ('A' for Active; 'I' for Inactive)
REMARK    1  A    between atoms: C_3  and  N_11 
REMARK    2  A    between atoms: C_6  and  N_7 
REMARK       I    between atoms: N_11  and  C_12 
REMARK    3  A    between atoms: C_12  and  C_14 
REMARK    4  A    between atoms: C_15  and  O_21 
ROOT
HETATM    1  N   UNK N   1      34.605  14.537  11.462  0.00  0.00    -0.321 N 
HETATM    2  C   UNK N   1      35.743  14.108  12.077  0.00  0.00     0.259 C 
HETATM    3  O   UNK N   1      36.825  14.173  11.513  0.00  0.00    -0.267 OA
HETATM    4  H   UNK N   1      33.766  14.457  11.971  0.00  0.00     0.169 HD
ENDROOT
BRANCH   1   5
HETATM    5  C   UNK N   1      34.514  15.089  10.155  0.00  0.00     0.057 A 
HETATM    6  C   UNK N   1      34.645  16.466   9.938  0.00  0.00     0.034 A 
HETATM    7  C   UNK N   1      34.555  16.994   8.657  0.00  0.00     0.038 A 
HETATM    8  C   UNK N   1      34.332  16.154   7.563  0.00  0.00     0.104 A 
HETATM    9  C   UNK N   1      34.200  14.770   7.769  0.00  0.00     0.062 A 
HETATM   10  C   UNK N   1      34.290  14.237   9.059  0.00  0.00     0.063 A 
HETATM   11 Cl   UNK N   1      34.121  12.502   9.284  0.00  0.00    -0.082 Cl
BRANCH   8  12
HETATM   12  N   UNK N   1      34.243  16.707   6.259  0.00  0.00    -0.116 N 
HETATM   13  O   UNK N   1      34.226  15.998   5.300  0.00  0.00    -0.532 OA
HETATM   14  O   UNK N   1      34.177  18.014   6.100  0.00  0.00    -0.532 OA
ENDBRANCH   8  12
ENDBRANCH   1   5
BRANCH   2  15
HETATM   15  C   UNK N   1      35.646  13.560  13.445  0.00  0.00     0.067 A 
HETATM   16  C   UNK N   1      36.331  14.126  14.545  0.00  0.00     0.081 A 
HETATM   17  C   UNK N   1      36.195  13.556  15.815  0.00  0.00     0.039 A 
HETATM   18  C   UNK N   1      35.386  12.430  16.000  0.00  0.00     0.026 A 
HETATM   19  C   UNK N   1      34.710  11.871  14.915  0.00  0.00     0.035 A 
HETATM   20  C   UNK N   1      34.841  12.433  13.650  0.00  0.00     0.043 A 
HETATM   21 Cl   UNK N   1      33.694  10.464  15.129  0.00  0.00    -0.084 Cl
BRANCH  16  22
HETATM   22  O   UNK N   1      37.116  15.208  14.395  0.00  0.00    -0.360 OA
HETATM   23  H   UNK N   1      36.777  15.980  13.987  0.00  0.00     0.217 HD
ENDBRANCH  16  22
ENDBRANCH   2  15
TORSDOF 4
ENDMDL
MODEL 9
REMARK VINA RESULT:      -6.3      3.291      4.493
REMARK  4 active torsions:
REMARK  status: ('A' for Active; 'I' for Inactive)
REMARK    1  A    between atoms: C_3  and  N_11 
REMARK    2  A    between atoms: C_6  and  N_7 
REMARK       I    between atoms: N_11  and  C_12 
REMARK    3  A    between atoms: C_12  and  C_14 
REMARK    4  A    between atoms: C_15  and  O_21 
ROOT
HETATM    1  N   UNK N   1      35.865  12.696  15.204  0.00  0.00    -0.321 N 
HETATM    2  C   UNK N   1      34.983  12.796  16.238  0.00  0.00     0.259 C 
HETATM    3  O   UNK N   1      33.950  13.439  16.123  0.00  0.00    -0.267 OA
HETATM    4  H   UNK N   1      36.678  12.163  15.363  0.00  0.00     0.169 HD
ENDROOT
BRANCH   1   5
HETATM    5  C   UNK N   1      35.723  13.286  13.919  0.00  0.00     0.057 A 
HETATM    6  C   UNK N   1      36.270  14.542  13.633  0.00  0.00     0.034 A 
HETATM    7  C   UNK N   1      36.124  15.109  12.373  0.00  0.00     0.038 A 
HETATM    8  C   UNK N   1      35.425  14.430  11.372  0.00  0.00     0.104 A 
HETATM    9  C   UNK N   1      34.872  13.169  11.649  0.00  0.00     0.062 A 
HETATM   10  C   UNK N   1      35.018  12.597  12.916  0.00  0.00     0.063 A 
HETATM   11 Cl   UNK N   1      34.313  11.017  13.231  0.00  0.00    -0.082 Cl
BRANCH   8  12
HETATM   12  N   UNK N   1      35.284  15.022  10.089  0.00  0.00    -0.116 N 
HETATM   13  O   UNK N   1      35.622  14.431   9.109  0.00  0.00    -0.532 OA
HETATM   14  O   UNK N   1      34.778  16.233   9.974  0.00  0.00    -0.532 OA
ENDBRANCH   8  12
ENDBRANCH   1   5
BRANCH   2  15
HETATM   15  C   UNK N   1      35.298  12.112  17.509  0.00  0.00     0.067 A 
HETATM   16  C   UNK N   1      35.322  12.784  18.753  0.00  0.00     0.081 A 
HETATM   17  C   UNK N   1      35.628  12.075  19.918  0.00  0.00     0.039 A 
HETATM   18  C   UNK N   1      35.911  10.706  19.858  0.00  0.00     0.026 A 
HETATM   19  C   UNK N   1      35.888  10.043  18.631  0.00  0.00     0.035 A 
HETATM   20  C   UNK N   1      35.584  10.743  17.469  0.00  0.00     0.043 A 
HETATM   21 Cl   UNK N   1      36.239   8.332  18.538  0.00  0.00    -0.084 Cl
BRANCH  16  22
HETATM   22  O   UNK N   1      35.054  14.099  18.839  0.00  0.00    -0.360 OA
HETATM   23  H   UNK N   1      34.430  14.411  19.465  0.00  0.00     0.217 HD
ENDBRANCH  16  22
ENDBRANCH   2  15
TORSDOF 4
ENDMDL
