REMARK  9 active torsions:
REMARK  status: ('A' for Active; 'I' for Inactive)
REMARK    1  A    between atoms: C_11  and  C_10 
REMARK    2  A    between atoms: O_24  and  C_10 
REMARK    3  A    between atoms: O_25  and  C_11 
REMARK    4  A    between atoms: C_16  and  C_13 
REMARK    5  A    between atoms: O_26  and  C_15 
REMARK    6  A    between atoms: O_24  and  C_16 
REMARK    7  A    between atoms: C_18  and  C_17 
REMARK    8  A    between atoms: O_25  and  C_17 
REMARK    9  A    between atoms: O_26  and  C_18 
ROOT
HETATM    1  C   UNK N   1       3.235   0.633  -0.438  0.00  0.00     0.293 C 
HETATM    2  O   UNK N   1       2.814   1.378  -1.314  0.00  0.00    -0.262 OA
ENDROOT
BRANCH   1   3
HETATM    3  C   UNK N   1       2.489  -0.611  -0.046  0.00  0.00     0.148 C 
HETATM    4  C   UNK N   1       2.335  -0.676   1.468  0.00  0.00     0.057 C 
HETATM    5  C   UNK N   1       3.344  -1.792  -0.468  0.00  0.00     0.057 C 
BRANCH   3   6
HETATM    6  O   UNK N   1       1.255  -0.738  -0.664  0.00  0.00    -0.331 OA
BRANCH   6   7
HETATM    7  C   UNK N   1       0.163   0.041  -0.444  0.00  0.00     0.070 A 
HETATM    8  C   UNK N   1      -1.071  -0.381  -0.946  0.00  0.00     0.038 A 
HETATM    9  C   UNK N   1      -2.228   0.356  -0.684  0.00  0.00     0.026 A 
HETATM   10  C   UNK N   1      -2.154   1.527   0.076  0.00  0.00     0.034 A 
HETATM   11  C   UNK N   1      -0.922   1.967   0.565  0.00  0.00     0.026 A 
HETATM   12 Cl   UNK N   1      -3.608   2.434   0.424  0.00  0.00    -0.084 Cl
HETATM   13  C   UNK N   1       0.233   1.226   0.311  0.00  0.00     0.038 A 
ENDBRANCH   6   7
ENDBRANCH   3   6
ENDBRANCH   1   3
BRANCH   1  14
HETATM   14  O   UNK N   1       4.432   0.856   0.144  0.00  0.00    -0.317 OA
BRANCH  14  15
HETATM   15  C   UNK N   1       5.476   1.427  -0.526  0.00  0.00     0.205 C 
BRANCH  15  16
HETATM   16  C   UNK N   1       6.315   0.300  -1.109  0.00  0.00     0.206 C 
BRANCH  16  17
HETATM   17  O   UNK N   1       6.614  -0.649  -0.144  0.00  0.00    -0.315 OA
BRANCH  17  18
HETATM   18  C   UNK N   1       7.871  -0.869   0.307  0.00  0.00     0.294 C 
HETATM   19  O   UNK N   1       8.139  -1.974   0.782  0.00  0.00    -0.259 OA
BRANCH  18  20
HETATM   20  C   UNK N   1       8.939   0.159   0.237  0.00  0.00     0.054 A 
HETATM   21  C   UNK N   1       8.624   1.508   0.005  0.00  0.00     0.020 A 
HETATM   22  C   UNK N   1       9.630   2.465  -0.063  0.00  0.00     0.018 A 
HETATM   23  C   UNK N   1      10.956   2.066   0.090  0.00  0.00     0.087 A 
HETATM   24  N   UNK N   1      11.255   0.758   0.321  0.00  0.00    -0.374 N 
HETATM   25  C   UNK N   1      10.281  -0.188   0.408  0.00  0.00     0.105 A 
ATOM     26  HN  UNK N   1      12.230   0.481   0.432  1.00  0.00     0.164 HD
ENDBRANCH  18  20
ENDBRANCH  17  18
ENDBRANCH  16  17
ENDBRANCH  15  16
ENDBRANCH  14  15
ENDBRANCH   1  14
TORSDOF 9
