REMARK  6 active torsions:
REMARK  status: ('A' for Active; 'I' for Inactive)
REMARK    1  A    between atoms: N_4  and  C_18 
REMARK    2  A    between atoms: N_5  and  C_13 
REMARK    3  A    between atoms: N_8  and  C_30 
REMARK    4  A    between atoms: C_18  and  C_29 
REMARK    5  A    between atoms: C_29  and  C_31 
REMARK    6  A    between atoms: C_30  and  C_31 
ROOT
HETATM    1  N   UNK N   1       1.225   3.147   1.156  0.00  0.00    -0.363 N 
HETATM    2  N   UNK N   1       1.073   0.563   0.158  0.00  0.00     0.091 N 
HETATM    3  C   UNK N   1       2.231   2.210   1.585  0.00  0.00     0.154 C 
HETATM    4  C   UNK N   1      -0.083   2.616   0.909  0.00  0.00     0.154 C 
HETATM    5  C   UNK N   1       2.371   1.150   0.499  0.00  0.00     0.292 C 
HETATM    6  C   UNK N   1       0.094   1.601  -0.211  0.00  0.00     0.292 C 
ENDROOT
BRANCH   2   7
HETATM    7  C   UNK N   1       1.311  -0.227  -1.042  0.00  0.00     0.272 C 
BRANCH   7   8
HETATM    8  C   UNK N   1       0.346  -1.395  -1.135  0.00  0.00     0.032 C 
BRANCH   8   9
HETATM    9  C   UNK N   1      -1.088  -0.927  -0.987  0.00  0.00     0.022 C 
BRANCH   9  10
HETATM   10  C   UNK N   1      -1.662  -1.443   0.321  0.00  0.00     0.135 C 
BRANCH  10  11
HETATM   11  N   UNK N   1      -2.359  -2.668   0.030  0.00  0.00    -0.288 N 
HETATM   12  C   UNK N   1      -3.688  -2.766  -0.080  0.00  0.00     0.231 C 
HETATM   13  O   UNK N   1      -4.445  -1.832   0.143  0.00  0.00    -0.273 OA
HETATM   14  C   UNK N   1      -4.134  -4.159  -0.408  0.00  0.00     0.091 C 
HETATM   15  C   UNK N   1      -2.759  -4.826  -0.782  0.00  0.00     0.091 C 
HETATM   16  C   UNK N   1      -4.743  -4.705   0.889  0.00  0.00     0.015 C 
HETATM   17  C   UNK N   1      -1.776  -3.837  -0.257  0.00  0.00     0.231 C 
HETATM   18  C   UNK N   1      -2.593  -6.295  -0.381  0.00  0.00     0.015 C 
HETATM   19  O   UNK N   1      -0.564  -4.000  -0.264  0.00  0.00    -0.273 OA
HETATM   20  C   UNK N   1      -3.190  -6.605   0.980  0.00  0.00     0.001 C 
HETATM   21  C   UNK N   1      -4.659  -6.219   0.964  0.00  0.00     0.001 C 
ENDBRANCH  10  11
ENDBRANCH   9  10
ENDBRANCH   8   9
ENDBRANCH   7   8
ENDBRANCH   2   7
BRANCH   1  22
HETATM   22  C   UNK N   1       1.567   4.409   0.590  0.00  0.00     0.121 A 
HETATM   23  N   UNK N   1       0.598   5.317   0.245  0.00  0.00    -0.311 N 
HETATM   24  S   UNK N   1       1.419   6.574  -0.437  0.00  0.00    -0.013 SA
ATOM     25  HN  UNK N   1      -0.410   5.233   0.381  1.00  0.00     0.176 HD
HETATM   26  C   UNK N   1       2.967   6.052  -0.357  0.00  0.00     0.035 A 
HETATM   27  C   UNK N   1       2.912   4.806   0.254  0.00  0.00     0.027 A 
HETATM   28  C   UNK N   1       4.150   6.624  -0.805  0.00  0.00     0.021 A 
HETATM   29  C   UNK N   1       4.090   4.075   0.432  0.00  0.00     0.017 A 
HETATM   30  C   UNK N   1       5.305   4.624  -0.009  0.00  0.00     0.001 A 
HETATM   31  C   UNK N   1       5.335   5.893  -0.624  0.00  0.00     0.001 A 
ENDBRANCH   1  22
TORSDOF 6
