MODEL 1
REMARK VINA RESULT:      -4.6      0.000      0.000
REMARK  3 active torsions:
REMARK  status: ('A' for Active; 'I' for Inactive)
REMARK    1  A    between atoms: C_7  and  O_1 
REMARK    2  A    between atoms: O_2  and  C_9 
REMARK    3  A    between atoms: C_6  and  C_9 
ROOT
HETATM    1  N   UNK N   1      35.151  17.190  10.505  0.00  0.00    -0.406 N 
HETATM    2  C   UNK N   1      33.997  15.759   8.789  0.00  0.00     0.069 A 
HETATM    3  C   UNK N   1      34.633  17.082   9.139  0.00  0.00     0.178 A 
HETATM    4  C   UNK N   1      34.184  15.067  10.094  0.00  0.00     0.138 A 
HETATM    5  C   UNK N   1      34.873  15.902  11.139  0.00  0.00     0.146 A 
HETATM    6  H   UNK N   1      35.612  17.997  10.926  0.00  0.00     0.154 HD
ENDROOT
BRANCH   3   7
HETATM    7  C   UNK N   1      34.757  18.240   8.208  0.00  0.00     0.163 C 
HETATM    8  O   UNK N   1      34.319  18.164   7.073  0.00  0.00    -0.648 OA
BRANCH   7   9
HETATM    9  O   UNK N   1      35.356  19.374   8.622  0.00  0.00    -0.775 OA
HETATM   10  H   UNK N   1      36.088  19.717   8.149  0.00  0.00     0.167 HD
ENDBRANCH   7   9
ENDBRANCH   3   7
BRANCH   4  11
HETATM   11  O   UNK N   1      33.758  13.761  10.324  0.00  0.00    -0.394 OA
HETATM   12  H   UNK N   1      34.353  13.017  10.141  0.00  0.00     0.210 HD
ENDBRANCH   4  11
TORSDOF 3
ENDMDL
MODEL 2
REMARK VINA RESULT:      -4.6     12.195     13.175
REMARK  3 active torsions:
REMARK  status: ('A' for Active; 'I' for Inactive)
REMARK    1  A    between atoms: C_7  and  O_1 
REMARK    2  A    between atoms: O_2  and  C_9 
REMARK    3  A    between atoms: C_6  and  C_9 
ROOT
HETATM    1  N   UNK N   1      22.018  11.816  11.497  0.00  0.00    -0.406 N 
HETATM    2  C   UNK N   1      22.002  13.639   9.765  0.00  0.00     0.069 A 
HETATM    3  C   UNK N   1      22.799  12.651  10.581  0.00  0.00     0.178 A 
HETATM    4  C   UNK N   1      20.644  13.315  10.283  0.00  0.00     0.138 A 
HETATM    5  C   UNK N   1      20.626  12.226  11.321  0.00  0.00     0.146 A 
HETATM    6  H   UNK N   1      22.374  11.096  12.127  0.00  0.00     0.154 HD
ENDROOT
BRANCH   3   7
HETATM    7  C   UNK N   1      24.279  12.486  10.510  0.00  0.00     0.163 C 
HETATM    8  O   UNK N   1      24.848  12.515   9.433  0.00  0.00    -0.648 OA
BRANCH   7   9
HETATM    9  O   UNK N   1      24.990  12.303  11.640  0.00  0.00    -0.775 OA
HETATM   10  H   UNK N   1      25.873  12.612  11.693  0.00  0.00     0.167 HD
ENDBRANCH   7   9
ENDBRANCH   3   7
BRANCH   4  11
HETATM   11  O   UNK N   1      19.493  13.965   9.842  0.00  0.00    -0.394 OA
HETATM   12  H   UNK N   1      18.619  13.623  10.089  0.00  0.00     0.210 HD
ENDBRANCH   4  11
TORSDOF 3
ENDMDL
MODEL 3
REMARK VINA RESULT:      -4.5     16.161     16.353
REMARK  3 active torsions:
REMARK  status: ('A' for Active; 'I' for Inactive)
REMARK    1  A    between atoms: C_7  and  O_1 
REMARK    2  A    between atoms: O_2  and  C_9 
REMARK    3  A    between atoms: C_6  and  C_9 
ROOT
HETATM    1  N   UNK N   1      20.311  18.225   0.737  0.00  0.00    -0.406 N 
HETATM    2  C   UNK N   1      19.963  19.076   3.077  0.00  0.00     0.069 A 
HETATM    3  C   UNK N   1      20.416  19.354   1.665  0.00  0.00     0.178 A 
HETATM    4  C   UNK N   1      19.568  17.650   2.911  0.00  0.00     0.138 A 
HETATM    5  C   UNK N   1      19.767  17.116   1.518  0.00  0.00     0.146 A 
HETATM    6  H   UNK N   1      20.565  18.216  -0.251  0.00  0.00     0.154 HD
ENDROOT
BRANCH   3   7
HETATM    7  C   UNK N   1      20.943  20.662   1.181  0.00  0.00     0.163 C 
HETATM    8  O   UNK N   1      21.174  20.829  -0.004  0.00  0.00    -0.648 OA
BRANCH   7   9
HETATM    9  O   UNK N   1      21.166  21.662   2.055  0.00  0.00    -0.775 OA
HETATM   10  H   UNK N   1      21.494  22.485   1.752  0.00  0.00     0.167 HD
ENDBRANCH   7   9
ENDBRANCH   3   7
BRANCH   4  11
HETATM   11  O   UNK N   1      19.060  16.881   3.955  0.00  0.00    -0.394 OA
HETATM   12  H   UNK N   1      18.797  17.305   4.787  0.00  0.00     0.210 HD
ENDBRANCH   4  11
TORSDOF 3
ENDMDL
MODEL 4
REMARK VINA RESULT:      -4.3      1.362      1.938
REMARK  3 active torsions:
REMARK  status: ('A' for Active; 'I' for Inactive)
REMARK    1  A    between atoms: C_7  and  O_1 
REMARK    2  A    between atoms: O_2  and  C_9 
REMARK    3  A    between atoms: C_6  and  C_9 
ROOT
HETATM    1  N   UNK N   1      33.041  16.124   8.347  0.00  0.00    -0.406 N 
HETATM    2  C   UNK N   1      34.786  16.508  10.117  0.00  0.00     0.069 A 
HETATM    3  C   UNK N   1      34.161  16.944   8.815  0.00  0.00     0.178 A 
HETATM    4  C   UNK N   1      33.923  15.327  10.396  0.00  0.00     0.138 A 
HETATM    5  C   UNK N   1      32.870  15.076   9.351  0.00  0.00     0.146 A 
HETATM    6  H   UNK N   1      32.495  16.258   7.496  0.00  0.00     0.154 HD
ENDROOT
BRANCH   3   7
HETATM    7  C   UNK N   1      34.604  18.119   8.009  0.00  0.00     0.163 C 
HETATM    8  O   UNK N   1      35.176  19.051   8.548  0.00  0.00    -0.648 OA
BRANCH   7   9
HETATM    9  O   UNK N   1      34.372  18.150   6.683  0.00  0.00    -0.775 OA
HETATM   10  H   UNK N   1      34.310  17.350   6.199  0.00  0.00     0.167 HD
ENDBRANCH   7   9
ENDBRANCH   3   7
BRANCH   4  11
HETATM   11  O   UNK N   1      34.079  14.528  11.526  0.00  0.00    -0.394 OA
HETATM   12  H   UNK N   1      34.137  13.564  11.434  0.00  0.00     0.210 HD
ENDBRANCH   4  11
TORSDOF 3
ENDMDL
MODEL 5
REMARK VINA RESULT:      -4.3     12.419     13.309
REMARK  3 active torsions:
REMARK  status: ('A' for Active; 'I' for Inactive)
REMARK    1  A    between atoms: C_7  and  O_1 
REMARK    2  A    between atoms: O_2  and  C_9 
REMARK    3  A    between atoms: C_6  and  C_9 
ROOT
HETATM    1  N   UNK N   1      21.504  11.971  11.521  0.00  0.00    -0.406 N 
HETATM    2  C   UNK N   1      23.308  12.964  10.078  0.00  0.00     0.069 A 
HETATM    3  C   UNK N   1      21.839  12.695  10.293  0.00  0.00     0.178 A 
HETATM    4  C   UNK N   1      23.837  12.322  11.313  0.00  0.00     0.138 A 
HETATM    5  C   UNK N   1      22.777  11.720  12.195  0.00  0.00     0.146 A 
HETATM    6  H   UNK N   1      20.574  11.698  11.840  0.00  0.00     0.154 HD
ENDROOT
BRANCH   3   7
HETATM    7  C   UNK N   1      20.751  13.110   9.361  0.00  0.00     0.163 C 
HETATM    8  O   UNK N   1      20.798  12.795   8.185  0.00  0.00    -0.648 OA
BRANCH   7   9
HETATM    9  O   UNK N   1      19.713  13.837   9.820  0.00  0.00    -0.775 OA
HETATM   10  H   UNK N   1      19.774  14.269  10.649  0.00  0.00     0.167 HD
ENDBRANCH   7   9
ENDBRANCH   3   7
BRANCH   4  11
HETATM   11  O   UNK N   1      25.195  12.285  11.622  0.00  0.00    -0.394 OA
HETATM   12  H   UNK N   1      25.734  11.526  11.349  0.00  0.00     0.210 HD
ENDBRANCH   4  11
TORSDOF 3
ENDMDL
MODEL 6
REMARK VINA RESULT:      -4.2     15.365     16.235
REMARK  3 active torsions:
REMARK  status: ('A' for Active; 'I' for Inactive)
REMARK    1  A    between atoms: C_7  and  O_1 
REMARK    2  A    between atoms: O_2  and  C_9 
REMARK    3  A    between atoms: C_6  and  C_9 
ROOT
HETATM    1  N   UNK N   1      20.699  18.191   3.292  0.00  0.00    -0.406 N 
HETATM    2  C   UNK N   1      20.808  19.828   1.386  0.00  0.00     0.069 A 
HETATM    3  C   UNK N   1      20.509  18.426   1.858  0.00  0.00     0.178 A 
HETATM    4  C   UNK N   1      21.203  20.426   2.690  0.00  0.00     0.138 A 
HETATM    5  C   UNK N   1      21.147  19.466   3.848  0.00  0.00     0.146 A 
HETATM    6  H   UNK N   1      20.550  17.317   3.796  0.00  0.00     0.154 HD
ENDROOT
BRANCH   3   7
HETATM    7  C   UNK N   1      20.048  17.311   0.982  0.00  0.00     0.163 C 
HETATM    8  O   UNK N   1      20.342  17.300  -0.201  0.00  0.00    -0.648 OA
BRANCH   7   9
HETATM    9  O   UNK N   1      19.306  16.312   1.498  0.00  0.00    -0.775 OA
HETATM   10  H   UNK N   1      18.656  16.499   2.147  0.00  0.00     0.167 HD
ENDBRANCH   7   9
ENDBRANCH   3   7
BRANCH   4  11
HETATM   11  O   UNK N   1      21.591  21.757   2.824  0.00  0.00    -0.394 OA
HETATM   12  H   UNK N   1      21.851  22.267   2.041  0.00  0.00     0.210 HD
ENDBRANCH   4  11
TORSDOF 3
ENDMDL
MODEL 7
REMARK VINA RESULT:      -4.1     12.023     13.238
REMARK  3 active torsions:
REMARK  status: ('A' for Active; 'I' for Inactive)
REMARK    1  A    between atoms: C_7  and  O_1 
REMARK    2  A    between atoms: O_2  and  C_9 
REMARK    3  A    between atoms: C_6  and  C_9 
ROOT
HETATM    1  N   UNK N   1      23.332  11.591   9.231  0.00  0.00    -0.406 N 
HETATM    2  C   UNK N   1      21.650  13.151  10.260  0.00  0.00     0.069 A 
HETATM    3  C   UNK N   1      22.862  12.270  10.440  0.00  0.00     0.178 A 
HETATM    4  C   UNK N   1      21.429  12.935   8.803  0.00  0.00     0.138 A 
HETATM    5  C   UNK N   1      22.423  12.005   8.163  0.00  0.00     0.146 A 
HETATM    6  H   UNK N   1      24.129  10.959   9.151  0.00  0.00     0.154 HD
ENDROOT
BRANCH   3   7
HETATM    7  C   UNK N   1      23.579  12.061  11.731  0.00  0.00     0.163 C 
HETATM    8  O   UNK N   1      22.959  11.754  12.734  0.00  0.00    -0.648 OA
BRANCH   7   9
HETATM    9  O   UNK N   1      24.917  12.212  11.789  0.00  0.00    -0.775 OA
HETATM   10  H   UNK N   1      25.285  13.051  11.985  0.00  0.00     0.167 HD
ENDBRANCH   7   9
ENDBRANCH   3   7
BRANCH   4  11
HETATM   11  O   UNK N   1      20.393  13.543   8.099  0.00  0.00    -0.394 OA
HETATM   12  H   UNK N   1      20.541  13.856   7.193  0.00  0.00     0.210 HD
ENDBRANCH   4  11
TORSDOF 3
ENDMDL
MODEL 8
REMARK VINA RESULT:      -4.1      1.713      4.185
REMARK  3 active torsions:
REMARK  status: ('A' for Active; 'I' for Inactive)
REMARK    1  A    between atoms: C_7  and  O_1 
REMARK    2  A    between atoms: O_2  and  C_9 
REMARK    3  A    between atoms: C_6  and  C_9 
ROOT
HETATM    1  N   UNK N   1      33.085  16.522   7.552  0.00  0.00    -0.406 N 
HETATM    2  C   UNK N   1      34.510  17.175   9.518  0.00  0.00     0.069 A 
HETATM    3  C   UNK N   1      33.541  16.194   8.905  0.00  0.00     0.178 A 
HETATM    4  C   UNK N   1      34.598  18.141   8.389  0.00  0.00     0.138 A 
HETATM    5  C   UNK N   1      33.753  17.774   7.199  0.00  0.00     0.146 A 
HETATM    6  H   UNK N   1      32.435  15.987   6.976  0.00  0.00     0.154 HD
ENDROOT
BRANCH   3   7
HETATM    7  C   UNK N   1      33.041  14.959   9.573  0.00  0.00     0.163 C 
HETATM    8  O   UNK N   1      32.617  14.030   8.907  0.00  0.00    -0.648 OA
BRANCH   7   9
HETATM    9  O   UNK N   1      33.057  14.868  10.918  0.00  0.00    -0.775 OA
HETATM   10  H   UNK N   1      32.275  15.028  11.407  0.00  0.00     0.167 HD
ENDBRANCH   7   9
ENDBRANCH   3   7
BRANCH   4  11
HETATM   11  O   UNK N   1      35.392  19.284   8.434  0.00  0.00    -0.394 OA
HETATM   12  H   UNK N   1      36.249  19.262   8.888  0.00  0.00     0.210 HD
ENDBRANCH   4  11
TORSDOF 3
ENDMDL
MODEL 9
REMARK VINA RESULT:      -4.0      2.858      3.770
REMARK  3 active torsions:
REMARK  status: ('A' for Active; 'I' for Inactive)
REMARK    1  A    between atoms: C_7  and  O_1 
REMARK    2  A    between atoms: O_2  and  C_9 
REMARK    3  A    between atoms: C_6  and  C_9 
ROOT
HETATM    1  N   UNK N   1      33.791  17.575   6.406  0.00  0.00    -0.406 N 
HETATM    2  C   UNK N   1      32.206  17.669   8.356  0.00  0.00     0.069 A 
HETATM    3  C   UNK N   1      33.611  17.846   7.835  0.00  0.00     0.178 A 
HETATM    4  C   UNK N   1      31.544  17.259   7.087  0.00  0.00     0.138 A 
HETATM    5  C   UNK N   1      32.472  17.195   5.904  0.00  0.00     0.146 A 
HETATM    6  H   UNK N   1      34.659  17.638   5.874  0.00  0.00     0.154 HD
ENDROOT
BRANCH   3   7
HETATM    7  C   UNK N   1      34.780  18.264   8.661  0.00  0.00     0.163 C 
HETATM    8  O   UNK N   1      35.381  19.290   8.396  0.00  0.00    -0.648 OA
BRANCH   7   9
HETATM    9  O   UNK N   1      35.173  17.505   9.703  0.00  0.00    -0.775 OA
HETATM   10  H   UNK N   1      35.053  17.814  10.579  0.00  0.00     0.167 HD
ENDBRANCH   7   9
ENDBRANCH   3   7
BRANCH   4  11
HETATM   11  O   UNK N   1      30.186  16.963   7.005  0.00  0.00    -0.394 OA
HETATM   12  H   UNK N   1      29.528  17.621   7.277  0.00  0.00     0.210 HD
ENDBRANCH   4  11
TORSDOF 3
ENDMDL
