REMARK  6 active torsions:
REMARK  status: ('A' for Active; 'I' for Inactive)
REMARK    1  A    between atoms: C_10  and  C_4 
REMARK    2  A    between atoms: C_10  and  C_7 
REMARK       I    between atoms: C_7  and  N_13 
REMARK    3  A    between atoms: C_9  and  C_11 
REMARK    4  A    between atoms: C_11  and  N_18 
REMARK    5  A    between atoms: N_13  and  C_14 
REMARK    6  A    between atoms: N_13  and  C_15 
ROOT
HETATM    1  C   UNK N   1      14.182 -13.751  -1.006  0.00  0.00     0.032 A 
HETATM    2  C   UNK N   1      14.121 -14.162   0.450  0.00  0.00     0.027 A 
HETATM    3  C   UNK N   1      14.108 -12.672   0.065  0.00  0.00     0.073 A 
ENDROOT
BRANCH   3   4
HETATM    4  C   UNK N   1      12.774 -11.961  -0.089  0.00  0.00    -0.040 A 
HETATM    5  C   UNK N   1      11.556 -12.649   0.057  0.00  0.00     0.008 A 
HETATM    6  C   UNK N   1      10.341 -11.969  -0.076  0.00  0.00     0.001 A 
HETATM    7  C   UNK N   1      10.329 -10.599  -0.352  0.00  0.00     0.000 A 
HETATM    8  C   UNK N   1      11.532  -9.906  -0.499  0.00  0.00     0.001 A 
HETATM    9  C   UNK N   1      12.745 -10.583  -0.369  0.00  0.00     0.008 A 
ENDBRANCH   3   4
BRANCH   3  10
HETATM   10  C   UNK N   1      15.340 -11.761   0.244  0.00  0.00     0.233 C 
HETATM   11  O   UNK N   1      15.234 -10.877   1.088  0.00  0.00    -0.272 OA
HETATM   12  N   UNK N   1      16.505 -11.824  -0.486  0.00  0.00    -0.352 N 
BRANCH  12  13
HETATM   13  C   UNK N   1      17.464 -10.742  -0.359  0.00  0.00     0.121 C 
HETATM   14  C   UNK N   1      18.672 -11.142   0.465  0.00  0.00     0.026 C 
ENDBRANCH  12  13
BRANCH  12  15
HETATM   15  C   UNK N   1      16.769 -12.857  -1.468  0.00  0.00     0.121 C 
HETATM   16  C   UNK N   1      17.970 -13.700  -1.062  0.00  0.00     0.026 C 
ENDBRANCH  12  15
ENDBRANCH   3  10
BRANCH   2  17
HETATM   17  C   UNK N   1      15.488 -14.693   0.857  0.00  0.00     0.117 C 
BRANCH  17  18
HETATM   18  N   UNK N   1      15.746 -15.963   0.196  0.00  0.00    -0.430 N 
HETATM   19  H   UNK N   1      15.065 -16.565  -0.267  0.00  0.00     0.149 HD
HETATM   20  H   UNK N   1      16.713 -16.286   0.196  0.00  0.00     0.149 HD
ENDBRANCH  17  18
ENDBRANCH   2  17
TORSDOF 6
