MODEL 1
REMARK VINA RESULT:      -6.6      0.000      0.000
REMARK  5 active torsions:
REMARK  status: ('A' for Active; 'I' for Inactive)
REMARK    1  A    between atoms: C_8  and  C_10 
REMARK    2  A    between atoms: C_9  and  C_15 
REMARK    3  A    between atoms: C_10  and  C_11 
REMARK    4  A    between atoms: C_11  and  N_12 
REMARK    5  A    between atoms: C_15  and  C_16 
ROOT
HETATM    1  C   UNK N   1      37.280  15.804  16.724  0.00  0.00     0.001 A 
HETATM    2  C   UNK N   1      36.450  15.677  17.852  0.00  0.00     0.001 A 
HETATM    3  C   UNK N   1      35.583  14.580  17.969  0.00  0.00     0.008 A 
HETATM    4  C   UNK N   1      37.244  14.833  15.709  0.00  0.00     0.012 A 
HETATM    5  C   UNK N   1      36.373  13.747  15.845  0.00  0.00    -0.022 A 
HETATM    6  C   UNK N   1      35.566  13.630  16.947  0.00  0.00    -0.043 A 
HETATM    7  C   UNK N   1      34.734  12.400  16.887  0.00  0.00     0.074 A 
HETATM    8  C   UNK N   1      35.215  11.823  15.563  0.00  0.00    -0.066 A 
HETATM    9  C   UNK N   1      36.148  12.603  14.961  0.00  0.00    -0.035 A 
ENDROOT
BRANCH   9  10
HETATM   10  C   UNK N   1      36.898  12.405  13.616  0.00  0.00     0.065 C 
HETATM   11  C   UNK N   1      37.952  11.304  13.598  0.00  0.00     0.021 C 
BRANCH  10  12
HETATM   12  C   UNK N   1      36.812  13.159  12.288  0.00  0.00     0.017 A 
HETATM   13  C   UNK N   1      35.676  13.860  11.884  0.00  0.00     0.025 A 
HETATM   14  C   UNK N   1      35.651  14.529  10.662  0.00  0.00     0.003 A 
HETATM   15  C   UNK N   1      36.772  14.501   9.839  0.00  0.00     0.017 A 
HETATM   16  C   UNK N   1      37.902  13.800  10.260  0.00  0.00     0.088 A 
HETATM   17  N   UNK N   1      37.897  13.154  11.456  0.00  0.00    -0.369 N 
ATOM     18  HN  UNK N   1      38.734  12.647  11.745  1.00  0.00     0.165 HD
ENDBRANCH  10  12
ENDBRANCH   9  10
BRANCH   8  19
HETATM   19  C   UNK N   1      34.709  10.517  15.048  0.00  0.00     0.065 C 
BRANCH  19  20
HETATM   20  C   UNK N   1      33.792  10.588  13.833  0.00  0.00     0.275 C 
BRANCH  20  21
HETATM   21  N   UNK N   1      34.505  10.146  12.636  0.00  0.00     0.080 N 
HETATM   22  C   UNK N   1      33.552   9.871  11.569  0.00  0.00     0.309 C 
HETATM   23  C   UNK N   1      35.137   8.881  12.959  0.00  0.00     0.309 C 
ENDBRANCH  20  21
ENDBRANCH  19  20
ENDBRANCH   8  19
TORSDOF 5
ENDMDL
MODEL 2
REMARK VINA RESULT:      -6.6      6.051      9.515
REMARK  5 active torsions:
REMARK  status: ('A' for Active; 'I' for Inactive)
REMARK    1  A    between atoms: C_8  and  C_10 
REMARK    2  A    between atoms: C_9  and  C_15 
REMARK    3  A    between atoms: C_10  and  C_11 
REMARK    4  A    between atoms: C_11  and  N_12 
REMARK    5  A    between atoms: C_15  and  C_16 
ROOT
HETATM    1  C   UNK N   1      29.114  18.213   9.365  0.00  0.00     0.001 A 
HETATM    2  C   UNK N   1      28.222  18.052   8.290  0.00  0.00     0.001 A 
HETATM    3  C   UNK N   1      28.705  17.694   7.022  0.00  0.00     0.008 A 
HETATM    4  C   UNK N   1      30.491  18.019   9.174  0.00  0.00     0.012 A 
HETATM    5  C   UNK N   1      30.952  17.662   7.903  0.00  0.00    -0.022 A 
HETATM    6  C   UNK N   1      30.078  17.506   6.859  0.00  0.00    -0.043 A 
HETATM    7  C   UNK N   1      30.783  17.118   5.609  0.00  0.00     0.074 A 
HETATM    8  C   UNK N   1      32.215  17.064   6.121  0.00  0.00    -0.066 A 
HETATM    9  C   UNK N   1      32.312  17.387   7.436  0.00  0.00    -0.035 A 
ENDROOT
BRANCH   9  10
HETATM   10  C   UNK N   1      33.561  17.463   8.356  0.00  0.00     0.065 C 
HETATM   11  C   UNK N   1      34.475  18.663   8.138  0.00  0.00     0.021 C 
BRANCH  10  12
HETATM   12  C   UNK N   1      34.085  16.510   9.431  0.00  0.00     0.017 A 
HETATM   13  C   UNK N   1      33.743  15.159   9.483  0.00  0.00     0.025 A 
HETATM   14  C   UNK N   1      34.250  14.335  10.487  0.00  0.00     0.003 A 
HETATM   15  C   UNK N   1      35.109  14.865  11.444  0.00  0.00     0.017 A 
HETATM   16  C   UNK N   1      35.446  16.216  11.374  0.00  0.00     0.088 A 
HETATM   17  N   UNK N   1      34.935  16.998  10.385  0.00  0.00    -0.369 N 
ATOM     18  HN  UNK N   1      35.195  17.984  10.353  1.00  0.00     0.165 HD
ENDBRANCH  10  12
ENDBRANCH   9  10
BRANCH   8  19
HETATM   19  C   UNK N   1      33.348  16.656   5.240  0.00  0.00     0.065 C 
BRANCH  19  20
HETATM   20  C   UNK N   1      33.759  15.191   5.315  0.00  0.00     0.275 C 
BRANCH  20  21
HETATM   21  N   UNK N   1      33.648  14.568   3.998  0.00  0.00     0.080 N 
HETATM   22  C   UNK N   1      33.435  15.592   2.984  0.00  0.00     0.309 C 
HETATM   23  C   UNK N   1      32.451  13.748   4.013  0.00  0.00     0.309 C 
ENDBRANCH  20  21
ENDBRANCH  19  20
ENDBRANCH   8  19
TORSDOF 5
ENDMDL
MODEL 3
REMARK VINA RESULT:      -6.6      8.948     12.118
REMARK  5 active torsions:
REMARK  status: ('A' for Active; 'I' for Inactive)
REMARK    1  A    between atoms: C_8  and  C_10 
REMARK    2  A    between atoms: C_9  and  C_15 
REMARK    3  A    between atoms: C_10  and  C_11 
REMARK    4  A    between atoms: C_11  and  N_12 
REMARK    5  A    between atoms: C_15  and  C_16 
ROOT
HETATM    1  C   UNK N   1      26.817  19.905   3.812  0.00  0.00     0.001 A 
HETATM    2  C   UNK N   1      26.464  20.824   4.816  0.00  0.00     0.001 A 
HETATM    3  C   UNK N   1      26.931  20.648   6.128  0.00  0.00     0.008 A 
HETATM    4  C   UNK N   1      27.637  18.808   4.117  0.00  0.00     0.012 A 
HETATM    5  C   UNK N   1      28.093  18.651   5.431  0.00  0.00    -0.022 A 
HETATM    6  C   UNK N   1      27.745  19.550   6.405  0.00  0.00    -0.043 A 
HETATM    7  C   UNK N   1      28.348  19.195   7.717  0.00  0.00     0.074 A 
HETATM    8  C   UNK N   1      29.115  17.941   7.322  0.00  0.00    -0.066 A 
HETATM    9  C   UNK N   1      28.959  17.623   6.011  0.00  0.00    -0.035 A 
ENDROOT
BRANCH   9  10
HETATM   10  C   UNK N   1      29.549  16.443   5.193  0.00  0.00     0.065 C 
HETATM   11  C   UNK N   1      28.710  15.171   5.161  0.00  0.00     0.021 C 
BRANCH  10  12
HETATM   12  C   UNK N   1      30.870  16.296   4.437  0.00  0.00     0.017 A 
HETATM   13  C   UNK N   1      31.682  17.381   4.107  0.00  0.00     0.025 A 
HETATM   14  C   UNK N   1      32.877  17.190   3.415  0.00  0.00     0.003 A 
HETATM   15  C   UNK N   1      33.265  15.904   3.053  0.00  0.00     0.017 A 
HETATM   16  C   UNK N   1      32.444  14.830   3.396  0.00  0.00     0.088 A 
HETATM   17  N   UNK N   1      31.282  15.045   4.069  0.00  0.00    -0.369 N 
ATOM     18  HN  UNK N   1      30.697  14.245   4.309  1.00  0.00     0.165 HD
ENDBRANCH  10  12
ENDBRANCH   9  10
BRANCH   8  19
HETATM   19  C   UNK N   1      29.962  17.199   8.302  0.00  0.00     0.065 C 
BRANCH  19  20
HETATM   20  C   UNK N   1      31.299  17.841   8.648  0.00  0.00     0.275 C 
BRANCH  20  21
HETATM   21  N   UNK N   1      32.296  17.513   7.632  0.00  0.00     0.080 N 
HETATM   22  C   UNK N   1      32.618  16.093   7.697  0.00  0.00     0.309 C 
HETATM   23  C   UNK N   1      33.510  18.226   7.979  0.00  0.00     0.309 C 
ENDBRANCH  20  21
ENDBRANCH  19  20
ENDBRANCH   8  19
TORSDOF 5
ENDMDL
MODEL 4
REMARK VINA RESULT:      -6.3      1.350      1.740
REMARK  5 active torsions:
REMARK  status: ('A' for Active; 'I' for Inactive)
REMARK    1  A    between atoms: C_8  and  C_10 
REMARK    2  A    between atoms: C_9  and  C_15 
REMARK    3  A    between atoms: C_10  and  C_11 
REMARK    4  A    between atoms: C_11  and  N_12 
REMARK    5  A    between atoms: C_15  and  C_16 
ROOT
HETATM    1  C   UNK N   1      37.258  15.885  16.647  0.00  0.00     0.001 A 
HETATM    2  C   UNK N   1      36.469  15.768  17.805  0.00  0.00     0.001 A 
HETATM    3  C   UNK N   1      35.647  14.645  17.987  0.00  0.00     0.008 A 
HETATM    4  C   UNK N   1      37.225  14.881  15.667  0.00  0.00     0.012 A 
HETATM    5  C   UNK N   1      36.399  13.769  15.867  0.00  0.00    -0.022 A 
HETATM    6  C   UNK N   1      35.633  13.661  16.998  0.00  0.00    -0.043 A 
HETATM    7  C   UNK N   1      34.845  12.400  17.005  0.00  0.00     0.074 A 
HETATM    8  C   UNK N   1      35.304  11.796  15.686  0.00  0.00    -0.066 A 
HETATM    9  C   UNK N   1      36.189  12.588  15.028  0.00  0.00    -0.035 A 
ENDROOT
BRANCH   9  10
HETATM   10  C   UNK N   1      36.903  12.371  13.666  0.00  0.00     0.065 C 
HETATM   11  C   UNK N   1      37.880  11.203  13.607  0.00  0.00     0.021 C 
BRANCH  10  12
HETATM   12  C   UNK N   1      36.847  13.160  12.357  0.00  0.00     0.017 A 
HETATM   13  C   UNK N   1      35.768  13.970  12.003  0.00  0.00     0.025 A 
HETATM   14  C   UNK N   1      35.769  14.667  10.795  0.00  0.00     0.003 A 
HETATM   15  C   UNK N   1      36.858  14.555   9.938  0.00  0.00     0.017 A 
HETATM   16  C   UNK N   1      37.931  13.746  10.310  0.00  0.00     0.088 A 
HETATM   17  N   UNK N   1      37.903  13.075  11.492  0.00  0.00    -0.369 N 
ATOM     18  HN  UNK N   1      38.698  12.489  11.744  1.00  0.00     0.165 HD
ENDBRANCH  10  12
ENDBRANCH   9  10
BRANCH   8  19
HETATM   19  C   UNK N   1      34.830  10.457  15.230  0.00  0.00     0.065 C 
BRANCH  19  20
HETATM   20  C   UNK N   1      35.263   9.270  16.081  0.00  0.00     0.275 C 
BRANCH  20  21
HETATM   21  N   UNK N   1      36.327   8.528  15.409  0.00  0.00     0.080 N 
HETATM   22  C   UNK N   1      35.949   7.126  15.285  0.00  0.00     0.309 C 
HETATM   23  C   UNK N   1      37.489   8.565  16.278  0.00  0.00     0.309 C 
ENDBRANCH  20  21
ENDBRANCH  19  20
ENDBRANCH   8  19
TORSDOF 5
ENDMDL
MODEL 5
REMARK VINA RESULT:      -6.2      9.513     12.522
REMARK  5 active torsions:
REMARK  status: ('A' for Active; 'I' for Inactive)
REMARK    1  A    between atoms: C_8  and  C_10 
REMARK    2  A    between atoms: C_9  and  C_15 
REMARK    3  A    between atoms: C_10  and  C_11 
REMARK    4  A    between atoms: C_11  and  N_12 
REMARK    5  A    between atoms: C_15  and  C_16 
ROOT
HETATM    1  C   UNK N   1      26.794  20.562   4.417  0.00  0.00     0.001 A 
HETATM    2  C   UNK N   1      26.380  21.078   5.658  0.00  0.00     0.001 A 
HETATM    3  C   UNK N   1      26.897  20.548   6.850  0.00  0.00     0.008 A 
HETATM    4  C   UNK N   1      27.726  19.513   4.366  0.00  0.00     0.012 A 
HETATM    5  C   UNK N   1      28.230  18.998   5.565  0.00  0.00    -0.022 A 
HETATM    6  C   UNK N   1      27.822  19.506   6.771  0.00  0.00    -0.043 A 
HETATM    7  C   UNK N   1      28.491  18.819   7.908  0.00  0.00     0.074 A 
HETATM    8  C   UNK N   1      29.366  17.837   7.142  0.00  0.00    -0.066 A 
HETATM    9  C   UNK N   1      29.207  17.934   5.797  0.00  0.00    -0.035 A 
ENDROOT
BRANCH   9  10
HETATM   10  C   UNK N   1      29.887  17.136   4.652  0.00  0.00     0.065 C 
HETATM   11  C   UNK N   1      31.347  17.480   4.377  0.00  0.00     0.021 C 
BRANCH  10  12
HETATM   12  C   UNK N   1      29.340  16.081   3.690  0.00  0.00     0.017 A 
HETATM   13  C   UNK N   1      28.057  16.141   3.145  0.00  0.00     0.025 A 
HETATM   14  C   UNK N   1      27.609  15.150   2.274  0.00  0.00     0.003 A 
HETATM   15  C   UNK N   1      28.450  14.093   1.941  0.00  0.00     0.017 A 
HETATM   16  C   UNK N   1      29.731  14.051   2.490  0.00  0.00     0.088 A 
HETATM   17  N   UNK N   1      30.142  15.030   3.340  0.00  0.00    -0.369 N 
ATOM     18  HN  UNK N   1      31.083  14.980   3.729  1.00  0.00     0.165 HD
ENDBRANCH  10  12
ENDBRANCH   9  10
BRANCH   8  19
HETATM   19  C   UNK N   1      30.307  16.915   7.843  0.00  0.00     0.065 C 
BRANCH  19  20
HETATM   20  C   UNK N   1      31.554  17.558   8.436  0.00  0.00     0.275 C 
BRANCH  20  21
HETATM   21  N   UNK N   1      32.754  16.994   7.821  0.00  0.00     0.080 N 
HETATM   22  C   UNK N   1      33.389  16.062   8.744  0.00  0.00     0.309 C 
HETATM   23  C   UNK N   1      33.690  18.086   7.632  0.00  0.00     0.309 C 
ENDBRANCH  20  21
ENDBRANCH  19  20
ENDBRANCH   8  19
TORSDOF 5
ENDMDL
MODEL 6
REMARK VINA RESULT:      -6.2      9.025     11.759
REMARK  5 active torsions:
REMARK  status: ('A' for Active; 'I' for Inactive)
REMARK    1  A    between atoms: C_8  and  C_10 
REMARK    2  A    between atoms: C_9  and  C_15 
REMARK    3  A    between atoms: C_10  and  C_11 
REMARK    4  A    between atoms: C_11  and  N_12 
REMARK    5  A    between atoms: C_15  and  C_16 
ROOT
HETATM    1  C   UNK N   1      33.436  17.962   8.310  0.00  0.00     0.001 A 
HETATM    2  C   UNK N   1      34.190  16.953   7.687  0.00  0.00     0.001 A 
HETATM    3  C   UNK N   1      33.558  16.010   6.862  0.00  0.00     0.008 A 
HETATM    4  C   UNK N   1      32.048  18.030   8.111  0.00  0.00     0.012 A 
HETATM    5  C   UNK N   1      31.437  17.080   7.285  0.00  0.00    -0.022 A 
HETATM    6  C   UNK N   1      32.178  16.099   6.680  0.00  0.00    -0.043 A 
HETATM    7  C   UNK N   1      31.329  15.211   5.843  0.00  0.00     0.074 A 
HETATM    8  C   UNK N   1      29.972  15.863   6.063  0.00  0.00    -0.066 A 
HETATM    9  C   UNK N   1      30.033  16.930   6.899  0.00  0.00    -0.035 A 
ENDROOT
BRANCH   9  10
HETATM   10  C   UNK N   1      28.906  17.876   7.396  0.00  0.00     0.065 C 
HETATM   11  C   UNK N   1      28.440  17.657   8.831  0.00  0.00     0.021 C 
BRANCH  10  12
HETATM   12  C   UNK N   1      28.122  18.977   6.683  0.00  0.00     0.017 A 
HETATM   13  C   UNK N   1      28.157  19.164   5.302  0.00  0.00     0.025 A 
HETATM   14  C   UNK N   1      27.422  20.187   4.703  0.00  0.00     0.003 A 
HETATM   15  C   UNK N   1      26.643  21.026   5.492  0.00  0.00     0.017 A 
HETATM   16  C   UNK N   1      26.614  20.823   6.871  0.00  0.00     0.088 A 
HETATM   17  N   UNK N   1      27.343  19.819   7.429  0.00  0.00    -0.369 N 
ATOM     18  HN  UNK N   1      27.307  19.688   8.440  1.00  0.00     0.165 HD
ENDBRANCH  10  12
ENDBRANCH   9  10
BRANCH   8  19
HETATM   19  C   UNK N   1      28.743  15.365   5.377  0.00  0.00     0.065 C 
BRANCH  19  20
HETATM   20  C   UNK N   1      28.967  14.381   4.236  0.00  0.00     0.275 C 
BRANCH  20  21
HETATM   21  N   UNK N   1      28.052  14.669   3.134  0.00  0.00     0.080 N 
HETATM   22  C   UNK N   1      28.677  14.313   1.867  0.00  0.00     0.309 C 
HETATM   23  C   UNK N   1      27.856  16.107   3.106  0.00  0.00     0.309 C 
ENDBRANCH  20  21
ENDBRANCH  19  20
ENDBRANCH   8  19
TORSDOF 5
ENDMDL
MODEL 7
REMARK VINA RESULT:      -6.1     15.372     17.765
REMARK  5 active torsions:
REMARK  status: ('A' for Active; 'I' for Inactive)
REMARK    1  A    between atoms: C_8  and  C_10 
REMARK    2  A    between atoms: C_9  and  C_15 
REMARK    3  A    between atoms: C_10  and  C_11 
REMARK    4  A    between atoms: C_11  and  N_12 
REMARK    5  A    between atoms: C_15  and  C_16 
ROOT
HETATM    1  C   UNK N   1      20.913  12.901  10.461  0.00  0.00     0.001 A 
HETATM    2  C   UNK N   1      22.179  12.370  10.156  0.00  0.00     0.001 A 
HETATM    3  C   UNK N   1      22.944  12.924   9.118  0.00  0.00     0.008 A 
HETATM    4  C   UNK N   1      20.410  13.988   9.728  0.00  0.00     0.012 A 
HETATM    5  C   UNK N   1      21.188  14.526   8.698  0.00  0.00    -0.022 A 
HETATM    6  C   UNK N   1      22.421  14.003   8.406  0.00  0.00    -0.043 A 
HETATM    7  C   UNK N   1      23.073  14.733   7.287  0.00  0.00     0.074 A 
HETATM    8  C   UNK N   1      22.004  15.777   6.997  0.00  0.00    -0.066 A 
HETATM    9  C   UNK N   1      20.918  15.650   7.801  0.00  0.00    -0.035 A 
ENDROOT
BRANCH   9  10
HETATM   10  C   UNK N   1      19.610  16.486   7.851  0.00  0.00     0.065 C 
HETATM   11  C   UNK N   1      18.724  16.409   6.613  0.00  0.00     0.021 C 
BRANCH  10  12
HETATM   12  C   UNK N   1      19.055  17.434   8.915  0.00  0.00     0.017 A 
HETATM   13  C   UNK N   1      19.756  18.544   9.385  0.00  0.00     0.025 A 
HETATM   14  C   UNK N   1      19.202  19.375  10.358  0.00  0.00     0.003 A 
HETATM   15  C   UNK N   1      17.936  19.095  10.862  0.00  0.00     0.017 A 
HETATM   16  C   UNK N   1      17.246  17.985  10.378  0.00  0.00     0.088 A 
HETATM   17  N   UNK N   1      17.812  17.190   9.430  0.00  0.00    -0.369 N 
ATOM     18  HN  UNK N   1      17.289  16.383   9.090  1.00  0.00     0.165 HD
ENDBRANCH  10  12
ENDBRANCH   9  10
BRANCH   8  19
HETATM   19  C   UNK N   1      22.197  16.827   5.955  0.00  0.00     0.065 C 
BRANCH  19  20
HETATM   20  C   UNK N   1      21.862  16.420   4.525  0.00  0.00     0.275 C 
BRANCH  20  21
HETATM   21  N   UNK N   1      21.403  17.579   3.764  0.00  0.00     0.080 N 
HETATM   22  C   UNK N   1      21.264  18.728   4.650  0.00  0.00     0.309 C 
HETATM   23  C   UNK N   1      20.070  17.271   3.280  0.00  0.00     0.309 C 
ENDBRANCH  20  21
ENDBRANCH  19  20
ENDBRANCH   8  19
TORSDOF 5
ENDMDL
MODEL 8
REMARK VINA RESULT:      -6.1      1.800      2.735
REMARK  5 active torsions:
REMARK  status: ('A' for Active; 'I' for Inactive)
REMARK    1  A    between atoms: C_8  and  C_10 
REMARK    2  A    between atoms: C_9  and  C_15 
REMARK    3  A    between atoms: C_10  and  C_11 
REMARK    4  A    between atoms: C_11  and  N_12 
REMARK    5  A    between atoms: C_15  and  C_16 
ROOT
HETATM    1  C   UNK N   1      34.952  13.254  18.887  0.00  0.00     0.001 A 
HETATM    2  C   UNK N   1      35.061  11.935  19.363  0.00  0.00     0.001 A 
HETATM    3  C   UNK N   1      35.606  10.934  18.544  0.00  0.00     0.008 A 
HETATM    4  C   UNK N   1      35.387  13.574  17.592  0.00  0.00     0.012 A 
HETATM    5  C   UNK N   1      35.927  12.562  16.791  0.00  0.00    -0.022 A 
HETATM    6  C   UNK N   1      36.030  11.279  17.261  0.00  0.00    -0.043 A 
HETATM    7  C   UNK N   1      36.640  10.375  16.250  0.00  0.00     0.074 A 
HETATM    8  C   UNK N   1      36.883  11.368  15.122  0.00  0.00    -0.066 A 
HETATM    9  C   UNK N   1      36.463  12.622  15.430  0.00  0.00    -0.035 A 
ENDROOT
BRANCH   9  10
HETATM   10  C   UNK N   1      36.511  13.926  14.589  0.00  0.00     0.065 C 
HETATM   11  C   UNK N   1      37.147  15.133  15.269  0.00  0.00     0.021 C 
BRANCH  10  12
HETATM   12  C   UNK N   1      35.981  14.248  13.191  0.00  0.00     0.017 A 
HETATM   13  C   UNK N   1      35.083  13.426  12.510  0.00  0.00     0.025 A 
HETATM   14  C   UNK N   1      34.633  13.769  11.236  0.00  0.00     0.003 A 
HETATM   15  C   UNK N   1      35.081  14.943  10.640  0.00  0.00     0.017 A 
HETATM   16  C   UNK N   1      35.973  15.756  11.337  0.00  0.00     0.088 A 
HETATM   17  N   UNK N   1      36.399  15.397  12.578  0.00  0.00    -0.369 N 
ATOM     18  HN  UNK N   1      37.052  16.007  13.070  1.00  0.00     0.165 HD
ENDBRANCH  10  12
ENDBRANCH   9  10
BRANCH   8  19
HETATM   19  C   UNK N   1      37.548  10.962  13.850  0.00  0.00     0.065 C 
BRANCH  19  20
HETATM   20  C   UNK N   1      37.157   9.597  13.297  0.00  0.00     0.275 C 
BRANCH  20  21
HETATM   21  N   UNK N   1      36.093   9.741  12.306  0.00  0.00     0.080 N 
HETATM   22  C   UNK N   1      35.651   8.425  11.863  0.00  0.00     0.309 C 
HETATM   23  C   UNK N   1      36.674  10.391  11.146  0.00  0.00     0.309 C 
ENDBRANCH  20  21
ENDBRANCH  19  20
ENDBRANCH   8  19
TORSDOF 5
ENDMDL
MODEL 9
REMARK VINA RESULT:      -6.0      8.510     11.785
REMARK  5 active torsions:
REMARK  status: ('A' for Active; 'I' for Inactive)
REMARK    1  A    between atoms: C_8  and  C_10 
REMARK    2  A    between atoms: C_9  and  C_15 
REMARK    3  A    between atoms: C_10  and  C_11 
REMARK    4  A    between atoms: C_11  and  N_12 
REMARK    5  A    between atoms: C_15  and  C_16 
ROOT
HETATM    1  C   UNK N   1      27.103  20.846   6.497  0.00  0.00     0.001 A 
HETATM    2  C   UNK N   1      26.675  20.766   5.160  0.00  0.00     0.001 A 
HETATM    3  C   UNK N   1      27.092  19.700   4.349  0.00  0.00     0.008 A 
HETATM    4  C   UNK N   1      27.950  19.859   7.025  0.00  0.00     0.012 A 
HETATM    5  C   UNK N   1      28.354  18.804   6.201  0.00  0.00    -0.022 A 
HETATM    6  C   UNK N   1      27.933  18.732   4.898  0.00  0.00    -0.043 A 
HETATM    7  C   UNK N   1      28.473  17.528   4.215  0.00  0.00     0.074 A 
HETATM    8  C   UNK N   1      29.268  16.912   5.358  0.00  0.00    -0.066 A 
HETATM    9  C   UNK N   1      29.207  17.651   6.495  0.00  0.00    -0.035 A 
ENDROOT
BRANCH   9  10
HETATM   10  C   UNK N   1      29.859  17.405   7.882  0.00  0.00     0.065 C 
HETATM   11  C   UNK N   1      28.916  17.454   9.078  0.00  0.00     0.021 C 
BRANCH  10  12
HETATM   12  C   UNK N   1      31.314  17.168   8.289  0.00  0.00     0.017 A 
HETATM   13  C   UNK N   1      32.337  18.076   8.018  0.00  0.00     0.025 A 
HETATM   14  C   UNK N   1      33.648  17.808   8.410  0.00  0.00     0.003 A 
HETATM   15  C   UNK N   1      33.937  16.625   9.082  0.00  0.00     0.017 A 
HETATM   16  C   UNK N   1      32.901  15.731   9.351  0.00  0.00     0.088 A 
HETATM   17  N   UNK N   1      31.632  16.016   8.953  0.00  0.00    -0.369 N 
ATOM     18  HN  UNK N   1      30.890  15.347   9.160  1.00  0.00     0.165 HD
ENDBRANCH  10  12
ENDBRANCH   9  10
BRANCH   8  19
HETATM   19  C   UNK N   1      29.987  15.614   5.202  0.00  0.00     0.065 C 
BRANCH  19  20
HETATM   20  C   UNK N   1      31.465  15.707   4.844  0.00  0.00     0.275 C 
BRANCH  20  21
HETATM   21  N   UNK N   1      31.634  15.717   3.393  0.00  0.00     0.080 N 
HETATM   22  C   UNK N   1      32.465  14.592   2.986  0.00  0.00     0.309 C 
HETATM   23  C   UNK N   1      32.374  16.918   3.057  0.00  0.00     0.309 C 
ENDBRANCH  20  21
ENDBRANCH  19  20
ENDBRANCH   8  19
TORSDOF 5
ENDMDL
