MODEL 1
REMARK VINA RESULT:      -7.5      0.000      0.000
REMARK  11 active torsions:
REMARK  status: ('A' for Active; 'I' for Inactive)
REMARK    1  A    between atoms: C_18  and  C_11 
REMARK    2  A    between atoms: C_21  and  C_12 
REMARK    3  A    between atoms: C_18  and  C_13 
REMARK    4  A    between atoms: C_19  and  C_13 
REMARK    5  A    between atoms: C_19  and  C_14 
REMARK    6  A    between atoms: C_23  and  C_14 
REMARK    7  A    between atoms: C_24  and  C_15 
REMARK    8  A    between atoms: C_25  and  C_16 
REMARK    9  A    between atoms: C_18  and  O_29 
REMARK   10  A    between atoms: C_19  and  O_30 
REMARK   11  A    between atoms: O_32  and  C_23 
ROOT
HETATM    1  C   UNK N   1      22.893  11.898   9.885  0.00  0.00     0.001 A 
HETATM    2  C   UNK N   1      21.796  12.028  10.734  0.00  0.00     0.002 A 
HETATM    3  C   UNK N   1      23.054  12.778   8.814  0.00  0.00     0.014 A 
HETATM    4  C   UNK N   1      20.865  13.042  10.514  0.00  0.00     0.030 A 
HETATM    5  C   UNK N   1      22.122  13.804   8.563  0.00  0.00     0.003 A 
HETATM    6  C   UNK N   1      21.246  15.726   7.308  0.00  0.00    -0.001 A 
HETATM    7  C   UNK N   1      21.023  13.925   9.442  0.00  0.00     0.043 A 
HETATM    8  C   UNK N   1      22.261  14.716   7.468  0.00  0.00    -0.001 A 
HETATM    9  C   UNK N   1      20.178  15.801   8.253  0.00  0.00     0.025 A 
HETATM   10  N   UNK N   1      20.108  14.901   9.262  0.00  0.00    -0.358 N 
ATOM     11  HN  UNK N   1      19.328  14.964   9.917  1.00  0.00     0.166 HD
ENDROOT
BRANCH   6  12
HETATM   12  C   UNK N   1      21.298  16.619   6.116  0.00  0.00     0.013 C 
HETATM   13  C   UNK N   1      21.852  17.828   6.040  0.00  0.00     0.006 C 
BRANCH  13  14
HETATM   14  C   UNK N   1      21.772  18.603   4.772  0.00  0.00     0.143 C 
BRANCH  14  15
HETATM   15  C   UNK N   1      20.690  18.053   3.859  0.00  0.00     0.068 C 
BRANCH  15  16
HETATM   16  C   UNK N   1      19.998  19.199   3.151  0.00  0.00     0.130 C 
BRANCH  16  17
HETATM   17  C   UNK N   1      20.392  19.190   1.678  0.00  0.00     0.141 C 
BRANCH  17  18
HETATM   18  C   UNK N   1      21.070  20.455   1.245  0.00  0.00     0.141 C 
HETATM   19  O   UNK N   1      22.180  20.720   1.676  0.00  0.00    -0.650 OA
BRANCH  18  20
HETATM   20  O   UNK N   1      20.480  21.291   0.367  0.00  0.00    -0.776 OA
HETATM   21  H   UNK N   1      19.970  22.050   0.574  0.00  0.00     0.167 HD
ENDBRANCH  18  20
ENDBRANCH  17  18
ENDBRANCH  16  17
BRANCH  16  22
HETATM   22  O   UNK N   1      20.393  20.404   3.729  0.00  0.00    -0.395 OA
HETATM   23  H   UNK N   1      20.020  21.190   4.160  0.00  0.00     0.210 HD
ENDBRANCH  16  22
ENDBRANCH  15  16
ENDBRANCH  14  15
BRANCH  14  24
HETATM   24  O   UNK N   1      23.001  18.550   4.115  0.00  0.00    -0.392 OA
HETATM   25  H   UNK N   1      23.772  18.061   4.442  0.00  0.00     0.210 HD
ENDBRANCH  14  24
ENDBRANCH  13  14
ENDBRANCH   6  12
BRANCH   8  26
HETATM   26  C   UNK N   1      23.433  14.601   6.488  0.00  0.00    -0.024 A 
HETATM   27  C   UNK N   1      23.328  13.852   5.298  0.00  0.00     0.015 A 
HETATM   28  C   UNK N   1      24.399  13.726   4.411  0.00  0.00     0.043 A 
HETATM   29  C   UNK N   1      25.611  14.347   4.695  0.00  0.00     0.116 A 
HETATM   30  C   UNK N   1      25.746  15.105   5.858  0.00  0.00     0.043 A 
HETATM   31  F   UNK N   1      26.657  14.212   3.845  0.00  0.00    -0.206 F 
HETATM   32  C   UNK N   1      24.667  15.232   6.738  0.00  0.00     0.015 A 
ENDBRANCH   8  26
BRANCH   9  33
HETATM   33  C   UNK N   1      19.080  16.834   8.181  0.00  0.00     0.036 A 
HETATM   34  C   UNK N   1      18.350  16.934   9.514  0.00  0.00     0.011 A 
HETATM   35  C   UNK N   1      19.360  17.985   9.142  0.00  0.00     0.011 A 
ENDBRANCH   9  33
TORSDOF 11
ENDMDL
MODEL 2
REMARK VINA RESULT:      -7.2     13.563     16.194
REMARK  11 active torsions:
REMARK  status: ('A' for Active; 'I' for Inactive)
REMARK    1  A    between atoms: C_18  and  C_11 
REMARK    2  A    between atoms: C_21  and  C_12 
REMARK    3  A    between atoms: C_18  and  C_13 
REMARK    4  A    between atoms: C_19  and  C_13 
REMARK    5  A    between atoms: C_19  and  C_14 
REMARK    6  A    between atoms: C_23  and  C_14 
REMARK    7  A    between atoms: C_24  and  C_15 
REMARK    8  A    between atoms: C_25  and  C_16 
REMARK    9  A    between atoms: C_18  and  O_29 
REMARK   10  A    between atoms: C_19  and  O_30 
REMARK   11  A    between atoms: O_32  and  C_23 
ROOT
HETATM    1  C   UNK N   1      36.675   8.955  17.028  0.00  0.00     0.001 A 
HETATM    2  C   UNK N   1      36.520   7.905  16.125  0.00  0.00     0.002 A 
HETATM    3  C   UNK N   1      36.462  10.270  16.612  0.00  0.00     0.014 A 
HETATM    4  C   UNK N   1      36.145   8.173  14.809  0.00  0.00     0.030 A 
HETATM    5  C   UNK N   1      36.094  10.568  15.285  0.00  0.00     0.003 A 
HETATM    6  C   UNK N   1      35.503  12.095  13.453  0.00  0.00    -0.001 A 
HETATM    7  C   UNK N   1      35.931   9.489  14.389  0.00  0.00     0.043 A 
HETATM    8  C   UNK N   1      35.876  11.909  14.832  0.00  0.00    -0.001 A 
HETATM    9  C   UNK N   1      35.332  10.951  12.614  0.00  0.00     0.025 A 
HETATM   10  N   UNK N   1      35.561   9.712  13.110  0.00  0.00    -0.358 N 
ATOM     11  HN  UNK N   1      35.448   8.911  12.489  1.00  0.00     0.166 HD
ENDROOT
BRANCH   6  12
HETATM   12  C   UNK N   1      35.379  13.480  12.919  0.00  0.00     0.013 C 
HETATM   13  C   UNK N   1      36.215  14.100  12.088  0.00  0.00     0.006 C 
BRANCH  13  14
HETATM   14  C   UNK N   1      35.957  15.511  11.690  0.00  0.00     0.143 C 
BRANCH  14  15
HETATM   15  C   UNK N   1      34.685  15.625  10.865  0.00  0.00     0.068 C 
BRANCH  15  16
HETATM   16  C   UNK N   1      35.023  16.171   9.494  0.00  0.00     0.130 C 
BRANCH  16  17
HETATM   17  C   UNK N   1      34.003  17.238   9.114  0.00  0.00     0.141 C 
BRANCH  17  18
HETATM   18  C   UNK N   1      34.497  18.169   8.048  0.00  0.00     0.141 C 
HETATM   19  O   UNK N   1      34.965  19.250   8.364  0.00  0.00    -0.650 OA
BRANCH  18  20
HETATM   20  O   UNK N   1      34.454  17.817   6.747  0.00  0.00    -0.776 OA
HETATM   21  H   UNK N   1      33.752  17.981   6.148  0.00  0.00     0.167 HD
ENDBRANCH  18  20
ENDBRANCH  17  18
ENDBRANCH  16  17
BRANCH  16  22
HETATM   22  O   UNK N   1      34.980  15.136   8.562  0.00  0.00    -0.395 OA
HETATM   23  H   UNK N   1      34.779  14.975   7.626  0.00  0.00     0.210 HD
ENDBRANCH  16  22
ENDBRANCH  15  16
ENDBRANCH  14  15
BRANCH  14  24
HETATM   24  O   UNK N   1      37.034  15.990  10.944  0.00  0.00    -0.392 OA
HETATM   25  H   UNK N   1      37.802  16.442  11.327  0.00  0.00     0.210 HD
ENDBRANCH  14  24
ENDBRANCH  13  14
ENDBRANCH   6  12
BRANCH   8  26
HETATM   26  C   UNK N   1      36.061  13.102  15.776  0.00  0.00    -0.024 A 
HETATM   27  C   UNK N   1      35.252  13.269  16.918  0.00  0.00     0.015 A 
HETATM   28  C   UNK N   1      35.401  14.365  17.770  0.00  0.00     0.043 A 
HETATM   29  C   UNK N   1      36.367  15.329  17.498  0.00  0.00     0.116 A 
HETATM   30  C   UNK N   1      37.191  15.189  16.382  0.00  0.00     0.043 A 
HETATM   31  F   UNK N   1      36.501  16.402  18.313  0.00  0.00    -0.206 F 
HETATM   32  C   UNK N   1      37.041  14.085  15.536  0.00  0.00     0.015 A 
ENDBRANCH   8  26
BRANCH   9  33
HETATM   33  C   UNK N   1      34.925  11.042  11.164  0.00  0.00     0.036 A 
HETATM   34  C   UNK N   1      34.931   9.663  10.518  0.00  0.00     0.011 A 
HETATM   35  C   UNK N   1      33.623  10.287  10.921  0.00  0.00     0.011 A 
ENDBRANCH   9  33
TORSDOF 11
ENDMDL
MODEL 3
REMARK VINA RESULT:      -7.1     13.833     16.206
REMARK  11 active torsions:
REMARK  status: ('A' for Active; 'I' for Inactive)
REMARK    1  A    between atoms: C_18  and  C_11 
REMARK    2  A    between atoms: C_21  and  C_12 
REMARK    3  A    between atoms: C_18  and  C_13 
REMARK    4  A    between atoms: C_19  and  C_13 
REMARK    5  A    between atoms: C_19  and  C_14 
REMARK    6  A    between atoms: C_23  and  C_14 
REMARK    7  A    between atoms: C_24  and  C_15 
REMARK    8  A    between atoms: C_25  and  C_16 
REMARK    9  A    between atoms: C_18  and  O_29 
REMARK   10  A    between atoms: C_19  and  O_30 
REMARK   11  A    between atoms: O_32  and  C_23 
ROOT
HETATM    1  C   UNK N   1      35.737   7.002  16.856  0.00  0.00     0.001 A 
HETATM    2  C   UNK N   1      35.511   7.426  18.164  0.00  0.00     0.002 A 
HETATM    3  C   UNK N   1      35.707   7.923  15.809  0.00  0.00     0.014 A 
HETATM    4  C   UNK N   1      35.261   8.773  18.421  0.00  0.00     0.030 A 
HETATM    5  C   UNK N   1      35.445   9.287  16.040  0.00  0.00     0.003 A 
HETATM    6  C   UNK N   1      35.125  11.620  15.338  0.00  0.00    -0.001 A 
HETATM    7  C   UNK N   1      35.229   9.699  17.374  0.00  0.00     0.043 A 
HETATM    8  C   UNK N   1      35.402  10.251  14.983  0.00  0.00    -0.001 A 
HETATM    9  C   UNK N   1      34.944  11.963  16.713  0.00  0.00     0.025 A 
HETATM   10  N   UNK N   1      34.993  10.997  17.660  0.00  0.00    -0.358 N 
ATOM     11  HN  UNK N   1      34.845  11.262  18.633  1.00  0.00     0.166 HD
ENDROOT
BRANCH   6  12
HETATM   12  C   UNK N   1      34.962  12.628  14.253  0.00  0.00     0.013 C 
HETATM   13  C   UNK N   1      35.920  13.351  13.676  0.00  0.00     0.006 C 
BRANCH  13  14
HETATM   14  C   UNK N   1      35.569  14.351  12.630  0.00  0.00     0.143 C 
BRANCH  14  15
HETATM   15  C   UNK N   1      35.547  13.717  11.249  0.00  0.00     0.068 C 
BRANCH  15  16
HETATM   16  C   UNK N   1      34.398  14.294  10.449  0.00  0.00     0.130 C 
BRANCH  16  17
HETATM   17  C   UNK N   1      34.949  15.260   9.406  0.00  0.00     0.141 C 
BRANCH  17  18
HETATM   18  C   UNK N   1      34.792  16.698   9.798  0.00  0.00     0.141 C 
HETATM   19  O   UNK N   1      35.651  17.231  10.481  0.00  0.00    -0.650 OA
BRANCH  18  20
HETATM   20  O   UNK N   1      33.729  17.417   9.385  0.00  0.00    -0.776 OA
HETATM   21  H   UNK N   1      33.510  17.633   8.499  0.00  0.00     0.167 HD
ENDBRANCH  18  20
ENDBRANCH  17  18
ENDBRANCH  16  17
BRANCH  16  22
HETATM   22  O   UNK N   1      33.537  14.978  11.306  0.00  0.00    -0.395 OA
HETATM   23  H   UNK N   1      32.594  15.170  11.428  0.00  0.00     0.210 HD
ENDBRANCH  16  22
ENDBRANCH  15  16
ENDBRANCH  14  15
BRANCH  14  24
HETATM   24  O   UNK N   1      36.500  15.389  12.646  0.00  0.00    -0.392 OA
HETATM   25  H   UNK N   1      36.379  16.235  12.188  0.00  0.00     0.210 HD
ENDBRANCH  14  24
ENDBRANCH  13  14
ENDBRANCH   6  12
BRANCH   8  26
HETATM   26  C   UNK N   1      35.616   9.834  13.524  0.00  0.00    -0.024 A 
HETATM   27  C   UNK N   1      36.901   9.804  12.947  0.00  0.00     0.015 A 
HETATM   28  C   UNK N   1      37.101   9.445  11.613  0.00  0.00     0.043 A 
HETATM   29  C   UNK N   1      36.012   9.107  10.816  0.00  0.00     0.116 A 
HETATM   30  C   UNK N   1      34.727   9.115  11.357  0.00  0.00     0.043 A 
HETATM   31  F   UNK N   1      36.201   8.776   9.516  0.00  0.00    -0.206 F 
HETATM   32  C   UNK N   1      34.535   9.469  12.696  0.00  0.00     0.015 A 
ENDBRANCH   8  26
BRANCH   9  33
HETATM   33  C   UNK N   1      34.669  13.370  17.185  0.00  0.00     0.036 A 
HETATM   34  C   UNK N   1      35.212  13.578  18.592  0.00  0.00     0.011 A 
HETATM   35  C   UNK N   1      35.974  14.125  17.416  0.00  0.00     0.011 A 
ENDBRANCH   9  33
TORSDOF 11
ENDMDL
MODEL 4
REMARK VINA RESULT:      -7.0      8.426     12.060
REMARK  11 active torsions:
REMARK  status: ('A' for Active; 'I' for Inactive)
REMARK    1  A    between atoms: C_18  and  C_11 
REMARK    2  A    between atoms: C_21  and  C_12 
REMARK    3  A    between atoms: C_18  and  C_13 
REMARK    4  A    between atoms: C_19  and  C_13 
REMARK    5  A    between atoms: C_19  and  C_14 
REMARK    6  A    between atoms: C_23  and  C_14 
REMARK    7  A    between atoms: C_24  and  C_15 
REMARK    8  A    between atoms: C_25  and  C_16 
REMARK    9  A    between atoms: C_18  and  O_29 
REMARK   10  A    between atoms: C_19  and  O_30 
REMARK   11  A    between atoms: O_32  and  C_23 
ROOT
HETATM    1  C   UNK N   1      27.530  16.128   2.965  0.00  0.00     0.001 A 
HETATM    2  C   UNK N   1      26.514  16.736   3.700  0.00  0.00     0.002 A 
HETATM    3  C   UNK N   1      28.820  16.047   3.491  0.00  0.00     0.014 A 
HETATM    4  C   UNK N   1      26.790  17.257   4.963  0.00  0.00     0.030 A 
HETATM    5  C   UNK N   1      29.128  16.576   4.760  0.00  0.00     0.003 A 
HETATM    6  C   UNK N   1      30.643  17.087   6.626  0.00  0.00    -0.001 A 
HETATM    7  C   UNK N   1      28.082  17.179   5.494  0.00  0.00     0.043 A 
HETATM    8  C   UNK N   1      30.444  16.513   5.319  0.00  0.00    -0.001 A 
HETATM    9  C   UNK N   1      29.529  17.656   7.316  0.00  0.00     0.025 A 
HETATM   10  N   UNK N   1      28.312  17.686   6.723  0.00  0.00    -0.358 N 
ATOM     11  HN  UNK N   1      27.535  18.111   7.228  1.00  0.00     0.166 HD
ENDROOT
BRANCH   6  12
HETATM   12  C   UNK N   1      32.020  17.139   7.189  0.00  0.00     0.013 C 
HETATM   13  C   UNK N   1      32.582  16.265   8.023  0.00  0.00     0.006 C 
BRANCH  13  14
HETATM   14  C   UNK N   1      33.965  16.498   8.523  0.00  0.00     0.143 C 
BRANCH  14  15
HETATM   15  C   UNK N   1      34.552  15.232   9.125  0.00  0.00     0.068 C 
BRANCH  15  16
HETATM   16  C   UNK N   1      34.644  15.386  10.629  0.00  0.00     0.130 C 
BRANCH  16  17
HETATM   17  C   UNK N   1      35.796  14.535  11.151  0.00  0.00     0.141 C 
BRANCH  17  18
HETATM   18  C   UNK N   1      35.757  14.344  12.637  0.00  0.00     0.141 C 
HETATM   19  O   UNK N   1      34.867  13.674  13.133  0.00  0.00    -0.650 OA
BRANCH  18  20
HETATM   20  O   UNK N   1      36.706  14.883  13.430  0.00  0.00    -0.776 OA
HETATM   21  H   UNK N   1      36.881  15.796  13.550  0.00  0.00     0.167 HD
ENDBRANCH  18  20
ENDBRANCH  17  18
ENDBRANCH  16  17
BRANCH  16  22
HETATM   22  O   UNK N   1      33.451  14.959  11.210  0.00  0.00    -0.395 OA
HETATM   23  H   UNK N   1      33.104  14.620  12.050  0.00  0.00     0.210 HD
ENDBRANCH  16  22
ENDBRANCH  15  16
ENDBRANCH  14  15
BRANCH  14  24
HETATM   24  O   UNK N   1      33.947  17.503   9.491  0.00  0.00    -0.392 OA
HETATM   25  H   UNK N   1      34.661  18.146   9.619  0.00  0.00     0.210 HD
ENDBRANCH  14  24
ENDBRANCH  13  14
ENDBRANCH   6  12
BRANCH   8  26
HETATM   26  C   UNK N   1      31.603  15.880   4.542  0.00  0.00    -0.024 A 
HETATM   27  C   UNK N   1      31.973  14.534   4.737  0.00  0.00     0.015 A 
HETATM   28  C   UNK N   1      33.041  13.957   4.048  0.00  0.00     0.043 A 
HETATM   29  C   UNK N   1      33.774  14.718   3.142  0.00  0.00     0.116 A 
HETATM   30  C   UNK N   1      33.428  16.050   2.917  0.00  0.00     0.043 A 
HETATM   31  F   UNK N   1      34.821  14.167   2.486  0.00  0.00    -0.206 F 
HETATM   32  C   UNK N   1      32.352  16.620   3.606  0.00  0.00     0.015 A 
ENDBRANCH   8  26
BRANCH   9  33
HETATM   33  C   UNK N   1      29.633  18.264   8.694  0.00  0.00     0.036 A 
HETATM   34  C   UNK N   1      28.281  18.238   9.394  0.00  0.00     0.011 A 
HETATM   35  C   UNK N   1      29.327  17.223   9.766  0.00  0.00     0.011 A 
ENDBRANCH   9  33
TORSDOF 11
ENDMDL
MODEL 5
REMARK VINA RESULT:      -6.8      8.258     11.470
REMARK  11 active torsions:
REMARK  status: ('A' for Active; 'I' for Inactive)
REMARK    1  A    between atoms: C_18  and  C_11 
REMARK    2  A    between atoms: C_21  and  C_12 
REMARK    3  A    between atoms: C_18  and  C_13 
REMARK    4  A    between atoms: C_19  and  C_13 
REMARK    5  A    between atoms: C_19  and  C_14 
REMARK    6  A    between atoms: C_23  and  C_14 
REMARK    7  A    between atoms: C_24  and  C_15 
REMARK    8  A    between atoms: C_25  and  C_16 
REMARK    9  A    between atoms: C_18  and  O_29 
REMARK   10  A    between atoms: C_19  and  O_30 
REMARK   11  A    between atoms: O_32  and  C_23 
ROOT
HETATM    1  C   UNK N   1      26.196  15.940   2.407  0.00  0.00     0.001 A 
HETATM    2  C   UNK N   1      26.782  14.857   1.755  0.00  0.00     0.002 A 
HETATM    3  C   UNK N   1      26.947  16.708   3.297  0.00  0.00     0.014 A 
HETATM    4  C   UNK N   1      28.121  14.549   1.989  0.00  0.00     0.030 A 
HETATM    5  C   UNK N   1      28.299  16.411   3.561  0.00  0.00     0.003 A 
HETATM    6  C   UNK N   1      30.462  16.783   4.665  0.00  0.00    -0.001 A 
HETATM    7  C   UNK N   1      28.877  15.316   2.881  0.00  0.00     0.043 A 
HETATM    8  C   UNK N   1      29.089  17.179   4.474  0.00  0.00    -0.001 A 
HETATM    9  C   UNK N   1      30.981  15.679   3.922  0.00  0.00     0.025 A 
HETATM   10  N   UNK N   1      30.173  14.995   3.078  0.00  0.00    -0.358 N 
ATOM     11  HN  UNK N   1      30.561  14.201   2.569  1.00  0.00     0.166 HD
ENDROOT
BRANCH   6  12
HETATM   12  C   UNK N   1      31.280  17.488   5.690  0.00  0.00     0.013 C 
HETATM   13  C   UNK N   1      31.684  17.010   6.866  0.00  0.00     0.006 C 
BRANCH  13  14
HETATM   14  C   UNK N   1      32.464  17.875   7.792  0.00  0.00     0.143 C 
BRANCH  14  15
HETATM   15  C   UNK N   1      33.914  17.428   7.873  0.00  0.00     0.068 C 
BRANCH  15  16
HETATM   16  C   UNK N   1      34.028  16.001   7.377  0.00  0.00     0.130 C 
BRANCH  16  17
HETATM   17  C   UNK N   1      34.292  15.079   8.561  0.00  0.00     0.141 C 
BRANCH  17  18
HETATM   18  C   UNK N   1      33.037  14.519   9.161  0.00  0.00     0.141 C 
HETATM   19  O   UNK N   1      32.528  13.527   8.669  0.00  0.00    -0.650 OA
BRANCH  18  20
HETATM   20  O   UNK N   1      32.478  15.085  10.251  0.00  0.00    -0.776 OA
HETATM   21  H   UNK N   1      32.357  14.682  11.088  0.00  0.00     0.167 HD
ENDBRANCH  18  20
ENDBRANCH  17  18
ENDBRANCH  16  17
BRANCH  16  22
HETATM   22  O   UNK N   1      35.084  15.909   6.473  0.00  0.00    -0.395 OA
HETATM   23  H   UNK N   1      35.929  15.449   6.348  0.00  0.00     0.210 HD
ENDBRANCH  16  22
ENDBRANCH  15  16
ENDBRANCH  14  15
BRANCH  14  24
HETATM   24  O   UNK N   1      31.896  17.828   9.066  0.00  0.00    -0.392 OA
HETATM   25  H   UNK N   1      32.399  17.922   9.889  0.00  0.00     0.210 HD
ENDBRANCH  14  24
ENDBRANCH  13  14
ENDBRANCH   6  12
BRANCH   8  26
HETATM   26  C   UNK N   1      28.487  18.362   5.238  0.00  0.00    -0.024 A 
HETATM   27  C   UNK N   1      28.195  18.278   6.615  0.00  0.00     0.015 A 
HETATM   28  C   UNK N   1      27.626  19.345   7.312  0.00  0.00     0.043 A 
HETATM   29  C   UNK N   1      27.332  20.531   6.647  0.00  0.00     0.116 A 
HETATM   30  C   UNK N   1      27.619  20.652   5.287  0.00  0.00     0.043 A 
HETATM   31  F   UNK N   1      26.765  21.561   7.317  0.00  0.00    -0.206 F 
HETATM   32  C   UNK N   1      28.194  19.582   4.596  0.00  0.00     0.015 A 
ENDBRANCH   8  26
BRANCH   9  33
HETATM   33  C   UNK N   1      32.408  15.201   4.039  0.00  0.00     0.036 A 
HETATM   34  C   UNK N   1      32.851  14.516   2.753  0.00  0.00     0.011 A 
HETATM   35  C   UNK N   1      33.302  15.923   3.035  0.00  0.00     0.011 A 
ENDBRANCH   9  33
TORSDOF 11
ENDMDL
MODEL 6
REMARK VINA RESULT:      -6.8      2.056      2.234
REMARK  11 active torsions:
REMARK  status: ('A' for Active; 'I' for Inactive)
REMARK    1  A    between atoms: C_18  and  C_11 
REMARK    2  A    between atoms: C_21  and  C_12 
REMARK    3  A    between atoms: C_18  and  C_13 
REMARK    4  A    between atoms: C_19  and  C_13 
REMARK    5  A    between atoms: C_19  and  C_14 
REMARK    6  A    between atoms: C_23  and  C_14 
REMARK    7  A    between atoms: C_24  and  C_15 
REMARK    8  A    between atoms: C_25  and  C_16 
REMARK    9  A    between atoms: C_18  and  O_29 
REMARK   10  A    between atoms: C_19  and  O_30 
REMARK   11  A    between atoms: O_32  and  C_23 
ROOT
HETATM    1  C   UNK N   1      22.899  11.740  10.465  0.00  0.00     0.001 A 
HETATM    2  C   UNK N   1      21.729  11.941  11.194  0.00  0.00     0.002 A 
HETATM    3  C   UNK N   1      23.170  12.531   9.348  0.00  0.00     0.014 A 
HETATM    4  C   UNK N   1      20.835  12.938  10.807  0.00  0.00     0.030 A 
HETATM    5  C   UNK N   1      22.277  13.537   8.929  0.00  0.00     0.003 A 
HETATM    6  C   UNK N   1      21.544  15.355   7.447  0.00  0.00    -0.001 A 
HETATM    7  C   UNK N   1      21.102  13.731   9.687  0.00  0.00     0.043 A 
HETATM    8  C   UNK N   1      22.529  14.356   7.783  0.00  0.00    -0.001 A 
HETATM    9  C   UNK N   1      20.393  15.509   8.279  0.00  0.00     0.025 A 
HETATM   10  N   UNK N   1      20.218  14.693   9.345  0.00  0.00    -0.358 N 
ATOM     11  HN  UNK N   1      19.382  14.811   9.916  1.00  0.00     0.166 HD
ENDROOT
BRANCH   6  12
HETATM   12  C   UNK N   1      21.718  16.148   6.199  0.00  0.00     0.013 C 
HETATM   13  C   UNK N   1      21.203  15.882   4.999  0.00  0.00     0.006 C 
BRANCH  13  14
HETATM   14  C   UNK N   1      21.519  16.766   3.843  0.00  0.00     0.143 C 
BRANCH  14  15
HETATM   15  C   UNK N   1      20.383  16.776   2.833  0.00  0.00     0.068 C 
BRANCH  15  16
HETATM   16  C   UNK N   1      20.193  15.380   2.277  0.00  0.00     0.130 C 
BRANCH  16  17
HETATM   17  C   UNK N   1      20.387  15.412   0.766  0.00  0.00     0.141 C 
BRANCH  17  18
HETATM   18  C   UNK N   1      19.682  16.560   0.108  0.00  0.00     0.141 C 
HETATM   19  O   UNK N   1      20.336  17.481  -0.353  0.00  0.00    -0.650 OA
BRANCH  18  20
HETATM   20  O   UNK N   1      18.338  16.577  -0.002  0.00  0.00    -0.776 OA
HETATM   21  H   UNK N   1      17.731  16.072   0.502  0.00  0.00     0.167 HD
ENDBRANCH  18  20
ENDBRANCH  17  18
ENDBRANCH  16  17
BRANCH  16  22
HETATM   22  O   UNK N   1      18.904  14.939   2.570  0.00  0.00    -0.395 OA
HETATM   23  H   UNK N   1      18.102  15.218   3.040  0.00  0.00     0.210 HD
ENDBRANCH  16  22
ENDBRANCH  15  16
ENDBRANCH  14  15
BRANCH  14  24
HETATM   24  O   UNK N   1      22.685  16.322   3.221  0.00  0.00    -0.392 OA
HETATM   25  H   UNK N   1      23.578  16.478   3.564  0.00  0.00     0.210 HD
ENDBRANCH  14  24
ENDBRANCH  13  14
ENDBRANCH   6  12
BRANCH   8  26
HETATM   26  C   UNK N   1      23.786  14.159   6.930  0.00  0.00    -0.024 A 
HETATM   27  C   UNK N   1      23.815  13.241   5.861  0.00  0.00     0.015 A 
HETATM   28  C   UNK N   1      24.964  13.041   5.093  0.00  0.00     0.043 A 
HETATM   29  C   UNK N   1      26.122  13.757   5.380  0.00  0.00     0.116 A 
HETATM   30  C   UNK N   1      26.125  14.682   6.423  0.00  0.00     0.043 A 
HETATM   31  F   UNK N   1      27.243  13.552   4.648  0.00  0.00    -0.206 F 
HETATM   32  C   UNK N   1      24.969  14.882   7.184  0.00  0.00     0.015 A 
ENDBRANCH   8  26
BRANCH   9  33
HETATM   33  C   UNK N   1      19.318  16.536   8.021  0.00  0.00     0.036 A 
HETATM   34  C   UNK N   1      18.459  16.735   9.262  0.00  0.00     0.011 A 
HETATM   35  C   UNK N   1      19.511  17.754   8.919  0.00  0.00     0.011 A 
ENDBRANCH   9  33
TORSDOF 11
ENDMDL
MODEL 7
REMARK VINA RESULT:      -6.5     13.032     15.479
REMARK  11 active torsions:
REMARK  status: ('A' for Active; 'I' for Inactive)
REMARK    1  A    between atoms: C_18  and  C_11 
REMARK    2  A    between atoms: C_21  and  C_12 
REMARK    3  A    between atoms: C_18  and  C_13 
REMARK    4  A    between atoms: C_19  and  C_13 
REMARK    5  A    between atoms: C_19  and  C_14 
REMARK    6  A    between atoms: C_23  and  C_14 
REMARK    7  A    between atoms: C_24  and  C_15 
REMARK    8  A    between atoms: C_25  and  C_16 
REMARK    9  A    between atoms: C_18  and  O_29 
REMARK   10  A    between atoms: C_19  and  O_30 
REMARK   11  A    between atoms: O_32  and  C_23 
ROOT
HETATM    1  C   UNK N   1      35.840   7.357  13.934  0.00  0.00     0.001 A 
HETATM    2  C   UNK N   1      35.816   6.694  12.709  0.00  0.00     0.002 A 
HETATM    3  C   UNK N   1      35.689   8.743  13.980  0.00  0.00     0.014 A 
HETATM    4  C   UNK N   1      35.634   7.419  11.532  0.00  0.00     0.030 A 
HETATM    5  C   UNK N   1      35.516   9.501  12.804  0.00  0.00     0.003 A 
HETATM    6  C   UNK N   1      35.194  11.594  11.559  0.00  0.00    -0.001 A 
HETATM    7  C   UNK N   1      35.483   8.808  11.574  0.00  0.00     0.043 A 
HETATM    8  C   UNK N   1      35.365  10.924  12.824  0.00  0.00    -0.001 A 
HETATM    9  C   UNK N   1      35.145  10.821  10.359  0.00  0.00     0.025 A 
HETATM   10  N   UNK N   1      35.301   9.478  10.416  0.00  0.00    -0.358 N 
ATOM     11  HN  UNK N   1      35.278   8.948   9.546  1.00  0.00     0.166 HD
ENDROOT
BRANCH   6  12
HETATM   12  C   UNK N   1      35.147  13.083  11.532  0.00  0.00     0.013 C 
HETATM   13  C   UNK N   1      36.183  13.919  11.464  0.00  0.00     0.006 C 
BRANCH  13  14
HETATM   14  C   UNK N   1      35.953  15.389  11.492  0.00  0.00     0.143 C 
BRANCH  14  15
HETATM   15  C   UNK N   1      34.677  15.760  10.753  0.00  0.00     0.068 C 
BRANCH  15  16
HETATM   16  C   UNK N   1      35.024  16.241   9.360  0.00  0.00     0.130 C 
BRANCH  16  17
HETATM   17  C   UNK N   1      33.931  17.182   8.867  0.00  0.00     0.141 C 
BRANCH  17  18
HETATM   18  C   UNK N   1      34.444  18.239   7.936  0.00  0.00     0.141 C 
HETATM   19  O   UNK N   1      35.066  19.186   8.387  0.00  0.00    -0.650 OA
BRANCH  18  20
HETATM   20  O   UNK N   1      34.246  18.145   6.605  0.00  0.00    -0.776 OA
HETATM   21  H   UNK N   1      34.284  18.846   5.984  0.00  0.00     0.167 HD
ENDBRANCH  18  20
ENDBRANCH  17  18
ENDBRANCH  16  17
BRANCH  16  22
HETATM   22  O   UNK N   1      35.115  15.145   8.503  0.00  0.00    -0.395 OA
HETATM   23  H   UNK N   1      34.815  14.847   7.629  0.00  0.00     0.210 HD
ENDBRANCH  16  22
ENDBRANCH  15  16
ENDBRANCH  14  15
BRANCH  14  24
HETATM   24  O   UNK N   1      37.034  16.042  10.899  0.00  0.00    -0.392 OA
HETATM   25  H   UNK N   1      37.963  15.832  11.083  0.00  0.00     0.210 HD
ENDBRANCH  14  24
ENDBRANCH  13  14
ENDBRANCH   6  12
BRANCH   8  26
HETATM   26  C   UNK N   1      35.412  11.706  14.140  0.00  0.00    -0.024 A 
HETATM   27  C   UNK N   1      34.253  11.918  14.913  0.00  0.00     0.015 A 
HETATM   28  C   UNK N   1      34.285  12.648  16.103  0.00  0.00     0.043 A 
HETATM   29  C   UNK N   1      35.485  13.190  16.551  0.00  0.00     0.116 A 
HETATM   30  C   UNK N   1      36.653  12.990  15.817  0.00  0.00     0.043 A 
HETATM   31  F   UNK N   1      35.515  13.913  17.696  0.00  0.00    -0.206 F 
HETATM   32  C   UNK N   1      36.615  12.253  14.630  0.00  0.00     0.015 A 
ENDBRANCH   8  26
BRANCH   9  33
HETATM   33  C   UNK N   1      34.951  11.429   8.991  0.00  0.00     0.036 A 
HETATM   34  C   UNK N   1      34.280  10.435   8.053  0.00  0.00     0.011 A 
HETATM   35  C   UNK N   1      33.467  11.546   8.660  0.00  0.00     0.011 A 
ENDBRANCH   9  33
TORSDOF 11
ENDMDL
MODEL 8
REMARK VINA RESULT:      -6.5     13.700     16.638
REMARK  11 active torsions:
REMARK  status: ('A' for Active; 'I' for Inactive)
REMARK    1  A    between atoms: C_18  and  C_11 
REMARK    2  A    between atoms: C_21  and  C_12 
REMARK    3  A    between atoms: C_18  and  C_13 
REMARK    4  A    between atoms: C_19  and  C_13 
REMARK    5  A    between atoms: C_19  and  C_14 
REMARK    6  A    between atoms: C_23  and  C_14 
REMARK    7  A    between atoms: C_24  and  C_15 
REMARK    8  A    between atoms: C_25  and  C_16 
REMARK    9  A    between atoms: C_18  and  O_29 
REMARK   10  A    between atoms: C_19  and  O_30 
REMARK   11  A    between atoms: O_32  and  C_23 
ROOT
HETATM    1  C   UNK N   1      38.376   7.774  14.479  0.00  0.00     0.001 A 
HETATM    2  C   UNK N   1      39.085   7.150  13.456  0.00  0.00     0.002 A 
HETATM    3  C   UNK N   1      37.686   8.961  14.227  0.00  0.00     0.014 A 
HETATM    4  C   UNK N   1      39.097   7.709  12.179  0.00  0.00     0.030 A 
HETATM    5  C   UNK N   1      37.691   9.553  12.948  0.00  0.00     0.003 A 
HETATM    6  C   UNK N   1      37.072  11.286  11.320  0.00  0.00    -0.001 A 
HETATM    7  C   UNK N   1      38.407   8.898  11.922  0.00  0.00     0.043 A 
HETATM    8  C   UNK N   1      36.997  10.772  12.665  0.00  0.00    -0.001 A 
HETATM    9  C   UNK N   1      37.795  10.553  10.331  0.00  0.00     0.025 A 
HETATM   10  N   UNK N   1      38.432   9.408  10.673  0.00  0.00    -0.358 N 
ATOM     11  HN  UNK N   1      38.955   8.909   9.954  1.00  0.00     0.166 HD
ENDROOT
BRANCH   6  12
HETATM   12  C   UNK N   1      36.457  12.609  11.018  0.00  0.00     0.013 C 
HETATM   13  C   UNK N   1      37.046  13.802  11.079  0.00  0.00     0.006 C 
BRANCH  13  14
HETATM   14  C   UNK N   1      36.262  15.033  10.783  0.00  0.00     0.143 C 
BRANCH  14  15
HETATM   15  C   UNK N   1      35.654  14.976   9.391  0.00  0.00     0.068 C 
BRANCH  15  16
HETATM   16  C   UNK N   1      34.508  15.962   9.302  0.00  0.00     0.130 C 
BRANCH  16  17
HETATM   17  C   UNK N   1      34.648  16.779   8.023  0.00  0.00     0.141 C 
BRANCH  17  18
HETATM   18  C   UNK N   1      34.290  18.224   8.209  0.00  0.00     0.141 C 
HETATM   19  O   UNK N   1      33.119  18.562   8.170  0.00  0.00    -0.650 OA
BRANCH  18  20
HETATM   20  O   UNK N   1      35.244  19.149   8.441  0.00  0.00    -0.776 OA
HETATM   21  H   UNK N   1      36.165  18.994   8.515  0.00  0.00     0.167 HD
ENDBRANCH  18  20
ENDBRANCH  17  18
ENDBRANCH  16  17
BRANCH  16  22
HETATM   22  O   UNK N   1      34.546  16.814  10.404  0.00  0.00    -0.395 OA
HETATM   23  H   UNK N   1      34.797  16.820  11.341  0.00  0.00     0.210 HD
ENDBRANCH  16  22
ENDBRANCH  15  16
ENDBRANCH  14  15
BRANCH  14  24
HETATM   24  O   UNK N   1      37.093  16.150  10.878  0.00  0.00    -0.392 OA
HETATM   25  H   UNK N   1      37.820  16.340  10.265  0.00  0.00     0.210 HD
ENDBRANCH  14  24
ENDBRANCH  13  14
ENDBRANCH   6  12
BRANCH   8  26
HETATM   26  C   UNK N   1      36.225  11.515  13.760  0.00  0.00    -0.024 A 
HETATM   27  C   UNK N   1      36.851  12.475  14.581  0.00  0.00     0.015 A 
HETATM   28  C   UNK N   1      36.159  13.140  15.595  0.00  0.00     0.043 A 
HETATM   29  C   UNK N   1      34.814  12.858  15.816  0.00  0.00     0.116 A 
HETATM   30  C   UNK N   1      34.161  11.923  15.015  0.00  0.00     0.043 A 
HETATM   31  F   UNK N   1      34.145  13.489  16.810  0.00  0.00    -0.206 F 
HETATM   32  C   UNK N   1      34.858  11.265  13.997  0.00  0.00     0.015 A 
ENDBRANCH   8  26
BRANCH   9  33
HETATM   33  C   UNK N   1      37.915  10.999   8.894  0.00  0.00     0.036 A 
HETATM   34  C   UNK N   1      38.004   9.795   7.965  0.00  0.00     0.011 A 
HETATM   35  C   UNK N   1      36.705  10.544   8.086  0.00  0.00     0.011 A 
ENDBRANCH   9  33
TORSDOF 11
ENDMDL
MODEL 9
REMARK VINA RESULT:      -6.5      6.441      9.847
REMARK  11 active torsions:
REMARK  status: ('A' for Active; 'I' for Inactive)
REMARK    1  A    between atoms: C_18  and  C_11 
REMARK    2  A    between atoms: C_21  and  C_12 
REMARK    3  A    between atoms: C_18  and  C_13 
REMARK    4  A    between atoms: C_19  and  C_13 
REMARK    5  A    between atoms: C_19  and  C_14 
REMARK    6  A    between atoms: C_23  and  C_14 
REMARK    7  A    between atoms: C_24  and  C_15 
REMARK    8  A    between atoms: C_25  and  C_16 
REMARK    9  A    between atoms: C_18  and  O_29 
REMARK   10  A    between atoms: C_19  and  O_30 
REMARK   11  A    between atoms: O_32  and  C_23 
ROOT
HETATM    1  C   UNK N   1      23.252  16.546   3.686  0.00  0.00     0.001 A 
HETATM    2  C   UNK N   1      23.029  15.279   3.150  0.00  0.00     0.002 A 
HETATM    3  C   UNK N   1      24.547  16.946   4.014  0.00  0.00     0.014 A 
HETATM    4  C   UNK N   1      24.105  14.418   2.936  0.00  0.00     0.030 A 
HETATM    5  C   UNK N   1      25.650  16.092   3.819  0.00  0.00     0.003 A 
HETATM    6  C   UNK N   1      28.038  15.519   3.911  0.00  0.00    -0.001 A 
HETATM    7  C   UNK N   1      25.404  14.816   3.264  0.00  0.00     0.043 A 
HETATM    8  C   UNK N   1      26.988  16.476   4.153  0.00  0.00    -0.001 A 
HETATM    9  C   UNK N   1      27.713  14.259   3.322  0.00  0.00     0.025 A 
HETATM   10  N   UNK N   1      26.424  13.961   3.037  0.00  0.00    -0.358 N 
ATOM     11  HN  UNK N   1      26.213  13.049   2.632  1.00  0.00     0.166 HD
ENDROOT
BRANCH   6  12
HETATM   12  C   UNK N   1      29.424  15.842   4.350  0.00  0.00     0.013 C 
HETATM   13  C   UNK N   1      30.028  15.440   5.468  0.00  0.00     0.006 C 
BRANCH  13  14
HETATM   14  C   UNK N   1      31.412  15.898   5.770  0.00  0.00     0.143 C 
BRANCH  14  15
HETATM   15  C   UNK N   1      31.643  15.995   7.269  0.00  0.00     0.068 C 
BRANCH  15  16
HETATM   16  C   UNK N   1      31.804  17.449   7.660  0.00  0.00     0.130 C 
BRANCH  16  17
HETATM   17  C   UNK N   1      33.060  17.604   8.509  0.00  0.00     0.141 C 
BRANCH  17  18
HETATM   18  C   UNK N   1      34.197  18.236   7.765  0.00  0.00     0.141 C 
HETATM   19  O   UNK N   1      34.362  17.973   6.585  0.00  0.00    -0.650 OA
BRANCH  18  20
HETATM   20  O   UNK N   1      35.026  19.108   8.375  0.00  0.00    -0.776 OA
HETATM   21  H   UNK N   1      34.777  19.805   8.950  0.00  0.00     0.167 HD
ENDBRANCH  18  20
ENDBRANCH  17  18
ENDBRANCH  16  17
BRANCH  16  22
HETATM   22  O   UNK N   1      30.693  17.855   8.396  0.00  0.00    -0.395 OA
HETATM   23  H   UNK N   1      29.850  17.514   8.736  0.00  0.00     0.210 HD
ENDBRANCH  16  22
ENDBRANCH  15  16
ENDBRANCH  14  15
BRANCH  14  24
HETATM   24  O   UNK N   1      31.627  17.147   5.189  0.00  0.00    -0.392 OA
HETATM   25  H   UNK N   1      32.496  17.474   4.909  0.00  0.00     0.210 HD
ENDBRANCH  14  24
ENDBRANCH  13  14
ENDBRANCH   6  12
BRANCH   8  26
HETATM   26  C   UNK N   1      27.285  17.846   4.772  0.00  0.00    -0.024 A 
HETATM   27  C   UNK N   1      27.459  18.005   6.161  0.00  0.00     0.015 A 
HETATM   28  C   UNK N   1      27.709  19.254   6.733  0.00  0.00     0.043 A 
HETATM   29  C   UNK N   1      27.790  20.383   5.924  0.00  0.00     0.116 A 
HETATM   30  C   UNK N   1      27.635  20.260   4.544  0.00  0.00     0.043 A 
HETATM   31  F   UNK N   1      28.015  21.598   6.478  0.00  0.00    -0.206 F 
HETATM   32  C   UNK N   1      27.391  19.005   3.977  0.00  0.00     0.015 A 
ENDBRANCH   8  26
BRANCH   9  33
HETATM   33  C   UNK N   1      28.744  13.200   3.013  0.00  0.00     0.036 A 
HETATM   34  C   UNK N   1      28.227  12.246   1.944  0.00  0.00     0.011 A 
HETATM   35  C   UNK N   1      29.216  13.315   1.567  0.00  0.00     0.011 A 
ENDBRANCH   9  33
TORSDOF 11
ENDMDL
