MODEL 1
REMARK VINA RESULT:      -8.1      0.000      0.000
REMARK  18 active torsions:
REMARK  status: ('A' for Active; 'I' for Inactive)
REMARK    1  A    between atoms: C_12  and  O_43 
REMARK    2  A    between atoms: C_13  and  O_44 
REMARK    3  A    between atoms: C_15  and  O_70 
REMARK    4  A    between atoms: C_16  and  O_69 
REMARK    5  A    between atoms: C_19  and  O_73 
REMARK    6  A    between atoms: C_20  and  O_74 
REMARK    7  A    between atoms: C_26  and  O_75 
REMARK    8  A    between atoms: C_27  and  O_76 
REMARK    9  A    between atoms: C_39  and  O_56 
REMARK   10  A    between atoms: C_40  and  O_55 
REMARK   11  A    between atoms: C_54  and  O_43 
REMARK   12  A    between atoms: C_53  and  O_44 
REMARK   13  A    between atoms: C_45  and  N_66 
REMARK   14  A    between atoms: C_46  and  N_65 
REMARK   15  A    between atoms: C_47  and  O_56 
REMARK   16  A    between atoms: C_48  and  O_55 
REMARK   17  A    between atoms: C_77  and  C_102 
REMARK   18  A    between atoms: C_78  and  C_103 
ROOT
HETATM    1  C   UNK N   1      23.446  16.080   3.773  0.00  0.00    -0.010 C 
HETATM    2  C   UNK N   1      25.127  17.519   4.352  0.00  0.00     0.022 C 
HETATM    3  C   UNK N   1      22.898  17.456   3.431  0.00  0.00     0.039 C 
HETATM    4  C   UNK N   1      22.707  14.842   4.108  0.00  0.00     0.162 C 
HETATM    5  C   UNK N   1      24.713  16.135   4.115  0.00  0.00    -0.010 C 
HETATM    6  C   UNK N   1      23.798  18.341   4.296  0.00  0.00     0.025 C 
HETATM    7  C   UNK N   1      26.219  18.124   3.479  0.00  0.00     0.004 C 
HETATM    8  C   UNK N   1      23.376  13.480   4.123  0.00  0.00     0.085 C 
HETATM    9  C   UNK N   1      23.961  19.805   3.819  0.00  0.00    -0.024 C 
HETATM   10  C   UNK N   1      26.352  19.511   4.085  0.00  0.00     0.015 C 
HETATM   11  C   UNK N   1      20.438  17.049   2.710  0.00  0.00     0.259 C 
HETATM   12  C   UNK N   1      25.194  20.353   3.648  0.00  0.00    -0.025 C 
HETATM   13  C   UNK N   1      23.773  12.962   2.718  0.00  0.00     0.136 C 
HETATM   14  O   UNK N   1      20.772  15.886   2.075  0.00  0.00    -0.316 OA
HETATM   15  C   UNK N   1      21.406  17.743   3.640  0.00  0.00     0.121 C 
HETATM   16  C   UNK N   1      28.431  18.417   4.434  0.00  0.00     0.126 C 
HETATM   17  C   UNK N   1      27.597  17.475   3.589  0.00  0.00     0.038 C 
HETATM   18  C   UNK N   1      27.825  19.811   4.049  0.00  0.00     0.041 C 
HETATM   19  O   UNK N   1      21.525  14.904   4.399  0.00  0.00    -0.292 OA
HETATM   20  O   UNK N   1      19.316  17.514   2.597  0.00  0.00    -0.265 OA
HETATM   21  C   UNK N   1      19.833  15.063   1.465  0.00  0.00     0.131 C 
HETATM   22  C   UNK N   1      24.493  13.346   5.151  0.00  0.00     0.021 C 
HETATM   23  C   UNK N   1      22.737  13.402   1.677  0.00  0.00     0.033 C 
HETATM   24  C   UNK N   1      21.306  13.035   2.008  0.00  0.00     0.005 C 
HETATM   25  C   UNK N   1      20.448  13.743   0.980  0.00  0.00     0.032 C 
ENDROOT
BRANCH  16  26
HETATM   26  O   UNK N   1      28.260  17.922   5.767  0.00  0.00    -0.353 OA
BRANCH  26  27
HETATM   27  C   UNK N   1      29.443  17.788   6.508  0.00  0.00     0.292 C 
HETATM   28  C   UNK N   1      30.366  16.751   5.914  0.00  0.00     0.207 C 
HETATM   29  C   UNK N   1      31.728  17.003   6.539  0.00  0.00     0.185 C 
HETATM   30  C   UNK N   1      31.666  17.428   8.040  0.00  0.00     0.181 C 
HETATM   31  C   UNK N   1      30.247  17.523   8.692  0.00  0.00     0.152 C 
HETATM   32  O   UNK N   1      29.125  17.402   7.829  0.00  0.00    -0.351 OA
HETATM   33  C   UNK N   1      30.062  18.680   9.668  0.00  0.00     0.042 C 
BRANCH  28  34
HETATM   34  O   UNK N   1      29.899  15.461   6.189  0.00  0.00    -0.383 OA
HETATM   35  C   UNK N   1      29.769  14.864   4.938  0.00  0.00     0.202 C 
ENDBRANCH  28  34
BRANCH  29  36
HETATM   36  O   UNK N   1      32.617  15.962   6.275  0.00  0.00    -0.385 OA
HETATM   37  C   UNK N   1      33.251  16.297   5.073  0.00  0.00     0.202 C 
ENDBRANCH  29  36
BRANCH  30  38
HETATM   38  O   UNK N   1      32.492  18.530   8.356  0.00  0.00    -0.385 OA
HETATM   39  C   UNK N   1      33.844  18.146   8.307  0.00  0.00     0.202 C 
ENDBRANCH  30  38
ENDBRANCH  26  27
ENDBRANCH  16  26
BRANCH  13  40
HETATM   40  O   UNK N   1      25.042  13.435   2.307  0.00  0.00    -0.355 OA
BRANCH  40  41
HETATM   41  C   UNK N   1      25.853  12.380   1.789  0.00  0.00     0.260 C 
HETATM   42  O   UNK N   1      27.230  12.686   1.932  0.00  0.00    -0.354 OA
HETATM   43  C   UNK N   1      27.962  11.728   1.188  0.00  0.00     0.153 C 
HETATM   44  C   UNK N   1      27.925  10.352   1.884  0.00  0.00     0.250 C 
HETATM   45  C   UNK N   1      29.363  12.225   0.887  0.00  0.00     0.042 C 
HETATM   46  C   UNK N   1      26.451   9.913   1.854  0.00  0.00     0.043 C 
HETATM   47  C   UNK N   1      25.537  10.996   2.414  0.00  0.00     0.063 C 
BRANCH  44  48
HETATM   48  N   UNK N   1      28.485  10.426   3.249  0.00  0.00     0.087 N 
HETATM   49  C   UNK N   1      27.788   9.529   4.164  0.00  0.00     0.310 C 
HETATM   50  C   UNK N   1      29.850   9.926   3.202  0.00  0.00     0.310 C 
ENDBRANCH  44  48
ENDBRANCH  40  41
ENDBRANCH  13  40
BRANCH  21  51
HETATM   51  C   UNK N   1      19.199  15.765   0.268  0.00  0.00     0.028 C 
HETATM   52  C   UNK N   1      18.064  14.941  -0.313  0.00  0.00     0.007 C 
ENDBRANCH  21  51
TORSDOF 18
ENDMDL
MODEL 2
REMARK VINA RESULT:      -7.8      3.836      6.641
REMARK  18 active torsions:
REMARK  status: ('A' for Active; 'I' for Inactive)
REMARK    1  A    between atoms: C_12  and  O_43 
REMARK    2  A    between atoms: C_13  and  O_44 
REMARK    3  A    between atoms: C_15  and  O_70 
REMARK    4  A    between atoms: C_16  and  O_69 
REMARK    5  A    between atoms: C_19  and  O_73 
REMARK    6  A    between atoms: C_20  and  O_74 
REMARK    7  A    between atoms: C_26  and  O_75 
REMARK    8  A    between atoms: C_27  and  O_76 
REMARK    9  A    between atoms: C_39  and  O_56 
REMARK   10  A    between atoms: C_40  and  O_55 
REMARK   11  A    between atoms: C_54  and  O_43 
REMARK   12  A    between atoms: C_53  and  O_44 
REMARK   13  A    between atoms: C_45  and  N_66 
REMARK   14  A    between atoms: C_46  and  N_65 
REMARK   15  A    between atoms: C_47  and  O_56 
REMARK   16  A    between atoms: C_48  and  O_55 
REMARK   17  A    between atoms: C_77  and  C_102 
REMARK   18  A    between atoms: C_78  and  C_103 
ROOT
HETATM    1  C   UNK N   1      29.321  16.354   6.095  0.00  0.00    -0.010 C 
HETATM    2  C   UNK N   1      31.412  15.957   6.932  0.00  0.00     0.022 C 
HETATM    3  C   UNK N   1      29.711  17.662   6.767  0.00  0.00     0.039 C 
HETATM    4  C   UNK N   1      27.968  15.811   5.835  0.00  0.00     0.162 C 
HETATM    5  C   UNK N   1      30.325  15.509   6.059  0.00  0.00    -0.010 C 
HETATM    6  C   UNK N   1      30.814  17.175   7.711  0.00  0.00     0.025 C 
HETATM    7  C   UNK N   1      32.770  16.274   6.318  0.00  0.00     0.004 C 
HETATM    8  C   UNK N   1      27.733  14.651   4.887  0.00  0.00     0.085 C 
HETATM    9  C   UNK N   1      31.850  18.241   8.142  0.00  0.00    -0.024 C 
HETATM   10  C   UNK N   1      33.576  16.645   7.552  0.00  0.00     0.015 C 
HETATM   11  C   UNK N   1      27.599  19.162   6.619  0.00  0.00     0.259 C 
HETATM   12  C   UNK N   1      33.184  18.018   8.002  0.00  0.00    -0.025 C 
HETATM   13  C   UNK N   1      27.968  15.002   3.396  0.00  0.00     0.136 C 
HETATM   14  O   UNK N   1      27.302  18.693   5.370  0.00  0.00    -0.316 OA
HETATM   15  C   UNK N   1      28.638  18.487   7.485  0.00  0.00     0.121 C 
HETATM   16  C   UNK N   1      34.582  14.694   6.646  0.00  0.00     0.126 C 
HETATM   17  C   UNK N   1      33.498  15.099   5.669  0.00  0.00     0.038 C 
HETATM   18  C   UNK N   1      34.943  16.067   7.311  0.00  0.00     0.041 C 
HETATM   19  O   UNK N   1      27.004  16.292   6.406  0.00  0.00    -0.292 OA
HETATM   20  O   UNK N   1      26.973  20.095   7.094  0.00  0.00    -0.265 OA
HETATM   21  C   UNK N   1      26.166  19.081   4.670  0.00  0.00     0.131 C 
HETATM   22  C   UNK N   1      28.405  13.352   5.313  0.00  0.00     0.021 C 
HETATM   23  C   UNK N   1      27.537  16.446   3.116  0.00  0.00     0.033 C 
HETATM   24  C   UNK N   1      26.122  16.781   3.535  0.00  0.00     0.005 C 
HETATM   25  C   UNK N   1      25.984  18.281   3.373  0.00  0.00     0.032 C 
ENDROOT
BRANCH  16  26
HETATM   26  O   UNK N   1      33.962  13.673   7.438  0.00  0.00    -0.353 OA
BRANCH  26  27
HETATM   27  C   UNK N   1      34.548  13.456   8.694  0.00  0.00     0.292 C 
HETATM   28  C   UNK N   1      34.609  11.987   9.040  0.00  0.00     0.207 C 
HETATM   29  C   UNK N   1      35.608  11.873  10.180  0.00  0.00     0.185 C 
HETATM   30  C   UNK N   1      35.546  13.056  11.196  0.00  0.00     0.181 C 
HETATM   31  C   UNK N   1      34.483  14.171  10.923  0.00  0.00     0.152 C 
HETATM   32  O   UNK N   1      33.790  14.120   9.684  0.00  0.00    -0.351 OA
HETATM   33  C   UNK N   1      34.942  15.591  11.233  0.00  0.00     0.042 C 
BRANCH  28  34
HETATM   34  O   UNK N   1      33.345  11.516   9.408  0.00  0.00    -0.383 OA
HETATM   35  C   UNK N   1      33.071  10.503   8.492  0.00  0.00     0.202 C 
ENDBRANCH  28  34
BRANCH  29  36
HETATM   36  O   UNK N   1      35.575  10.610  10.769  0.00  0.00    -0.385 OA
HETATM   37  C   UNK N   1      36.451   9.816  10.021  0.00  0.00     0.202 C 
ENDBRANCH  29  36
BRANCH  30  38
HETATM   38  O   UNK N   1      36.813  13.577  11.543  0.00  0.00    -0.385 OA
HETATM   39  C   UNK N   1      37.747  13.279  10.535  0.00  0.00     0.202 C 
ENDBRANCH  30  38
ENDBRANCH  26  27
ENDBRANCH  16  26
BRANCH  13  40
HETATM   40  O   UNK N   1      29.325  14.864   3.018  0.00  0.00    -0.355 OA
BRANCH  40  41
HETATM   41  C   UNK N   1      29.493  13.850   2.027  0.00  0.00     0.260 C 
HETATM   42  O   UNK N   1      30.646  13.069   2.294  0.00  0.00    -0.354 OA
HETATM   43  C   UNK N   1      30.886  12.257   1.159  0.00  0.00     0.153 C 
HETATM   44  C   UNK N   1      29.830  11.138   1.053  0.00  0.00     0.250 C 
HETATM   45  C   UNK N   1      32.317  11.752   1.142  0.00  0.00     0.042 C 
HETATM   46  C   UNK N   1      28.491  11.856   0.815  0.00  0.00     0.043 C 
HETATM   47  C   UNK N   1      28.248  12.941   1.859  0.00  0.00     0.063 C 
BRANCH  44  48
HETATM   48  N   UNK N   1      29.829  10.285   2.259  0.00  0.00     0.087 N 
HETATM   49  C   UNK N   1      28.478   9.883   2.631  0.00  0.00     0.310 C 
HETATM   50  C   UNK N   1      30.513   9.043   1.930  0.00  0.00     0.310 C 
ENDBRANCH  44  48
ENDBRANCH  40  41
ENDBRANCH  13  40
BRANCH  21  51
HETATM   51  C   UNK N   1      26.232  20.563   4.314  0.00  0.00     0.028 C 
HETATM   52  C   UNK N   1      25.938  20.786   2.841  0.00  0.00     0.007 C 
ENDBRANCH  21  51
TORSDOF 18
ENDMDL
MODEL 3
REMARK VINA RESULT:      -7.8      3.113      9.436
REMARK  18 active torsions:
REMARK  status: ('A' for Active; 'I' for Inactive)
REMARK    1  A    between atoms: C_12  and  O_43 
REMARK    2  A    between atoms: C_13  and  O_44 
REMARK    3  A    between atoms: C_15  and  O_70 
REMARK    4  A    between atoms: C_16  and  O_69 
REMARK    5  A    between atoms: C_19  and  O_73 
REMARK    6  A    between atoms: C_20  and  O_74 
REMARK    7  A    between atoms: C_26  and  O_75 
REMARK    8  A    between atoms: C_27  and  O_76 
REMARK    9  A    between atoms: C_39  and  O_56 
REMARK   10  A    between atoms: C_40  and  O_55 
REMARK   11  A    between atoms: C_54  and  O_43 
REMARK   12  A    between atoms: C_53  and  O_44 
REMARK   13  A    between atoms: C_45  and  N_66 
REMARK   14  A    between atoms: C_46  and  N_65 
REMARK   15  A    between atoms: C_47  and  O_56 
REMARK   16  A    between atoms: C_48  and  O_55 
REMARK   17  A    between atoms: C_77  and  C_102 
REMARK   18  A    between atoms: C_78  and  C_103 
ROOT
HETATM    1  C   UNK N   1      26.789  13.061   3.060  0.00  0.00    -0.010 C 
HETATM    2  C   UNK N   1      24.617  12.853   2.372  0.00  0.00     0.022 C 
HETATM    3  C   UNK N   1      26.835  11.985   1.986  0.00  0.00     0.039 C 
HETATM    4  C   UNK N   1      27.711  13.279   4.197  0.00  0.00     0.162 C 
HETATM    5  C   UNK N   1      25.605  13.625   3.129  0.00  0.00    -0.010 C 
HETATM    6  C   UNK N   1      25.370  11.544   1.965  0.00  0.00     0.025 C 
HETATM    7  C   UNK N   1      23.915  13.508   1.189  0.00  0.00     0.004 C 
HETATM    8  C   UNK N   1      27.715  14.568   4.997  0.00  0.00     0.085 C 
HETATM    9  C   UNK N   1      24.879  10.898   0.647  0.00  0.00    -0.024 C 
HETATM   10  C   UNK N   1      22.979  12.398   0.745  0.00  0.00     0.015 C 
HETATM   11  C   UNK N   1      29.280  11.114   1.999  0.00  0.00     0.259 C 
HETATM   12  C   UNK N   1      23.764  11.353   0.016  0.00  0.00    -0.025 C 
HETATM   13  C   UNK N   1      28.257  15.790   4.215  0.00  0.00     0.136 C 
HETATM   14  O   UNK N   1      29.771  12.369   2.223  0.00  0.00    -0.316 OA
HETATM   15  C   UNK N   1      27.806  10.809   2.142  0.00  0.00     0.121 C 
HETATM   16  C   UNK N   1      21.604  14.200   1.456  0.00  0.00     0.126 C 
HETATM   17  C   UNK N   1      23.030  14.708   1.520  0.00  0.00     0.038 C 
HETATM   18  C   UNK N   1      21.709  13.097   0.346  0.00  0.00     0.041 C 
HETATM   19  O   UNK N   1      28.489  12.399   4.521  0.00  0.00    -0.292 OA
HETATM   20  O   UNK N   1      30.036  10.189   1.753  0.00  0.00    -0.265 OA
HETATM   21  C   UNK N   1      31.125  12.629   2.401  0.00  0.00     0.131 C 
HETATM   22  C   UNK N   1      26.408  14.852   5.727  0.00  0.00     0.021 C 
HETATM   23  C   UNK N   1      29.385  15.359   3.271  0.00  0.00     0.033 C 
HETATM   24  C   UNK N   1      30.511  14.594   3.931  0.00  0.00     0.005 C 
HETATM   25  C   UNK N   1      31.386  14.086   2.803  0.00  0.00     0.032 C 
ENDROOT
BRANCH  16  26
HETATM   26  O   UNK N   1      21.320  13.812   2.805  0.00  0.00    -0.353 OA
BRANCH  26  27
HETATM   27  C   UNK N   1      21.105  14.873   3.697  0.00  0.00     0.292 C 
HETATM   28  C   UNK N   1      20.988  14.394   5.124  0.00  0.00     0.207 C 
HETATM   29  C   UNK N   1      21.178  15.628   5.991  0.00  0.00     0.185 C 
HETATM   30  C   UNK N   1      20.535  16.921   5.398  0.00  0.00     0.181 C 
HETATM   31  C   UNK N   1      19.788  16.780   4.031  0.00  0.00     0.152 C 
HETATM   32  O   UNK N   1      19.910  15.541   3.348  0.00  0.00    -0.351 OA
HETATM   33  C   UNK N   1      19.968  17.952   3.073  0.00  0.00     0.042 C 
BRANCH  28  34
HETATM   34  O   UNK N   1      19.743  13.794   5.342  0.00  0.00    -0.383 OA
HETATM   35  C   UNK N   1      20.032  12.440   5.492  0.00  0.00     0.202 C 
ENDBRANCH  28  34
BRANCH  29  36
HETATM   36  O   UNK N   1      20.843  15.380   7.322  0.00  0.00    -0.385 OA
HETATM   37  C   UNK N   1      21.927  14.681   7.864  0.00  0.00     0.202 C 
ENDBRANCH  29  36
BRANCH  30  38
HETATM   38  O   UNK N   1      21.380  18.053   5.449  0.00  0.00    -0.385 OA
HETATM   39  C   UNK N   1      22.726  17.648   5.461  0.00  0.00     0.202 C 
ENDBRANCH  30  38
ENDBRANCH  26  27
ENDBRANCH  16  26
BRANCH  13  40
HETATM   40  O   UNK N   1      27.254  16.426   3.446  0.00  0.00    -0.355 OA
BRANCH  40  41
HETATM   41  C   UNK N   1      27.343  17.848   3.539  0.00  0.00     0.260 C 
HETATM   42  O   UNK N   1      26.103  18.406   3.939  0.00  0.00    -0.354 OA
HETATM   43  C   UNK N   1      26.192  19.810   3.774  0.00  0.00     0.153 C 
HETATM   44  C   UNK N   1      27.116  20.429   4.843  0.00  0.00     0.250 C 
HETATM   45  C   UNK N   1      24.813  20.441   3.717  0.00  0.00     0.042 C 
HETATM   46  C   UNK N   1      28.515  19.856   4.562  0.00  0.00     0.043 C 
HETATM   47  C   UNK N   1      28.484  18.334   4.470  0.00  0.00     0.063 C 
BRANCH  44  48
HETATM   48  N   UNK N   1      26.628  20.138   6.207  0.00  0.00     0.087 N 
HETATM   49  C   UNK N   1      27.682  19.578   7.045  0.00  0.00     0.310 C 
HETATM   50  C   UNK N   1      26.280  21.402   6.838  0.00  0.00     0.310 C 
ENDBRANCH  44  48
ENDBRANCH  40  41
ENDBRANCH  13  40
BRANCH  21  51
HETATM   51  C   UNK N   1      31.902  12.337   1.121  0.00  0.00     0.028 C 
HETATM   52  C   UNK N   1      33.385  12.601   1.309  0.00  0.00     0.007 C 
ENDBRANCH  21  51
TORSDOF 18
ENDMDL
MODEL 4
REMARK VINA RESULT:      -7.8      2.934      5.474
REMARK  18 active torsions:
REMARK  status: ('A' for Active; 'I' for Inactive)
REMARK    1  A    between atoms: C_12  and  O_43 
REMARK    2  A    between atoms: C_13  and  O_44 
REMARK    3  A    between atoms: C_15  and  O_70 
REMARK    4  A    between atoms: C_16  and  O_69 
REMARK    5  A    between atoms: C_19  and  O_73 
REMARK    6  A    between atoms: C_20  and  O_74 
REMARK    7  A    between atoms: C_26  and  O_75 
REMARK    8  A    between atoms: C_27  and  O_76 
REMARK    9  A    between atoms: C_39  and  O_56 
REMARK   10  A    between atoms: C_40  and  O_55 
REMARK   11  A    between atoms: C_54  and  O_43 
REMARK   12  A    between atoms: C_53  and  O_44 
REMARK   13  A    between atoms: C_45  and  N_66 
REMARK   14  A    between atoms: C_46  and  N_65 
REMARK   15  A    between atoms: C_47  and  O_56 
REMARK   16  A    between atoms: C_48  and  O_55 
REMARK   17  A    between atoms: C_77  and  C_102 
REMARK   18  A    between atoms: C_78  and  C_103 
ROOT
HETATM    1  C   UNK N   1      23.394  14.990   3.493  0.00  0.00    -0.010 C 
HETATM    2  C   UNK N   1      25.639  14.552   3.476  0.00  0.00     0.022 C 
HETATM    3  C   UNK N   1      23.551  13.872   2.475  0.00  0.00     0.039 C 
HETATM    4  C   UNK N   1      22.335  16.020   3.586  0.00  0.00     0.162 C 
HETATM    5  C   UNK N   1      24.516  15.222   4.135  0.00  0.00    -0.010 C 
HETATM    6  C   UNK N   1      25.039  14.002   2.140  0.00  0.00     0.025 C 
HETATM    7  C   UNK N   1      26.418  13.489   4.241  0.00  0.00     0.004 C 
HETATM    8  C   UNK N   1      22.142  16.871   4.827  0.00  0.00     0.085 C 
HETATM    9  C   UNK N   1      25.723  12.723   1.601  0.00  0.00    -0.024 C 
HETATM   10  C   UNK N   1      27.481  13.108   3.224  0.00  0.00     0.015 C 
HETATM   11  C   UNK N   1      21.194  13.561   1.434  0.00  0.00     0.259 C 
HETATM   12  C   UNK N   1      26.865  12.247   2.166  0.00  0.00    -0.025 C 
HETATM   13  C   UNK N   1      21.601  16.086   6.048  0.00  0.00     0.136 C 
HETATM   14  O   UNK N   1      20.587  13.781   2.639  0.00  0.00    -0.316 OA
HETATM   15  C   UNK N   1      22.661  13.861   1.227  0.00  0.00     0.121 C 
HETATM   16  C   UNK N   1      28.624  14.054   5.078  0.00  0.00     0.126 C 
HETATM   17  C   UNK N   1      27.166  13.974   5.481  0.00  0.00     0.038 C 
HETATM   18  C   UNK N   1      28.730  12.892   4.031  0.00  0.00     0.041 C 
HETATM   19  O   UNK N   1      21.595  16.213   2.637  0.00  0.00    -0.292 OA
HETATM   20  O   UNK N   1      20.543  13.188   0.473  0.00  0.00    -0.265 OA
HETATM   21  C   UNK N   1      19.206  13.811   2.793  0.00  0.00     0.131 C 
HETATM   22  C   UNK N   1      23.333  17.760   5.163  0.00  0.00     0.021 C 
HETATM   23  C   UNK N   1      20.623  14.998   5.589  0.00  0.00     0.033 C 
HETATM   24  C   UNK N   1      19.491  15.488   4.712  0.00  0.00     0.005 C 
HETATM   25  C   UNK N   1      18.791  14.244   4.205  0.00  0.00     0.032 C 
ENDROOT
BRANCH  16  26
HETATM   26  O   UNK N   1      28.783  15.409   4.640  0.00  0.00    -0.353 OA
BRANCH  26  27
HETATM   27  C   UNK N   1      30.030  15.985   4.928  0.00  0.00     0.292 C 
HETATM   28  C   UNK N   1      30.085  16.533   6.334  0.00  0.00     0.207 C 
HETATM   29  C   UNK N   1      31.560  16.733   6.642  0.00  0.00     0.185 C 
HETATM   30  C   UNK N   1      32.397  17.236   5.425  0.00  0.00     0.181 C 
HETATM   31  C   UNK N   1      31.627  17.475   4.084  0.00  0.00     0.152 C 
HETATM   32  O   UNK N   1      30.275  17.042   4.024  0.00  0.00    -0.351 OA
HETATM   33  C   UNK N   1      32.385  17.073   2.824  0.00  0.00     0.042 C 
BRANCH  28  34
HETATM   34  O   UNK N   1      29.369  17.732   6.424  0.00  0.00    -0.383 OA
HETATM   35  C   UNK N   1      28.337  17.454   7.317  0.00  0.00     0.202 C 
ENDBRANCH  28  34
BRANCH  29  36
HETATM   36  O   UNK N   1      31.747  17.471   7.810  0.00  0.00    -0.385 OA
HETATM   37  C   UNK N   1      31.889  16.531   8.837  0.00  0.00     0.202 C 
ENDBRANCH  29  36
BRANCH  30  38
HETATM   38  O   UNK N   1      33.614  16.542   5.244  0.00  0.00    -0.385 OA
HETATM   39  C   UNK N   1      33.509  15.242   5.771  0.00  0.00     0.202 C 
ENDBRANCH  30  38
ENDBRANCH  26  27
ENDBRANCH  16  26
BRANCH  13  40
HETATM   40  O   UNK N   1      22.633  15.468   6.793  0.00  0.00    -0.355 OA
BRANCH  40  41
HETATM   41  C   UNK N   1      22.161  14.316   7.490  0.00  0.00     0.260 C 
HETATM   42  O   UNK N   1      23.195  13.359   7.644  0.00  0.00    -0.354 OA
HETATM   43  C   UNK N   1      22.605  12.161   8.116  0.00  0.00     0.153 C 
HETATM   44  C   UNK N   1      22.166  12.312   9.587  0.00  0.00     0.250 C 
HETATM   45  C   UNK N   1      23.511  10.971   7.866  0.00  0.00     0.042 C 
HETATM   46  C   UNK N   1      21.062  13.383   9.582  0.00  0.00     0.043 C 
HETATM   47  C   UNK N   1      21.519  14.648   8.863  0.00  0.00     0.063 C 
BRANCH  44  48
HETATM   48  N   UNK N   1      23.310  12.655  10.456  0.00  0.00     0.087 N 
HETATM   49  C   UNK N   1      23.129  12.140  11.808  0.00  0.00     0.310 C 
HETATM   50  C   UNK N   1      24.485  11.965   9.946  0.00  0.00     0.310 C 
ENDBRANCH  44  48
ENDBRANCH  40  41
ENDBRANCH  13  40
BRANCH  21  51
HETATM   51  C   UNK N   1      18.603  12.438   2.515  0.00  0.00     0.028 C 
HETATM   52  C   UNK N   1      18.854  11.486   3.671  0.00  0.00     0.007 C 
ENDBRANCH  21  51
TORSDOF 18
ENDMDL
MODEL 5
REMARK VINA RESULT:      -7.8      8.413     12.677
REMARK  18 active torsions:
REMARK  status: ('A' for Active; 'I' for Inactive)
REMARK    1  A    between atoms: C_12  and  O_43 
REMARK    2  A    between atoms: C_13  and  O_44 
REMARK    3  A    between atoms: C_15  and  O_70 
REMARK    4  A    between atoms: C_16  and  O_69 
REMARK    5  A    between atoms: C_19  and  O_73 
REMARK    6  A    between atoms: C_20  and  O_74 
REMARK    7  A    between atoms: C_26  and  O_75 
REMARK    8  A    between atoms: C_27  and  O_76 
REMARK    9  A    between atoms: C_39  and  O_56 
REMARK   10  A    between atoms: C_40  and  O_55 
REMARK   11  A    between atoms: C_54  and  O_43 
REMARK   12  A    between atoms: C_53  and  O_44 
REMARK   13  A    between atoms: C_45  and  N_66 
REMARK   14  A    between atoms: C_46  and  N_65 
REMARK   15  A    between atoms: C_47  and  O_56 
REMARK   16  A    between atoms: C_48  and  O_55 
REMARK   17  A    between atoms: C_77  and  C_102 
REMARK   18  A    between atoms: C_78  and  C_103 
ROOT
HETATM    1  C   UNK N   1      35.340  12.973  10.777  0.00  0.00    -0.010 C 
HETATM    2  C   UNK N   1      35.076  14.407   9.014  0.00  0.00     0.022 C 
HETATM    3  C   UNK N   1      35.405  14.357  11.405  0.00  0.00     0.039 C 
HETATM    4  C   UNK N   1      35.927  11.704  11.262  0.00  0.00     0.162 C 
HETATM    5  C   UNK N   1      34.998  13.031   9.510  0.00  0.00    -0.010 C 
HETATM    6  C   UNK N   1      35.748  15.206  10.179  0.00  0.00     0.025 C 
HETATM    7  C   UNK N   1      33.809  15.082   8.505  0.00  0.00     0.004 C 
HETATM    8  C   UNK N   1      35.520  10.357  10.696  0.00  0.00     0.085 C 
HETATM    9  C   UNK N   1      35.343  16.698  10.259  0.00  0.00    -0.024 C 
HETATM   10  C   UNK N   1      34.347  16.434   8.065  0.00  0.00     0.015 C 
HETATM   11  C   UNK N   1      36.001  13.947  13.897  0.00  0.00     0.259 C 
HETATM   12  C   UNK N   1      34.606  17.278   9.273  0.00  0.00    -0.025 C 
HETATM   13  C   UNK N   1      34.079   9.929  11.071  0.00  0.00     0.136 C 
HETATM   14  O   UNK N   1      35.217  12.829  13.945  0.00  0.00    -0.316 OA
HETATM   15  C   UNK N   1      36.355  14.603  12.582  0.00  0.00     0.121 C 
HETATM   16  C   UNK N   1      33.532  15.360   6.110  0.00  0.00     0.126 C 
HETATM   17  C   UNK N   1      33.169  14.454   7.269  0.00  0.00     0.038 C 
HETATM   18  C   UNK N   1      33.591  16.762   6.808  0.00  0.00     0.041 C 
HETATM   19  O   UNK N   1      36.778  11.727  12.135  0.00  0.00    -0.292 OA
HETATM   20  O   UNK N   1      36.498  14.397  14.915  0.00  0.00    -0.265 OA
HETATM   21  C   UNK N   1      35.116  12.026  15.075  0.00  0.00     0.131 C 
HETATM   22  C   UNK N   1      35.833  10.183   9.215  0.00  0.00     0.021 C 
HETATM   23  C   UNK N   1      33.732  10.410  12.485  0.00  0.00     0.033 C 
HETATM   24  C   UNK N   1      34.717   9.998  13.557  0.00  0.00     0.005 C 
HETATM   25  C   UNK N   1      34.308  10.749  14.807  0.00  0.00     0.032 C 
ENDROOT
BRANCH  16  26
HETATM   26  O   UNK N   1      34.736  14.784   5.591  0.00  0.00    -0.353 OA
BRANCH  26  27
HETATM   27  C   UNK N   1      34.599  13.489   5.068  0.00  0.00     0.292 C 
HETATM   28  C   UNK N   1      35.924  12.768   4.996  0.00  0.00     0.207 C 
HETATM   29  C   UNK N   1      35.585  11.297   4.822  0.00  0.00     0.185 C 
HETATM   30  C   UNK N   1      34.345  11.038   3.910  0.00  0.00     0.181 C 
HETATM   31  C   UNK N   1      33.639  12.293   3.299  0.00  0.00     0.152 C 
HETATM   32  O   UNK N   1      34.059  13.567   3.765  0.00  0.00    -0.351 OA
HETATM   33  C   UNK N   1      32.118  12.210   3.233  0.00  0.00     0.042 C 
BRANCH  28  34
HETATM   34  O   UNK N   1      36.691  13.254   3.931  0.00  0.00    -0.383 OA
HETATM   35  C   UNK N   1      37.863  13.713   4.528  0.00  0.00     0.202 C 
ENDBRANCH  28  34
BRANCH  29  36
HETATM   36  O   UNK N   1      36.710  10.545   4.487  0.00  0.00    -0.385 OA
HETATM   37  C   UNK N   1      37.238  10.086   5.699  0.00  0.00     0.202 C 
ENDBRANCH  29  36
BRANCH  30  38
HETATM   38  O   UNK N   1      33.433  10.097   4.440  0.00  0.00    -0.385 OA
HETATM   39  C   UNK N   1      33.711   8.818   3.928  0.00  0.00     0.202 C 
ENDBRANCH  30  38
ENDBRANCH  26  27
ENDBRANCH  16  26
BRANCH  13  40
HETATM   40  O   UNK N   1      33.113  10.449  10.177  0.00  0.00    -0.355 OA
BRANCH  40  41
HETATM   41  C   UNK N   1      32.272   9.420   9.654  0.00  0.00     0.260 C 
HETATM   42  O   UNK N   1      32.240   9.465   8.238  0.00  0.00    -0.354 OA
HETATM   43  C   UNK N   1      31.214   8.590   7.804  0.00  0.00     0.153 C 
HETATM   44  C   UNK N   1      31.626   7.118   8.011  0.00  0.00     0.250 C 
HETATM   45  C   UNK N   1      30.785   8.913   6.385  0.00  0.00     0.042 C 
HETATM   46  C   UNK N   1      31.756   6.936   9.533  0.00  0.00     0.043 C 
HETATM   47  C   UNK N   1      32.660   8.000  10.144  0.00  0.00     0.063 C 
BRANCH  44  48
HETATM   48  N   UNK N   1      32.866   6.800   7.276  0.00  0.00     0.087 N 
HETATM   49  C   UNK N   1      33.729   5.907   8.040  0.00  0.00     0.310 C 
HETATM   50  C   UNK N   1      32.502   6.042   6.088  0.00  0.00     0.310 C 
ENDBRANCH  44  48
ENDBRANCH  40  41
ENDBRANCH  13  40
BRANCH  21  51
HETATM   51  C   UNK N   1      34.447  12.786  16.217  0.00  0.00     0.028 C 
HETATM   52  C   UNK N   1      35.155  12.526  17.535  0.00  0.00     0.007 C 
ENDBRANCH  21  51
TORSDOF 18
ENDMDL
MODEL 6
REMARK VINA RESULT:      -7.7     12.903     16.034
REMARK  18 active torsions:
REMARK  status: ('A' for Active; 'I' for Inactive)
REMARK    1  A    between atoms: C_12  and  O_43 
REMARK    2  A    between atoms: C_13  and  O_44 
REMARK    3  A    between atoms: C_15  and  O_70 
REMARK    4  A    between atoms: C_16  and  O_69 
REMARK    5  A    between atoms: C_19  and  O_73 
REMARK    6  A    between atoms: C_20  and  O_74 
REMARK    7  A    between atoms: C_26  and  O_75 
REMARK    8  A    between atoms: C_27  and  O_76 
REMARK    9  A    between atoms: C_39  and  O_56 
REMARK   10  A    between atoms: C_40  and  O_55 
REMARK   11  A    between atoms: C_54  and  O_43 
REMARK   12  A    between atoms: C_53  and  O_44 
REMARK   13  A    between atoms: C_45  and  N_66 
REMARK   14  A    between atoms: C_46  and  N_65 
REMARK   15  A    between atoms: C_47  and  O_56 
REMARK   16  A    between atoms: C_48  and  O_55 
REMARK   17  A    between atoms: C_77  and  C_102 
REMARK   18  A    between atoms: C_78  and  C_103 
ROOT
HETATM    1  C   UNK N   1      28.352  23.400  -5.973  0.00  0.00    -0.010 C 
HETATM    2  C   UNK N   1      30.262  22.159  -5.769  0.00  0.00     0.022 C 
HETATM    3  C   UNK N   1      28.853  23.710  -4.572  0.00  0.00     0.039 C 
HETATM    4  C   UNK N   1      26.970  23.467  -6.502  0.00  0.00     0.162 C 
HETATM    5  C   UNK N   1      29.221  22.688  -6.652  0.00  0.00    -0.010 C 
HETATM    6  C   UNK N   1      29.766  22.507  -4.327  0.00  0.00     0.025 C 
HETATM    7  C   UNK N   1      31.709  22.576  -5.999  0.00  0.00     0.004 C 
HETATM    8  C   UNK N   1      26.672  23.428  -7.989  0.00  0.00     0.085 C 
HETATM    9  C   UNK N   1      30.894  22.718  -3.287  0.00  0.00    -0.024 C 
HETATM   10  C   UNK N   1      32.424  21.784  -4.917  0.00  0.00     0.015 C 
HETATM   11  C   UNK N   1      27.008  25.186  -3.499  0.00  0.00     0.259 C 
HETATM   12  C   UNK N   1      32.189  22.436  -3.591  0.00  0.00    -0.025 C 
HETATM   13  C   UNK N   1      27.114  24.703  -8.751  0.00  0.00     0.136 C 
HETATM   14  O   UNK N   1      26.781  25.836  -4.680  0.00  0.00    -0.316 OA
HETATM   15  C   UNK N   1      27.840  23.926  -3.442  0.00  0.00     0.121 C 
HETATM   16  C   UNK N   1      33.229  20.969  -6.998  0.00  0.00     0.126 C 
HETATM   17  C   UNK N   1      32.326  22.140  -7.327  0.00  0.00     0.038 C 
HETATM   18  C   UNK N   1      33.711  21.334  -5.552  0.00  0.00     0.041 C 
HETATM   19  O   UNK N   1      26.031  23.541  -5.729  0.00  0.00    -0.292 OA
HETATM   20  O   UNK N   1      26.477  25.571  -2.471  0.00  0.00    -0.265 OA
HETATM   21  C   UNK N   1      25.794  26.802  -4.832  0.00  0.00     0.131 C 
HETATM   22  C   UNK N   1      27.100  22.137  -8.677  0.00  0.00     0.021 C 
HETATM   23  C   UNK N   1      26.928  25.941  -7.866  0.00  0.00     0.033 C 
HETATM   24  C   UNK N   1      25.540  26.108  -7.287  0.00  0.00     0.005 C 
HETATM   25  C   UNK N   1      25.639  27.246  -6.292  0.00  0.00     0.032 C 
ENDROOT
BRANCH  16  26
HETATM   26  O   UNK N   1      32.387  19.826  -7.189  0.00  0.00    -0.353 OA
BRANCH  26  27
HETATM   27  C   UNK N   1      32.290  19.373  -8.513  0.00  0.00     0.292 C 
HETATM   28  C   UNK N   1      30.860  19.351  -8.998  0.00  0.00     0.207 C 
HETATM   29  C   UNK N   1      30.939  19.255 -10.512  0.00  0.00     0.185 C 
HETATM   30  C   UNK N   1      32.099  18.348 -11.028  0.00  0.00     0.181 C 
HETATM   31  C   UNK N   1      32.999  17.662  -9.947  0.00  0.00     0.152 C 
HETATM   32  O   UNK N   1      32.812  18.063  -8.598  0.00  0.00    -0.351 OA
HETATM   33  C   UNK N   1      34.482  17.588 -10.295  0.00  0.00     0.042 C 
BRANCH  28  34
HETATM   34  O   UNK N   1      30.169  18.269  -8.443  0.00  0.00    -0.383 OA
HETATM   35  C   UNK N   1      29.147  18.853  -7.699  0.00  0.00     0.202 C 
ENDBRANCH  28  34
BRANCH  29  36
HETATM   36  O   UNK N   1      29.695  18.971 -11.076  0.00  0.00    -0.385 OA
HETATM   37  C   UNK N   1      29.070  20.208 -11.264  0.00  0.00     0.202 C 
ENDBRANCH  29  36
BRANCH  30  38
HETATM   38  O   UNK N   1      32.845  18.920 -12.083  0.00  0.00    -0.385 OA
HETATM   39  C   UNK N   1      32.727  20.320 -12.050  0.00  0.00     0.202 C 
ENDBRANCH  30  38
ENDBRANCH  26  27
ENDBRANCH  16  26
BRANCH  13  40
HETATM   40  O   UNK N   1      28.469  24.646  -9.155  0.00  0.00    -0.355 OA
BRANCH  40  41
HETATM   41  C   UNK N   1      29.196  25.794  -8.716  0.00  0.00     0.260 C 
HETATM   42  O   UNK N   1      30.286  25.416  -7.892  0.00  0.00    -0.354 OA
HETATM   43  C   UNK N   1      30.807  26.593  -7.302  0.00  0.00     0.153 C 
HETATM   44  C   UNK N   1      31.552  27.446  -8.349  0.00  0.00     0.250 C 
HETATM   45  C   UNK N   1      31.636  26.268  -6.074  0.00  0.00     0.042 C 
HETATM   46  C   UNK N   1      30.481  27.888  -9.361  0.00  0.00     0.043 C 
HETATM   47  C   UNK N   1      29.682  26.697  -9.880  0.00  0.00     0.063 C 
BRANCH  44  48
HETATM   48  N   UNK N   1      32.662  26.690  -8.965  0.00  0.00     0.087 N 
HETATM   49  C   UNK N   1      32.805  27.006 -10.381  0.00  0.00     0.310 C 
HETATM   50  C   UNK N   1      33.904  27.139  -8.354  0.00  0.00     0.310 C 
ENDBRANCH  44  48
ENDBRANCH  40  41
ENDBRANCH  13  40
BRANCH  21  51
HETATM   51  C   UNK N   1      26.111  28.033  -3.988  0.00  0.00     0.028 C 
HETATM   52  C   UNK N   1      26.801  29.102  -4.816  0.00  0.00     0.007 C 
ENDBRANCH  21  51
TORSDOF 18
ENDMDL
MODEL 7
REMARK VINA RESULT:      -7.5      4.689      9.492
REMARK  18 active torsions:
REMARK  status: ('A' for Active; 'I' for Inactive)
REMARK    1  A    between atoms: C_12  and  O_43 
REMARK    2  A    between atoms: C_13  and  O_44 
REMARK    3  A    between atoms: C_15  and  O_70 
REMARK    4  A    between atoms: C_16  and  O_69 
REMARK    5  A    between atoms: C_19  and  O_73 
REMARK    6  A    between atoms: C_20  and  O_74 
REMARK    7  A    between atoms: C_26  and  O_75 
REMARK    8  A    between atoms: C_27  and  O_76 
REMARK    9  A    between atoms: C_39  and  O_56 
REMARK   10  A    between atoms: C_40  and  O_55 
REMARK   11  A    between atoms: C_54  and  O_43 
REMARK   12  A    between atoms: C_53  and  O_44 
REMARK   13  A    between atoms: C_45  and  N_66 
REMARK   14  A    between atoms: C_46  and  N_65 
REMARK   15  A    between atoms: C_47  and  O_56 
REMARK   16  A    between atoms: C_48  and  O_55 
REMARK   17  A    between atoms: C_77  and  C_102 
REMARK   18  A    between atoms: C_78  and  C_103 
ROOT
HETATM    1  C   UNK N   1      30.584  15.751   4.415  0.00  0.00    -0.010 C 
HETATM    2  C   UNK N   1      30.046  14.226   2.798  0.00  0.00     0.022 C 
HETATM    3  C   UNK N   1      29.104  15.986   4.154  0.00  0.00     0.039 C 
HETATM    4  C   UNK N   1      31.597  16.696   4.937  0.00  0.00     0.162 C 
HETATM    5  C   UNK N   1      31.023  14.685   3.786  0.00  0.00    -0.010 C 
HETATM    6  C   UNK N   1      28.958  15.350   2.770  0.00  0.00     0.025 C 
HETATM    7  C   UNK N   1      29.438  12.837   2.949  0.00  0.00     0.004 C 
HETATM    8  C   UNK N   1      32.954  16.232   5.434  0.00  0.00     0.085 C 
HETATM    9  C   UNK N   1      27.536  14.866   2.397  0.00  0.00    -0.024 C 
HETATM   10  C   UNK N   1      28.543  12.767   1.723  0.00  0.00     0.015 C 
HETATM   11  C   UNK N   1      28.485  18.069   5.572  0.00  0.00     0.259 C 
HETATM   12  C   UNK N   1      27.320  13.597   1.958  0.00  0.00    -0.025 C 
HETATM   13  C   UNK N   1      32.896  15.432   6.759  0.00  0.00     0.136 C 
HETATM   14  O   UNK N   1      29.300  17.669   6.593  0.00  0.00    -0.316 OA
HETATM   15  C   UNK N   1      28.549  17.414   4.212  0.00  0.00     0.121 C 
HETATM   16  C   UNK N   1      30.191  11.079   1.455  0.00  0.00     0.126 C 
HETATM   17  C   UNK N   1      30.413  11.666   2.834  0.00  0.00     0.038 C 
HETATM   18  C   UNK N   1      28.663  11.351   1.234  0.00  0.00     0.041 C 
HETATM   19  O   UNK N   1      31.354  17.889   4.961  0.00  0.00    -0.292 OA
HETATM   20  O   UNK N   1      27.736  19.021   5.716  0.00  0.00    -0.265 OA
HETATM   21  C   UNK N   1      29.492  18.423   7.745  0.00  0.00     0.131 C 
HETATM   22  C   UNK N   1      33.814  15.567   4.366  0.00  0.00     0.021 C 
HETATM   23  C   UNK N   1      31.789  15.983   7.665  0.00  0.00     0.033 C 
HETATM   24  C   UNK N   1      31.866  17.471   7.931  0.00  0.00     0.005 C 
HETATM   25  C   UNK N   1      30.581  17.832   8.649  0.00  0.00     0.032 C 
ENDROOT
BRANCH  16  26
HETATM   26  O   UNK N   1      31.150  11.759   0.637  0.00  0.00    -0.353 OA
BRANCH  26  27
HETATM   27  C   UNK N   1      32.492  11.508   0.959  0.00  0.00     0.292 C 
HETATM   28  C   UNK N   1      33.439  12.242   0.040  0.00  0.00     0.207 C 
HETATM   29  C   UNK N   1      34.789  12.224   0.737  0.00  0.00     0.185 C 
HETATM   30  C   UNK N   1      35.090  10.895   1.497  0.00  0.00     0.181 C 
HETATM   31  C   UNK N   1      33.997   9.777   1.433  0.00  0.00     0.152 C 
HETATM   32  O   UNK N   1      32.747  10.123   0.853  0.00  0.00    -0.351 OA
HETATM   33  C   UNK N   1      33.801   8.991   2.724  0.00  0.00     0.042 C 
BRANCH  28  34
HETATM   34  O   UNK N   1      33.492  11.619  -1.211  0.00  0.00    -0.383 OA
HETATM   35  C   UNK N   1      33.061  12.597  -2.105  0.00  0.00     0.202 C 
ENDBRANCH  28  34
BRANCH  29  36
HETATM   36  O   UNK N   1      35.813  12.644  -0.111  0.00  0.00    -0.385 OA
HETATM   37  C   UNK N   1      35.887  14.033   0.038  0.00  0.00     0.202 C 
ENDBRANCH  29  36
BRANCH  30  38
HETATM   38  O   UNK N   1      35.606  11.085   2.799  0.00  0.00    -0.385 OA
HETATM   39  C   UNK N   1      35.215  12.342   3.292  0.00  0.00     0.202 C 
ENDBRANCH  30  38
ENDBRANCH  26  27
ENDBRANCH  16  26
BRANCH  13  40
HETATM   40  O   UNK N   1      32.650  14.055   6.547  0.00  0.00    -0.355 OA
BRANCH  40  41
HETATM   41  C   UNK N   1      33.603  13.240   7.230  0.00  0.00     0.260 C 
HETATM   42  O   UNK N   1      34.874  13.865   7.258  0.00  0.00    -0.354 OA
HETATM   43  C   UNK N   1      35.812  12.912   7.725  0.00  0.00     0.153 C 
HETATM   44  C   UNK N   1      35.617  12.645   9.231  0.00  0.00     0.250 C 
HETATM   45  C   UNK N   1      37.227  13.310   7.351  0.00  0.00     0.042 C 
HETATM   46  C   UNK N   1      34.225  12.004   9.361  0.00  0.00     0.043 C 
HETATM   47  C   UNK N   1      33.160  12.844   8.663  0.00  0.00     0.063 C 
BRANCH  44  48
HETATM   48  N   UNK N   1      35.766  13.885  10.020  0.00  0.00     0.087 N 
HETATM   49  C   UNK N   1      34.886  13.890  11.182  0.00  0.00     0.310 C 
HETATM   50  C   UNK N   1      37.113  13.908  10.569  0.00  0.00     0.310 C 
ENDBRANCH  44  48
ENDBRANCH  40  41
ENDBRANCH  13  40
BRANCH  21  51
HETATM   51  C   UNK N   1      28.199  18.516   8.549  0.00  0.00     0.028 C 
HETATM   52  C   UNK N   1      27.986  17.269   9.389  0.00  0.00     0.007 C 
ENDBRANCH  21  51
TORSDOF 18
ENDMDL
MODEL 8
REMARK VINA RESULT:      -7.4      4.697     10.157
REMARK  18 active torsions:
REMARK  status: ('A' for Active; 'I' for Inactive)
REMARK    1  A    between atoms: C_12  and  O_43 
REMARK    2  A    between atoms: C_13  and  O_44 
REMARK    3  A    between atoms: C_15  and  O_70 
REMARK    4  A    between atoms: C_16  and  O_69 
REMARK    5  A    between atoms: C_19  and  O_73 
REMARK    6  A    between atoms: C_20  and  O_74 
REMARK    7  A    between atoms: C_26  and  O_75 
REMARK    8  A    between atoms: C_27  and  O_76 
REMARK    9  A    between atoms: C_39  and  O_56 
REMARK   10  A    between atoms: C_40  and  O_55 
REMARK   11  A    between atoms: C_54  and  O_43 
REMARK   12  A    between atoms: C_53  and  O_44 
REMARK   13  A    between atoms: C_45  and  N_66 
REMARK   14  A    between atoms: C_46  and  N_65 
REMARK   15  A    between atoms: C_47  and  O_56 
REMARK   16  A    between atoms: C_48  and  O_55 
REMARK   17  A    between atoms: C_77  and  C_102 
REMARK   18  A    between atoms: C_78  and  C_103 
ROOT
HETATM    1  C   UNK N   1      30.582  15.802   4.407  0.00  0.00    -0.010 C 
HETATM    2  C   UNK N   1      30.065  14.295   2.766  0.00  0.00     0.022 C 
HETATM    3  C   UNK N   1      29.099  16.020   4.149  0.00  0.00     0.039 C 
HETATM    4  C   UNK N   1      31.581  16.753   4.943  0.00  0.00     0.162 C 
HETATM    5  C   UNK N   1      31.036  14.753   3.761  0.00  0.00    -0.010 C 
HETATM    6  C   UNK N   1      28.962  15.403   2.755  0.00  0.00     0.025 C 
HETATM    7  C   UNK N   1      29.478  12.895   2.895  0.00  0.00     0.004 C 
HETATM    8  C   UNK N   1      32.945  16.301   5.432  0.00  0.00     0.085 C 
HETATM    9  C   UNK N   1      27.546  14.905   2.375  0.00  0.00    -0.024 C 
HETATM   10  C   UNK N   1      28.583  12.832   1.669  0.00  0.00     0.015 C 
HETATM   11  C   UNK N   1      28.450  18.072   5.599  0.00  0.00     0.259 C 
HETATM   12  C   UNK N   1      27.348  13.640   1.916  0.00  0.00    -0.025 C 
HETATM   13  C   UNK N   1      32.899  15.481   6.745  0.00  0.00     0.136 C 
HETATM   14  O   UNK N   1      29.271  17.668   6.614  0.00  0.00    -0.316 OA
HETATM   15  C   UNK N   1      28.524  17.439   4.229  0.00  0.00     0.121 C 
HETATM   16  C   UNK N   1      30.255  11.171   1.375  0.00  0.00     0.126 C 
HETATM   17  C   UNK N   1      30.469  11.741   2.762  0.00  0.00     0.038 C 
HETATM   18  C   UNK N   1      28.724  11.425   1.158  0.00  0.00     0.041 C 
HETATM   19  O   UNK N   1      31.321  17.943   4.986  0.00  0.00    -0.292 OA
HETATM   20  O   UNK N   1      27.687  19.011   5.758  0.00  0.00    -0.265 OA
HETATM   21  C   UNK N   1      29.452  18.407   7.777  0.00  0.00     0.131 C 
HETATM   22  C   UNK N   1      33.814  15.665   4.354  0.00  0.00     0.021 C 
HETATM   23  C   UNK N   1      31.784  16.002   7.660  0.00  0.00     0.033 C 
HETATM   24  C   UNK N   1      31.840  17.486   7.949  0.00  0.00     0.005 C 
HETATM   25  C   UNK N   1      30.550  17.817   8.672  0.00  0.00     0.032 C 
ENDROOT
BRANCH  16  26
HETATM   26  O   UNK N   1      31.204  11.878   0.567  0.00  0.00    -0.353 OA
BRANCH  26  27
HETATM   27  C   UNK N   1      31.653  11.184  -0.567  0.00  0.00     0.292 C 
HETATM   28  C   UNK N   1      33.150  10.987  -0.551  0.00  0.00     0.207 C 
HETATM   29  C   UNK N   1      33.435   9.900  -1.574  0.00  0.00     0.185 C 
HETATM   30  C   UNK N   1      32.531   9.974  -2.843  0.00  0.00     0.181 C 
HETATM   31  C   UNK N   1      31.484  11.136  -2.902  0.00  0.00     0.152 C 
HETATM   32  O   UNK N   1      31.309  11.913  -1.727  0.00  0.00    -0.351 OA
HETATM   33  C   UNK N   1      30.139  10.762  -3.515  0.00  0.00     0.042 C 
BRANCH  28  34
HETATM   34  O   UNK N   1      33.807  12.182  -0.866  0.00  0.00    -0.383 OA
HETATM   35  C   UNK N   1      34.539  12.488   0.279  0.00  0.00     0.202 C 
ENDBRANCH  28  34
BRANCH  29  36
HETATM   36  O   UNK N   1      34.799   9.794  -1.847  0.00  0.00    -0.385 OA
HETATM   37  C   UNK N   1      35.309   8.899  -0.900  0.00  0.00     0.202 C 
ENDBRANCH  29  36
BRANCH  30  38
HETATM   38  O   UNK N   1      31.992   8.728  -3.234  0.00  0.00    -0.385 OA
HETATM   39  C   UNK N   1      31.965   7.850  -2.135  0.00  0.00     0.202 C 
ENDBRANCH  30  38
ENDBRANCH  26  27
ENDBRANCH  16  26
BRANCH  13  40
HETATM   40  O   UNK N   1      32.673  14.103   6.512  0.00  0.00    -0.355 OA
BRANCH  40  41
HETATM   41  C   UNK N   1      33.617  13.290   7.209  0.00  0.00     0.260 C 
HETATM   42  O   UNK N   1      34.888  13.918   7.253  0.00  0.00    -0.354 OA
HETATM   43  C   UNK N   1      35.820  12.966   7.732  0.00  0.00     0.153 C 
HETATM   44  C   UNK N   1      35.606  12.700   9.236  0.00  0.00     0.250 C 
HETATM   45  C   UNK N   1      37.240  13.365   7.377  0.00  0.00     0.042 C 
HETATM   46  C   UNK N   1      34.213  12.058   9.348  0.00  0.00     0.043 C 
HETATM   47  C   UNK N   1      33.156  12.896   8.636  0.00  0.00     0.063 C 
BRANCH  44  48
HETATM   48  N   UNK N   1      35.742  13.942  10.025  0.00  0.00     0.087 N 
HETATM   49  C   UNK N   1      34.846  13.948  11.175  0.00  0.00     0.310 C 
HETATM   50  C   UNK N   1      37.082  13.967  10.594  0.00  0.00     0.310 C 
ENDBRANCH  44  48
ENDBRANCH  40  41
ENDBRANCH  13  40
BRANCH  21  51
HETATM   51  C   UNK N   1      28.159  18.469   8.583  0.00  0.00     0.028 C 
HETATM   52  C   UNK N   1      27.967  17.209   9.409  0.00  0.00     0.007 C 
ENDBRANCH  21  51
TORSDOF 18
ENDMDL
MODEL 9
REMARK VINA RESULT:      -7.4     13.590     17.981
REMARK  18 active torsions:
REMARK  status: ('A' for Active; 'I' for Inactive)
REMARK    1  A    between atoms: C_12  and  O_43 
REMARK    2  A    between atoms: C_13  and  O_44 
REMARK    3  A    between atoms: C_15  and  O_70 
REMARK    4  A    between atoms: C_16  and  O_69 
REMARK    5  A    between atoms: C_19  and  O_73 
REMARK    6  A    between atoms: C_20  and  O_74 
REMARK    7  A    between atoms: C_26  and  O_75 
REMARK    8  A    between atoms: C_27  and  O_76 
REMARK    9  A    between atoms: C_39  and  O_56 
REMARK   10  A    between atoms: C_40  and  O_55 
REMARK   11  A    between atoms: C_54  and  O_43 
REMARK   12  A    between atoms: C_53  and  O_44 
REMARK   13  A    between atoms: C_45  and  N_66 
REMARK   14  A    between atoms: C_46  and  N_65 
REMARK   15  A    between atoms: C_47  and  O_56 
REMARK   16  A    between atoms: C_48  and  O_55 
REMARK   17  A    between atoms: C_77  and  C_102 
REMARK   18  A    between atoms: C_78  and  C_103 
ROOT
HETATM    1  C   UNK N   1      35.683  10.757  13.620  0.00  0.00    -0.010 C 
HETATM    2  C   UNK N   1      35.185  10.794  15.852  0.00  0.00     0.022 C 
HETATM    3  C   UNK N   1      35.564  12.236  13.955  0.00  0.00     0.039 C 
HETATM    4  C   UNK N   1      35.484  10.080  12.319  0.00  0.00     0.162 C 
HETATM    5  C   UNK N   1      35.635  10.011  14.700  0.00  0.00    -0.010 C 
HETATM    6  C   UNK N   1      34.745  12.167  15.246  0.00  0.00     0.025 C 
HETATM    7  C   UNK N   1      36.119  10.960  17.044  0.00  0.00     0.004 C 
HETATM    8  C   UNK N   1      35.938   8.653  12.074  0.00  0.00     0.085 C 
HETATM    9  C   UNK N   1      34.894  13.375  16.203  0.00  0.00    -0.024 C 
HETATM   10  C   UNK N   1      35.255  11.777  17.990  0.00  0.00     0.015 C 
HETATM   11  C   UNK N   1      35.781  13.469  11.682  0.00  0.00     0.259 C 
HETATM   12  C   UNK N   1      35.210  13.196  17.514  0.00  0.00    -0.025 C 
HETATM   13  C   UNK N   1      37.477   8.485  12.020  0.00  0.00     0.136 C 
HETATM   14  O   UNK N   1      36.726  12.584  11.244  0.00  0.00    -0.316 OA
HETATM   15  C   UNK N   1      34.961  13.193  12.921  0.00  0.00     0.121 C 
HETATM   16  C   UNK N   1      35.651   9.696  19.063  0.00  0.00     0.126 C 
HETATM   17  C   UNK N   1      36.478   9.678  17.794  0.00  0.00     0.038 C 
HETATM   18  C   UNK N   1      35.554  11.233  19.358  0.00  0.00     0.041 C 
HETATM   19  O   UNK N   1      34.927  10.670  11.410  0.00  0.00    -0.292 OA
HETATM   20  O   UNK N   1      35.525  14.470  11.034  0.00  0.00    -0.265 OA
HETATM   21  C   UNK N   1      37.280  12.641   9.971  0.00  0.00     0.131 C 
HETATM   22  C   UNK N   1      35.250   7.620  12.958  0.00  0.00     0.021 C 
HETATM   23  C   UNK N   1      38.124   9.718  11.378  0.00  0.00     0.033 C 
HETATM   24  C   UNK N   1      37.571  10.094  10.020  0.00  0.00     0.005 C 
HETATM   25  C   UNK N   1      38.184  11.436   9.679  0.00  0.00     0.032 C 
ENDROOT
BRANCH  16  26
HETATM   26  O   UNK N   1      34.466   8.974  18.707  0.00  0.00    -0.353 OA
BRANCH  26  27
HETATM   27  C   UNK N   1      33.788   8.377  19.781  0.00  0.00     0.292 C 
HETATM   28  C   UNK N   1      34.717   7.564  20.650  0.00  0.00     0.207 C 
HETATM   29  C   UNK N   1      33.969   7.336  21.954  0.00  0.00     0.185 C 
HETATM   30  C   UNK N   1      32.437   7.100  21.770  0.00  0.00     0.181 C 
HETATM   31  C   UNK N   1      31.887   7.114  20.306  0.00  0.00     0.152 C 
HETATM   32  O   UNK N   1      32.780   7.524  19.280  0.00  0.00    -0.351 OA
HETATM   33  C   UNK N   1      30.522   7.772  20.136  0.00  0.00     0.042 C 
BRANCH  28  34
HETATM   34  O   UNK N   1      35.047   6.357  20.024  0.00  0.00    -0.383 OA
HETATM   35  C   UNK N   1      36.438   6.367  19.964  0.00  0.00     0.202 C 
ENDBRANCH  28  34
BRANCH  29  36
HETATM   36  O   UNK N   1      34.604   6.387  22.753  0.00  0.00    -0.385 OA
HETATM   37  C   UNK N   1      35.537   7.094  23.519  0.00  0.00     0.202 C 
ENDBRANCH  29  36
BRANCH  30  38
HETATM   38  O   UNK N   1      31.634   7.840  22.667  0.00  0.00    -0.385 OA
HETATM   39  C   UNK N   1      32.348   8.954  23.144  0.00  0.00     0.202 C 
ENDBRANCH  30  38
ENDBRANCH  26  27
ENDBRANCH  16  26
BRANCH  13  40
HETATM   40  O   UNK N   1      38.045   8.305  13.304  0.00  0.00    -0.355 OA
BRANCH  40  41
HETATM   41  C   UNK N   1      39.446   8.043  13.227  0.00  0.00     0.260 C 
HETATM   42  O   UNK N   1      40.031   8.038  14.518  0.00  0.00    -0.354 OA
HETATM   43  C   UNK N   1      41.437   8.018  14.352  0.00  0.00     0.153 C 
HETATM   44  C   UNK N   1      41.908   6.639  13.845  0.00  0.00     0.250 C 
HETATM   45  C   UNK N   1      42.142   8.480  15.614  0.00  0.00     0.042 C 
HETATM   46  C   UNK N   1      41.290   6.480  12.446  0.00  0.00     0.043 C 
HETATM   47  C   UNK N   1      39.786   6.732  12.471  0.00  0.00     0.063 C 
BRANCH  44  48
HETATM   48  N   UNK N   1      41.523   5.563  14.780  0.00  0.00     0.087 N 
HETATM   49  C   UNK N   1      41.153   4.344  14.072  0.00  0.00     0.310 C 
HETATM   50  C   UNK N   1      42.698   5.202  15.558  0.00  0.00     0.310 C 
ENDBRANCH  44  48
ENDBRANCH  40  41
ENDBRANCH  13  40
BRANCH  21  51
HETATM   51  C   UNK N   1      38.106  13.913   9.799  0.00  0.00     0.028 C 
HETATM   52  C   UNK N   1      38.926  13.865   8.523  0.00  0.00     0.007 C 
ENDBRANCH  21  51
TORSDOF 18
ENDMDL
