REMARK  19 active torsions:
REMARK  status: ('A' for Active; 'I' for Inactive)
REMARK    1  A    between atoms: C_1  and  C_2 
REMARK    2  A    between atoms: C_1  and  O_100 
REMARK    3  A    between atoms: C_2  and  C_3 
REMARK    4  A    between atoms: C_4  and  C_3 
REMARK    5  A    between atoms: C_10  and  N_32 
REMARK    6  A    between atoms: C_21  and  C_22 
REMARK    7  A    between atoms: C_22  and  C_26 
REMARK    8  A    between atoms: C_36  and  C_78 
REMARK    9  A    between atoms: C_42  and  O_45 
REMARK   10  A    between atoms: C_65  and  C_70 
REMARK   11  A    between atoms: C_70  and  O_71 
REMARK   12  A    between atoms: C_78  and  C_79 
REMARK       I    between atoms: C_79  and  N_81 
REMARK   13  A    between atoms: C_83  and  C_85 
REMARK       I    between atoms: C_85  and  N_86 
REMARK   14  A    between atoms: C_87  and  N_86 
REMARK   15  A    between atoms: C_87  and  C_88 
REMARK   16  A    between atoms: C_87  and  C_90 
REMARK   17  A    between atoms: C_88  and  C_93 
REMARK   18  A    between atoms: C_90  and  O_91 
REMARK   19  A    between atoms: C_96  and  O_99 
ROOT
HETATM    1  C   UNK N   1       4.579  -7.406   0.832  0.00  0.00     0.177 C 
HETATM    2  N   UNK N   1       5.500  -6.426   0.251  0.00  0.00    -0.346 N 
HETATM    3  C   UNK N   1       6.272  -5.587   1.031  0.00  0.00     0.241 C 
HETATM    4  C   UNK N   1       7.191  -4.534   0.374  0.00  0.00     0.186 C 
HETATM    5  N   UNK N   1       7.992  -5.173  -0.618  0.00  0.00    -0.345 N 
HETATM    6  C   UNK N   1       8.754  -6.249  -0.332  0.00  0.00     0.241 C 
HETATM    7  C   UNK N   1       9.214  -7.061  -1.429  0.00  0.00     0.177 C 
HETATM    8  C   UNK N   1      10.465  -6.622  -2.113  0.00  0.00     0.120 C 
HETATM    9  S   UNK N   1      11.554  -8.057  -2.049  0.00  0.00    -0.095 SA
HETATM   10  S   UNK N   1      10.109  -9.503  -2.708  0.00  0.00    -0.095 SA
HETATM   11  C   UNK N   1       9.436  -9.922  -1.034  0.00  0.00     0.120 C 
HETATM   12  C   UNK N   1      10.249  -9.606   0.258  0.00  0.00     0.186 C 
HETATM   13  N   UNK N   1       9.417  -9.781   1.443  0.00  0.00    -0.345 N 
HETATM   14  C   UNK N   1       8.943 -10.993   1.855  0.00  0.00     0.242 C 
HETATM   15  C   UNK N   1       9.026 -12.202   0.949  0.00  0.00     0.186 C 
HETATM   16  N   UNK N   1       7.785 -12.271   0.128  0.00  0.00    -0.345 N 
HETATM   17  C   UNK N   1       6.600 -11.594   0.398  0.00  0.00     0.241 C 
HETATM   18  C   UNK N   1       5.849 -10.824  -0.722  0.00  0.00     0.180 C 
HETATM   19  O   UNK N   1       8.356 -11.078   2.923  0.00  0.00    -0.271 OA
HETATM   20  C   UNK N   1       9.824 -13.442   1.535  0.00  0.00     0.120 C 
HETATM   21  O   UNK N   1       6.187 -11.504   1.543  0.00  0.00    -0.271 OA
HETATM   22  N   UNK N   1       5.682  -9.383  -0.410  0.00  0.00    -0.346 N 
HETATM   23  C   UNK N   1       4.748  -8.903   0.481  0.00  0.00     0.241 C 
HETATM   24  O   UNK N   1       6.257  -5.698   2.247  0.00  0.00    -0.271 OA
HETATM   25  C   UNK N   1       8.054  -3.540   1.221  0.00  0.00     0.120 C 
HETATM   26  O   UNK N   1       8.869  -6.672   0.810  0.00  0.00    -0.271 OA
HETATM   27  S   UNK N   1       9.647  -4.190   1.935  0.00  0.00    -0.095 SA
HETATM   28  C   UNK N   1      11.537 -10.362   0.565  0.00  0.00     0.242 C 
HETATM   29  N   UNK N   1      12.086 -11.332  -0.212  0.00  0.00    -0.346 N 
HETATM   30  C   UNK N   1      11.816 -11.590  -1.601  0.00  0.00     0.185 C 
HETATM   31  C   UNK N   1      13.032 -11.097  -2.345  0.00  0.00     0.243 C 
HETATM   32  N   UNK N   1      14.267 -11.429  -1.896  0.00  0.00    -0.337 N 
HETATM   33  O   UNK N   1      12.062 -10.135   1.644  0.00  0.00    -0.271 OA
HETATM   34  O   UNK N   1       4.004  -9.692   1.047  0.00  0.00    -0.271 OA
HETATM   35  O   UNK N   1      12.907 -10.272  -3.226  0.00  0.00    -0.271 OA
HETATM   36  C   UNK N   1      14.510 -12.594  -1.135  0.00  0.00     0.127 C 
HETATM   37  C   UNK N   1      15.862 -13.033  -1.641  0.00  0.00     0.022 C 
HETATM   38  C   UNK N   1      16.571 -11.717  -1.964  0.00  0.00     0.037 C 
HETATM   39  C   UNK N   1      15.459 -10.728  -2.276  0.00  0.00     0.179 C 
HETATM   40  C   UNK N   1      15.615  -9.437  -1.470  0.00  0.00     0.241 C 
HETATM   41  O   UNK N   1      16.599  -8.734  -1.665  0.00  0.00    -0.271 OA
HETATM   42  N   UNK N   1      14.648  -9.024  -0.596  0.00  0.00    -0.346 N 
HETATM   43  C   UNK N   1      14.617  -7.675  -0.052  0.00  0.00     0.172 C 
HETATM   44  C   UNK N   1      14.167  -6.713  -1.157  0.00  0.00     0.240 C 
HETATM   45  C   UNK N   1      13.726  -7.645   1.184  0.00  0.00     0.042 C 
HETATM   46  O   UNK N   1      14.467  -6.990  -2.306  0.00  0.00    -0.271 OA
HETATM   47  N   UNK N   1      13.426  -5.583  -0.962  0.00  0.00    -0.345 N 
HETATM   48  C   UNK N   1      13.145  -4.879   0.268  0.00  0.00     0.186 C 
HETATM   49  C   UNK N   1      11.995  -3.886  -0.105  0.00  0.00     0.120 C 
HETATM   50  C   UNK N   1      14.511  -4.339   0.692  0.00  0.00     0.242 C 
HETATM   51  S   UNK N   1      11.151  -2.824   1.157  0.00  0.00    -0.095 SA
HETATM   52  N   UNK N   1      15.450  -5.263   1.079  0.00  0.00    -0.344 N 
HETATM   53  C   UNK N   1      16.893  -5.156   1.263  0.00  0.00     0.205 C 
HETATM   54  O   UNK N   1      14.795  -3.157   0.559  0.00  0.00    -0.271 OA
HETATM   55  C   UNK N   1      17.402  -6.425   1.996  0.00  0.00     0.243 C 
HETATM   56  N   UNK N   1      17.242  -7.699   1.496  0.00  0.00    -0.350 N 
HETATM   57  C   UNK N   1      17.734  -8.884   2.224  0.00  0.00     0.225 C 
HETATM   58  S   UNK N   1      11.432 -12.987   2.514  0.00  0.00    -0.095 SA
HETATM   59  S   UNK N   1      13.312 -13.713   1.524  0.00  0.00    -0.095 SA
HETATM   60  C   UNK N   1      17.390 -10.224   1.568  0.00  0.00     0.236 C 
HETATM   61  N   UNK N   1      16.737 -11.218   2.272  0.00  0.00    -0.346 N 
HETATM   62  O   UNK N   1      17.965  -6.273   3.070  0.00  0.00    -0.271 OA
HETATM   63  O   UNK N   1      17.728 -10.412   0.411  0.00  0.00    -0.272 OA
HETATM   64  C   UNK N   1      16.159 -12.433   1.663  0.00  0.00     0.186 C 
HETATM   65  C   UNK N   1      14.735 -12.734   2.361  0.00  0.00     0.120 C 
HETATM   66  H   UNK N   1       5.572  -6.364  -0.729  0.00  0.00     0.163 HD
HETATM   67  H   UNK N   1       7.990  -4.819  -1.536  0.00  0.00     0.163 HD
HETATM   68  H   UNK N   1       9.184  -8.985   1.973  0.00  0.00     0.163 HD
HETATM   69  H   UNK N   1       7.805 -12.844  -0.672  0.00  0.00     0.163 HD
HETATM   70  H   UNK N   1       6.270  -8.736  -0.864  0.00  0.00     0.163 HD
HETATM   71  H   UNK N   1      12.740 -11.924   0.224  0.00  0.00     0.163 HD
HETATM   72  H   UNK N   1      13.949  -9.662  -0.324  0.00  0.00     0.163 HD
HETATM   73  H   UNK N   1      13.028  -5.193  -1.774  0.00  0.00     0.163 HD
HETATM   74  H   UNK N   1      15.084  -6.158   1.265  0.00  0.00     0.163 HD
HETATM   75  H   UNK N   1      16.788  -7.822   0.631  0.00  0.00     0.163 HD
HETATM   76  H   UNK N   1      16.652 -11.108   3.246  0.00  0.00     0.163 HD
ENDROOT
BRANCH  64  77
HETATM   77  C   UNK N   1      17.179 -13.613   1.563  0.00  0.00     0.242 C 
HETATM   78  N   UNK N   1      18.377 -13.467   0.891  0.00  0.00    -0.345 N 
HETATM   79  H   UNK N   1      18.540 -12.610   0.436  0.00  0.00     0.163 HD
HETATM   80  O   UNK N   1      16.900 -14.688   2.072  0.00  0.00    -0.271 OA
BRANCH  78  81
HETATM   81  C   UNK N   1      19.434 -14.497   0.801  0.00  0.00     0.186 C 
BRANCH  81  82
HETATM   82  C   UNK N   1      20.824 -13.952   0.384  0.00  0.00     0.074 C 
BRANCH  82  83
HETATM   83  C   UNK N   1      20.918 -12.522  -0.032  0.00  0.00    -0.056 A 
HETATM   84  C   UNK N   1      21.680 -11.645   0.745  0.00  0.00     0.010 A 
HETATM   85  C   UNK N   1      21.789 -10.301   0.385  0.00  0.00     0.037 A 
HETATM   86  C   UNK N   1      21.144  -9.831  -0.761  0.00  0.00     0.065 A 
HETATM   87  C   UNK N   1      20.402 -10.711  -1.558  0.00  0.00     0.037 A 
HETATM   88  C   UNK N   1      20.291 -12.059  -1.197  0.00  0.00     0.010 A 
BRANCH  86  89
HETATM   89  O   UNK N   1      21.234  -8.534  -1.093  0.00  0.00    -0.361 OA
HETATM   90  H   UNK N   1      22.049  -8.135  -1.325  0.00  0.00     0.217 HD
ENDBRANCH  86  89
ENDBRANCH  82  83
ENDBRANCH  81  82
BRANCH  81  91
HETATM   91  C   UNK N   1      19.104 -15.732  -0.025  0.00  0.00     0.163 C 
HETATM   92  O   UNK N   1      19.840 -16.088  -0.938  0.00  0.00    -0.648 OA
BRANCH  91  93
HETATM   93  O   UNK N   1      18.061 -16.510   0.310  0.00  0.00    -0.775 OA
HETATM   94  H   UNK N   1      17.227 -16.152   0.543  0.00  0.00     0.167 HD
ENDBRANCH  91  93
ENDBRANCH  81  91
ENDBRANCH  78  81
ENDBRANCH  64  77
BRANCH  53  95
HETATM   95  C   UNK N   1      17.624  -4.987  -0.091  0.00  0.00     0.146 C 
HETATM   96  C   UNK N   1      17.344  -3.635  -0.730  0.00  0.00     0.042 C 
BRANCH  95  97
HETATM   97  O   UNK N   1      19.006  -5.105   0.074  0.00  0.00    -0.393 OA
HETATM   98  H   UNK N   1      19.415  -5.977   0.188  0.00  0.00     0.210 HD
ENDBRANCH  95  97
ENDBRANCH  53  95
BRANCH  18  99
HETATM   99  C   UNK N   1       4.503 -11.407  -1.210  0.00  0.00     0.073 C 
BRANCH  99 100
HETATM  100  C   UNK N   1       4.322 -12.836  -0.852  0.00  0.00    -0.056 A 
HETATM  101  C   UNK N   1       3.369 -13.175   0.111  0.00  0.00     0.010 A 
HETATM  102  C   UNK N   1       3.276 -14.490   0.566  0.00  0.00     0.037 A 
HETATM  103  C   UNK N   1       4.140 -15.465   0.060  0.00  0.00     0.065 A 
HETATM  104  C   UNK N   1       5.073 -15.133  -0.927  0.00  0.00     0.037 A 
HETATM  105  C   UNK N   1       5.167 -13.817  -1.383  0.00  0.00     0.010 A 
BRANCH 103 106
HETATM  106  O   UNK N   1       4.080 -16.720   0.530  0.00  0.00    -0.361 OA
HETATM  107  H   UNK N   1       3.300 -17.123   0.858  0.00  0.00     0.217 HD
ENDBRANCH 103 106
ENDBRANCH  99 100
ENDBRANCH  18  99
BRANCH  30 108
HETATM  108  C   UNK N   1      11.223 -12.975  -1.914  0.00  0.00     0.137 C 
BRANCH 108 109
HETATM  109  C   UNK N   1      12.164 -14.135  -1.943  0.00  0.00     0.217 C 
HETATM  110  O   UNK N   1      13.003 -14.223  -2.825  0.00  0.00    -0.274 OA
HETATM  111  N   UNK N   1      12.038 -15.123  -1.038  0.00  0.00    -0.370 N 
HETATM  112  H   UNK N   1      11.366 -15.405  -0.376  0.00  0.00     0.159 HD
HETATM  113  H   UNK N   1      12.822 -15.719  -1.038  0.00  0.00     0.159 HD
ENDBRANCH 108 109
ENDBRANCH  30 108
BRANCH   1 114
HETATM  114  C   UNK N   1       3.111  -6.926   0.767  0.00  0.00     0.045 C 
BRANCH 114 115
HETATM  115  C   UNK N   1       2.414  -7.083  -0.585  0.00  0.00     0.112 C 
BRANCH 115 116
HETATM  116  C   UNK N   1       0.946  -6.765  -0.465  0.00  0.00     0.139 C 
HETATM  117  O   UNK N   1       0.581  -5.646  -0.138  0.00  0.00    -0.650 OA
BRANCH 116 118
HETATM  118  O   UNK N   1       0.026  -7.713  -0.732  0.00  0.00    -0.776 OA
HETATM  119  H   UNK N   1      -0.864  -7.489  -0.918  0.00  0.00     0.167 HD
ENDBRANCH 116 118
ENDBRANCH 115 116
ENDBRANCH 114 115
ENDBRANCH   1 114
BRANCH   7 120
HETATM  120  N   UNK N   1       8.138  -7.295  -2.377  0.00  0.00    -0.418 N 
HETATM  121  H   UNK N   1       7.618  -6.722  -3.042  0.00  0.00     0.150 HD
HETATM  122  H   UNK N   1       7.827  -8.266  -2.377  0.00  0.00     0.150 HD
ENDBRANCH   7 120
TORSDOF 19
